#------------------------------------------------------------------------------
#$Date: 2016-10-01 05:05:00 +0300 (Sat, 01 Oct 2016) $
#$Revision: 186860 $
#$URL: file:///home/coder/svn-repositories/cod/cif/1/54/42/1544227.cif $
#------------------------------------------------------------------------------
#
# This file is available in the Crystallography Open Database (COD),
# http://www.crystallography.net/. The original data for this entry
# were provided by IUCr Journals, http://journals.iucr.org/.
#
# The file may be used within the scientific community so long as
# proper attribution is given to the journal article from which the
# data were obtained.
#
data_1544227
loop_
_publ_author_name
'Aabaka, Sreenath Reddy'
'Yaaratha, Sarala'
'Krishna, L. Sivarama'
'Das, Samar K.'
'Ammireddy, Varada Reddy'
_publ_section_title
;
 (<i>E</i>)-2-[(2-Butyl-4-chloro-1<i>H</i>-imidazol-5-yl)methylidene]-<i>N</i>-methylhydrazine-1-carbothioamide
 monohydrate
;
_journal_issue                   9
_journal_name_full               IUCrData
_journal_page_first              x161514
_journal_paper_doi               10.1107/S2414314616015145
_journal_volume                  1
_journal_year                    2016
_chemical_formula_iupac          'C10 H16 Cl N5 S, H2 O'
_chemical_formula_moiety         'C10 H16 Cl N5 S, H2 O'
_chemical_formula_sum            'C10 H18 Cl N5 O S'
_chemical_formula_weight         291.80
_chemical_name_systematic
'(<i>E</i>)-2-[(2-Butyl-4-chloro-1<i>H</i>-imidazol-5-yl)methylidene]-<i>N</i>-methylhydrazine-1-carbothioamide monohydrate'
_space_group_crystal_system      monoclinic
_space_group_IT_number           14
_space_group_name_Hall           '-P 2ybc'
_space_group_name_H-M_alt        'P 1 21/c 1'
_symmetry_space_group_name_Hall  '-P 2ybc'
_symmetry_space_group_name_H-M   'P 1 21/c 1'
_atom_sites_solution_hydrogens   mixed
_atom_sites_solution_primary     direct
_atom_sites_solution_secondary   difmap
_cell_angle_alpha                90
_cell_angle_beta                 92.402(9)
_cell_angle_gamma                90
_cell_formula_units_Z            4
_cell_length_a                   6.494(4)
_cell_length_b                   17.665(10)
_cell_length_c                   13.508(8)
_cell_measurement_reflns_used    5524
_cell_measurement_temperature    300.15
_cell_measurement_theta_max      24.92
_cell_measurement_theta_min      2.31
_cell_volume                     1548.2(16)
_computing_cell_refinement
;
SMART (Bruker, 2004)
;
_computing_data_collection
;
SAINT (Bruker, 2004)
;
_computing_data_reduction
;
SAINT (Bruker, 2004)
;
_computing_molecular_graphics
;
<i>OLEX2</i> (Dolomanov <i>et al.</i>,  2009) and Mercury (Macrae <i>et
al.</i>,  2008)
;
_computing_publication_material
;
<i>OLEX2</i> (Dolomanov <i>et al.</i>,  2009)
;
_computing_structure_refinement
;
SHELXL2014 (Sheldrick, 2015)
;
_computing_structure_solution
;
SHELXS (Sheldrick, 2008)
;
_diffrn_ambient_temperature      300.15
_diffrn_measured_fraction_theta_full 1.000
_diffrn_measured_fraction_theta_max 0.987
_diffrn_measurement_device_type  'Bruker SMART CCD area detector'
_diffrn_measurement_method       'phi and omega scans'
_diffrn_radiation_monochromator  graphite
_diffrn_radiation_type           MoK\a
_diffrn_radiation_wavelength     0.71073
_diffrn_reflns_av_R_equivalents  0.0391
_diffrn_reflns_limit_h_max       8
_diffrn_reflns_limit_h_min       -8
_diffrn_reflns_limit_k_max       21
_diffrn_reflns_limit_k_min       -22
_diffrn_reflns_limit_l_max       16
_diffrn_reflns_limit_l_min       -16
_diffrn_reflns_number            15205
_diffrn_reflns_theta_full        25.242
_diffrn_reflns_theta_max         26.468
_diffrn_reflns_theta_min         1.899
_exptl_absorpt_coefficient_mu    0.379
_exptl_absorpt_correction_T_max  0.9486
_exptl_absorpt_correction_T_min  0.8948
_exptl_absorpt_correction_type   multi-scan
_exptl_absorpt_process_details
;
(SADABS; Bruker, 2004)
;
_exptl_crystal_colour            yellow
_exptl_crystal_density_diffrn    1.252
_exptl_crystal_description       block
_exptl_crystal_F_000             616
_exptl_crystal_size_max          0.3
_exptl_crystal_size_mid          0.2
_exptl_crystal_size_min          0.14
_refine_diff_density_max         0.229
_refine_diff_density_min         -0.306
_refine_ls_extinction_method     none
_refine_ls_goodness_of_fit_ref   1.030
_refine_ls_hydrogen_treatment    constr
_refine_ls_matrix_type           full
_refine_ls_number_parameters     192
_refine_ls_number_reflns         3151
_refine_ls_number_restraints     90
_refine_ls_restrained_S_all      1.061
_refine_ls_R_factor_all          0.0645
_refine_ls_R_factor_gt           0.0486
_refine_ls_shift/su_max          0.001
_refine_ls_shift/su_mean         0.000
_refine_ls_structure_factor_coef Fsqd
_refine_ls_weighting_details
'w=1/[\s^2^(Fo^2^)+(0.0896P)^2^+0.1249P] where P=(Fo^2^+2Fc^2^)/3'
_refine_ls_weighting_scheme      calc
_refine_ls_wR_factor_gt          0.1383
_refine_ls_wR_factor_ref         0.1504
_reflns_number_gt                2347
_reflns_number_total             3151
_reflns_threshold_expression     'I > 2\s(I)'
_cod_data_source_file            su4057sup1.cif
_cod_data_source_block           I
_cod_database_code               1544227
_shelx_space_group_comment
;
The symmetry employed for this shelxl refinement is uniquely defined
by the following loop, which should always be used as a source of
symmetry information in preference to the above space-group names.
They are only intended as comments.
;
_shelx_estimated_absorpt_t_min   0.895
_shelx_estimated_absorpt_t_max   0.949
_shelx_hkl_file
;
  -1   0   0  368.23    6.69
   1   0   0  344.02   12.00
   1   0   0  354.74    6.64
   1   0   0  344.31    6.68
   2   0   0  509.90   17.73
   2   0   0  521.81    9.97
  -2   0   0  548.28    9.87
   3   0   0  130.93    5.25
   3   0   0  132.69    3.20
  -3   0   0  134.75    2.91
  -3   0   0  136.51    3.16
   4   0   0   11.78    1.54
  -4   0   0   11.94    0.68
  -4   0   0   13.21    0.88
   4   0   0   11.80    0.92
  -5   0   0    1.60    0.65
   5   0   0    2.36    0.66
  -5   0   0    1.62    0.41
  -6   0   0  112.49    3.62
   6   0   0  106.79    3.52
   7   0   0   15.40    1.41
  -7   0   0   14.81    1.51
  -8   0   0    0.27    0.92
   8   0   0    0.75    0.69
  -8   1   0   -0.14    0.94
   8  -1   0    0.32    0.68
  -7   1   0    1.51    0.88
   7  -1   0    1.16    0.73
  -6   1   0   19.88    1.55
   6  -1   0   22.32    1.54
  -5   1   0    2.71    0.50
   5  -1   0    2.16    0.67
  -5   1   0    2.18    0.73
   4  -1   0    8.60    1.33
   4  -1   0    7.31    0.75
  -4   1   0    7.25    0.57
   3  -1   0  715.38   23.94
   3  -1   0  704.50   13.68
  -3   1   0  720.49   13.39
   3  -1   0  706.17   13.54
  -2   1   0 2013.68   36.40
   2  -1   0 1948.97   36.12
   2  -1   0 1934.15   66.39
   2  -1   0 2000.37   35.78
   1  -1   0  932.09   17.13
   1  -1   0  934.20   17.28
   1  -1   0  899.80   32.31
  -1   1   0  980.02   17.28
   0  -1   0   -0.65    0.05
   1   1   0  880.91   30.37
  -1  -1   0  904.55   16.83
   1   1   0  958.70   16.76
  -2  -1   0 2015.63   37.96
   2   1   0 2035.28   67.02
  -2  -1   0 2008.01   38.14
   2   1   0 2098.54   36.99
  -3  -1   0  748.74   13.46
   3   1   0  689.83   24.36
  -3  -1   0  742.93   13.83
   3   1   0  705.63   13.74
  -4  -1   0    8.27    0.55
   4   1   0    8.88    1.41
   4   1   0    7.98    0.79
  -4  -1   0    9.30    0.77
   5   1   0    2.29    0.69
   5   1   0    2.73    1.45
  -5  -1   0    2.35    0.69
   6   1   0   22.79    1.57
  -6  -1   0   18.98    1.44
  -7  -1   0    0.84    0.80
   7   1   0    0.76    0.68
  -8  -1   0    1.49    1.01
   8   1   0   -0.66    0.62
   8  -2   0   -0.45    0.55
  -8   2   0   -0.18    0.90
   7  -2   0    5.54    1.06
  -7   2   0    6.02    1.20
   6  -2   0    5.68    0.95
  -6   2   0    6.97    1.11
   5  -2   0  284.20    6.49
  -5   2   0  282.79    6.09
   4  -2   0    1.19    0.45
   4  -2   0    0.17    0.34
  -4   2   0    0.15    0.24
   3  -2   0   43.36    1.50
   3  -2   0   41.38    1.44
  -3   2   0   43.67    1.33
   3  -2   0   44.24    2.28
   2  -2   0   97.93    2.31
   2  -2   0   92.72    2.22
  -2   2   0   97.97    2.20
  -1   2   0  306.87    5.76
   1  -2   0  300.02    5.79
   1  -2   0  295.63    5.69
   0   2   0  605.68   20.73
   0  -2   0  638.18   11.53
   0  -2   0  600.67   11.82
   0   2   0  616.48   11.54
   1   2   0  308.17   10.51
  -1  -2   0  299.98    5.80
   1   2   0  303.56    5.77
   2   2   0   95.07    4.02
  -2  -2   0   96.20    2.25
  -2  -2   0  101.93    1.97
   2   2   0   95.75    2.30
  -3  -2   0   45.83    1.10
  -3  -2   0   43.00    1.42
   3   2   0   40.10    1.45
   3   2   0   39.31    2.52
   4   2   0    0.60    0.40
  -4  -2   0    0.26    0.21
   4   2   0   -0.04    0.86
  -4  -2   0    0.07    0.30
   5   2   0  300.40   11.46
  -5  -2   0  298.55    6.81
   5   2   0  295.10    6.83
  -6  -2   0    6.27    1.06
   6   2   0    6.72    1.04
   7   2   0    7.31    1.13
  -7  -2   0    7.87    1.23
  -8  -2   0    0.46    0.91
   8   2   0    0.26    0.71
   8  -3   0    0.80    0.69
  -8   3   0    1.49    1.10
  -7   3   0    1.59    0.91
   7  -3   0    0.47    0.67
  -6   3   0   31.32    1.52
   6  -3   0   35.09    1.86
  -5   3   0   58.58    1.98
   5  -3   0   60.45    2.35
   5  -3   0   61.46    2.26
  -4   3   0   55.19    1.74
   4  -3   0   53.05    1.87
   4  -3   0   54.92    1.96
   3  -3   0  288.24    6.05
   3  -3   0  300.44    6.22
  -3   3   0  293.46    6.01
   2  -3   0  543.09   10.45
  -2   3   0  574.70   10.57
   2  -3   0  547.04   10.63
   1  -3   0 1058.95   19.37
  -1   3   0 1055.02   19.52
  -1   3   0 1082.84   35.42
   1  -3   0 1046.89   19.56
   0  -3   0    0.01    0.15
   0   3   0    0.00    0.39
   0  -3   0    0.10    0.09
   0   3   0    0.25    0.09
   1   3   0 1107.83   20.17
  -1  -3   0 1138.98   20.38
   1   3   0 1071.52   36.69
  -2  -3   0  577.55   10.90
   2   3   0  579.10   10.87
   2   3   0  560.13   19.55
   3   3   0  295.68   11.12
   3   3   0  306.35    6.36
  -3  -3   0  303.27    6.29
  -3  -3   0  309.98    5.77
  -4  -3   0   57.41    1.95
   4   3   0   56.20    3.37
   4   3   0   56.29    2.01
  -4  -3   0   58.10    1.43
   5   3   0   61.71    2.40
  -5  -3   0   62.65    2.40
   5   3   0   72.13    4.12
   6   3   0   31.89    1.81
  -6  -3   0   31.48    1.77
   7   3   0   -0.36    0.61
  -7  -3   0    0.50    0.77
   8   3   0    1.61    0.88
  -8  -3   0    2.07    1.05
  -7   4   0    3.72    1.04
   7  -4   0    2.52    0.84
  -6   4   0   15.78    1.13
   6  -4   0   16.42    1.33
   5  -4   0   90.07    2.91
   5  -4   0   88.50    2.79
  -5   4   0   79.53    2.52
   4  -4   0    2.06    0.53
   4  -4   0    1.77    0.49
  -4   4   0    2.11    0.42
  -3   4   0    7.83    0.60
   3  -4   0    7.57    0.65
   3  -4   0    6.91    0.61
   2  -4   0   27.02    1.02
   2  -4   0   27.06    0.95
  -2   4   0   27.36    0.98
   1  -4   0  118.22    2.63
   1  -4   0  118.18    2.46
  -1   4   0  120.86    4.60
  -1   4   0  115.73    2.58
   0  -4   0 1236.20   24.52
   0  -4   0 1379.30   24.22
   0   4   0 1345.63   24.11
   0   4   0 1301.68   43.50
   1   4   0  123.87    2.36
   1   4   0  119.29    2.52
  -1  -4   0  122.00    2.62
   1   4   0  109.60    4.87
   2   4   0   25.91    2.10
  -2  -4   0   28.38    1.01
   2   4   0   29.33    1.05
   3   4   0    7.73    1.51
  -3  -4   0    8.17    0.66
   3   4   0    6.84    0.68
   4   4   0    2.49    1.30
  -4  -4   0    2.19    0.49
   4   4   0    1.55    0.51
   5   4   0   84.34    2.91
   5   4   0   99.51    5.11
  -5  -4   0   91.61    2.98
   6   4   0   19.37    1.50
  -6  -4   0   17.67    1.46
  -7  -4   0    4.62    1.05
   7   4   0    3.90    0.99
   7  -5   0    2.61    0.85
  -7   5   0    2.16    0.95
   6  -5   0    5.98    0.94
   6  -5   0    4.54    0.86
  -6   5   0    4.33    0.72
   5  -5   0    6.53    0.87
  -5   5   0    3.71    0.70
   5  -5   0    5.27    0.81
   4  -5   0    0.02    0.34
   4  -5   0    0.27    0.40
  -4   5   0   -0.24    0.29
   3  -5   0    2.20    0.42
  -3   5   0    1.89    0.37
   3  -5   0    2.29    0.45
  -2   5   0   45.75    1.41
   2  -5   0   43.44    1.43
   2  -5   0   43.79    1.29
   1  -5   0  340.49    6.46
  -1   5   0  342.02   11.84
   1  -5   0  341.67    6.73
  -1   5   0  333.32    6.65
   0   5   0   -0.90    0.73
   0  -5   0   -0.19    0.28
   0   5   0    0.13    0.13
   0  -5   0    0.55    0.20
   1   5   0  348.30    6.40
   1   5   0  317.60   12.06
   1   5   0  336.12    6.48
  -1  -5   0  351.81    6.71
   2   5   0   42.67    2.72
  -2  -5   0   45.75    1.43
   2   5   0   46.84    1.42
   3   5   0    1.91    0.46
  -3  -5   0    2.21    0.44
   3   5   0    1.68    1.24
   4   5   0   -0.38    1.24
   4   5   0   -0.17    0.39
  -4  -5   0    0.45    0.40
   5   5   0    6.55    2.10
  -5  -5   0    5.55    0.88
   5   5   0    6.73    0.96
  -6  -5   0    4.05    0.90
   6   5   0    4.49    0.97
   7   5   0    3.04    1.00
  -7  -5   0    2.65    0.95
   7  -6   0    2.39    0.85
  -6   6   0    4.68    0.75
   6  -6   0    5.51    0.93
   6  -6   0    5.08    0.87
   5  -6   0   37.74    1.85
   5  -6   0   40.31    1.78
  -5   6   0   37.15    1.66
   4  -6   0   45.69    1.84
  -4   6   0   45.41    1.70
   4  -6   0   45.38    1.70
   3  -6   0    3.66    0.50
  -3   6   0    3.40    0.50
   3  -6   0    3.63    0.55
   2  -6   0  155.02    3.28
  -2   6   0  151.05    5.80
   2  -6   0  147.25    3.51
  -2   6   0  149.31    3.47
   1  -6   0  908.95   16.45
  -1   6   0  896.01   16.74
   1  -6   0  880.59   16.81
   0  -6   0   18.38    0.65
   0   6   0   15.97    1.79
   0   6   0   17.37    0.67
   0  -6   0   18.13    0.86
  -1  -6   0  938.92   17.30
   1   6   0  890.30   31.08
   1   6   0  933.81   16.97
   2   6   0  156.31    6.65
  -2  -6   0  164.98    3.67
   2   6   0  157.44    3.54
   3   6   0    4.12    0.59
  -3  -6   0    4.87    0.60
   3   6   0    1.96    1.56
   4   6   0   47.71    1.92
   4   6   0   51.47    3.62
  -4  -6   0   48.57    1.87
   5   6   0   42.78    1.99
   5   6   0   40.47    3.41
  -5  -6   0   42.42    1.95
   6   6   0    4.86    0.97
  -6  -6   0    4.71    0.97
   6   6   0    5.93    2.12
  -7  -6   0    4.31    1.07
   7   6   0    2.81    1.02
  -7   7   0    1.92    0.74
   7  -7   0    1.36    0.81
   7  -7   0    0.66    0.71
  -6   7   0   -0.03    0.49
   6  -7   0    0.28    0.52
   6  -7   0    0.16    0.56
   5  -7   0    0.60    0.49
  -5   7   0   -0.06    0.44
   5  -7   0   -0.13    0.50
   4  -7   0    5.85    0.76
  -4   7   0    3.27    0.67
   4  -7   0    5.14    0.70
   3  -7   0  270.89    5.59
   3  -7   0  258.28    5.85
  -3   7   0  266.91    5.81
   2  -7   0   53.20    1.50
  -2   7   0   54.61    2.85
   2  -7   0   51.66    1.72
  -2   7   0   56.03    1.72
  -1   7   0    1.96    1.09
   1  -7   0    2.86    0.35
   1  -7   0    1.81    0.38
  -1   7   0    2.17    0.34
   0   7   0   -0.25    1.07
   0  -7   0    0.24    0.20
   0  -7   0   -0.43    0.30
   1   7   0    2.12    0.25
  -1  -7   0    2.76    0.46
  -1  -7   0    2.53    0.31
   1   7   0    3.78    1.42
   2   7   0   54.35    1.62
  -2  -7   0   54.83    1.72
   2   7   0   53.45    3.39
   3   7   0  278.35    6.07
  -3  -7   0  285.13    6.17
   3   7   0  288.07   11.16
  -4  -7   0    5.36    0.78
   4   7   0    5.69    0.82
   4   7   0    7.49    2.06
  -5  -7   0   -0.09    0.56
   5   7   0   -0.01    0.59
   5   7   0   -0.62    1.57
   6   7   0   -0.40    0.62
  -6  -7   0   -0.84    0.57
   6   7   0    0.63    1.77
  -7  -7   0    1.60    0.95
   7   7   0    1.69    0.94
  -7   8   0    4.63    0.91
   7  -8   0    4.78    1.01
  -6   8   0    1.23    0.61
   6  -8   0    1.99    0.77
   6  -8   0    1.45    0.66
   5  -8   0    0.28    0.52
  -5   8   0    0.36    0.46
   5  -8   0    0.19    0.45
  -4   8   0  158.25    4.11
   4  -8   0  161.76    3.96
   4  -8   0  158.83    4.22
   3  -8   0    1.59    0.40
   3  -8   0    1.69    0.49
  -3   8   0    1.85    0.46
  -2   8   0    6.77    0.66
   2  -8   0    8.14    0.60
  -2   8   0    9.97    1.72
   2  -8   0    7.04    0.71
   1  -8   0 1095.79   20.27
   1  -8   0 1095.09   20.81
  -1   8   0 1106.05   37.10
  -1   8   0 1128.33   20.71
   0   8   0   41.12    1.30
   0  -8   0   43.56    1.24
   0   8   0   45.42    2.94
   0  -8   0   40.74    1.48
  -1  -8   0 1143.51   21.14
  -1  -8   0 1140.54   21.63
   1   8   0 1175.90   21.21
   1   8   0 1146.38   38.92
   2   8   0    6.30    0.63
  -2  -8   0    8.21    0.80
   2   8   0    3.97    1.56
   2   8   0    6.79    0.33
   3   8   0    2.28    0.52
  -3  -8   0    2.05    0.56
   3   8   0    2.51    1.61
   4   8   0  163.38    4.32
   4   8   0  188.87    8.11
  -4  -8   0  165.46    4.38
   5   8   0    0.35    1.64
   5   8   0    0.41    0.58
  -5  -8   0    1.24    0.64
   6   8   0    1.88    2.15
  -6  -8   0    1.72    0.79
   6   8   0    2.77    0.88
  -7  -8   0    3.11    1.03
   7   8   0    5.67    1.24
   7  -9   0    0.79    0.69
  -7   9   0   -0.13    0.64
  -6   9   0    0.10    0.55
   6  -9   0   -0.37    0.55
   5  -9   0    0.76    0.57
   5  -9   0    0.82    0.51
  -5   9   0    0.73    0.56
  -4   9   0   13.94    1.14
   4  -9   0   12.19    0.98
   4  -9   0   13.38    1.16
   3  -9   0   29.04    1.47
   3  -9   0   34.21    1.27
  -3   9   0   29.03    1.39
   2  -9   0  161.89    4.01
  -2   9   0  170.58    4.01
   2  -9   0  167.61    3.63
  -1   9   0   58.82    3.43
  -1   9   0   56.68    1.78
   1  -9   0   57.27    1.91
   1  -9   0   58.31    1.57
   0  -9   0    0.00    0.24
   0  -9   0   -0.16    0.39
   0   9   0   -0.09    0.19
   0   9   0    0.01    1.44
  -1  -9   0   60.98    1.67
   1   9   0   62.96    3.86
  -1  -9   0   58.89    1.99
   1   9   0   59.56    1.59
   2   9   0  168.18    7.67
   2   9   0  174.75    3.47
  -2  -9   0  178.86    4.26
   3   9   0   34.72    3.14
   3   9   0   37.03    1.51
  -3  -9   0   35.29    1.60
  -4  -9   0   12.65    1.18
   4   9   0   16.51    2.79
   4   9   0   13.07    1.12
   5   9   0   -0.05    1.86
  -5  -9   0    1.70    0.70
   5   9   0    0.63    0.61
   6   9   0    0.68    2.00
   6   9   0    0.25    0.73
  -6  -9   0   -0.50    0.64
   7   9   0   -0.38    0.79
  -7  -9   0   -0.35    0.78
  -7  10   0    0.79    0.69
   7 -10   0    1.24    0.74
   6 -10   0   28.79    1.86
  -6  10   0   28.91    1.73
   5 -10   0    0.53    0.59
  -5  10   0    1.89    0.65
   4 -10   0   47.80    2.09
  -4  10   0   46.80    1.98
   4 -10   0   51.30    1.85
   3 -10   0   20.47    1.27
   3 -10   0   18.23    0.96
  -3  10   0   19.15    1.16
   2 -10   0  213.82    5.10
  -2  10   0  228.06    8.79
  -2  10   0  222.90    5.07
   2 -10   0  218.84    4.64
   1 -10   0    0.26    0.31
   1 -10   0   -0.09    0.37
  -1  10   0    0.15    1.29
  -1  10   0    0.03    0.28
   0 -10   0    4.60    0.67
   0  10   0    5.60    1.78
   0  10   0    4.44    0.47
   0 -10   0    5.43    0.51
  -1 -10   0   -0.03    0.25
   1  10   0    0.00    0.20
  -1 -10   0    0.13    0.50
   1  10   0    1.31    1.51
  -2 -10   0  235.07    5.13
  -2 -10   0  235.93    5.47
   3  10   0   22.77    2.86
   3  10   0   21.25    1.17
  -3 -10   0   21.22    1.35
   4  10   0   54.89    4.30
  -4 -10   0   50.32    2.17
   4  10   0   52.36    2.11
  -5 -10   0    0.87    0.69
   5  10   0   -0.85    1.85
   5  10   0    0.11    0.59
   6  10   0   35.62    3.72
   6  10   0   29.71    1.93
  -6 -10   0   29.23    1.95
  -7 -10   0   -0.15    0.86
   7  10   0    0.21    0.83
  -7  11   0    0.56    0.71
   6 -11   0    3.63    0.94
  -6  11   0    4.33    0.92
   5 -11   0    4.45    0.88
  -5  11   0    4.84    0.86
  -4  11   0   39.88    1.86
   4 -11   0   35.69    1.81
   3 -11   0    5.94    0.81
  -3  11   0    6.50    0.79
  -2  11   0    7.10    0.72
   2 -11   0    8.56    0.72
  -2  11   0    6.93    1.79
   2 -11   0    8.61    0.92
  -1  11   0   23.09    2.67
   1 -11   0   22.21    0.98
  -1  11   0   20.90    1.08
   1 -11   0   21.56    1.29
   0 -11   0   -0.20    0.46
   0 -11   0    0.56    0.34
   0  11   0   -0.33    1.69
   0  11   0   -0.05    0.25
  -1 -11   0   23.25    1.02
   1  11   0   24.33    3.03
   1  11   0   20.94    0.94
  -1 -11   0   22.03    1.35
  -2 -11   0   10.79    0.77
   2  11   0    7.14    2.12
  -2 -11   0    8.21    0.98
   3  11   0    7.42    2.37
  -3 -11   0    6.47    0.96
   4  11   0   45.57    4.02
   4  11   0   37.97    1.80
  -4 -11   0   40.91    1.98
   5  11   0    4.39    0.93
  -5 -11   0    4.39    0.95
   5  11   0    3.59    2.42
  -6 -11   0    3.25    1.07
   6  11   0    3.99    1.05
   6  11   0    4.92    2.42
   7  11   0    0.63    0.92
  -7 -11   0   -0.18    0.90
  -6  12   0    0.28    0.65
   6 -12   0    0.93    0.68
  -5  12   0   11.38    1.20
   5 -12   0   11.12    1.23
  -4  12   0    9.96    1.02
   4 -12   0   10.40    1.08
   3 -12   0   39.56    1.89
  -3  12   0   40.22    1.81
   2 -12   0   -0.41    0.45
  -2  12   0   -0.19    0.29
  -2  12   0   -0.76    1.36
   1 -12   0  223.36    5.72
  -1  12   0  257.28    5.63
  -1  12   0  271.57   10.20
   0 -12   0    3.09    0.71
   0 -12   0    3.19    0.53
   0  12   0    2.42    0.46
   0  12   0    1.80    1.93
   1  12   0  268.10    5.61
  -1 -12   0  264.37    6.18
  -1 -12   0  271.95    5.66
   1  12   0  271.05   11.12
  -2 -12   0   -0.51    0.26
   2  12   0   -1.57    1.66
  -2 -12   0   -0.11    0.63
  -3 -12   0   36.43    1.58
  -3 -12   0   40.92    1.99
   3  12   0   42.98    3.85
   4  12   0   12.11    1.11
  -4 -12   0    9.58    1.16
   4  12   0   11.49    2.74
   5  12   0   10.28    2.89
  -5 -12   0    9.28    1.24
   5  12   0   11.67    1.21
  -6 -12   0   -0.20    0.80
   6  12   0   -0.45    0.70
   6  12   0   -1.15    1.83
   6 -13   0    1.08    0.70
  -6  13   0    1.22    0.78
   5 -13   0    2.16    0.75
  -5  13   0    1.52    0.74
  -4  13   0    0.29    0.56
   4 -13   0   -0.38    0.54
  -3  13   0   24.13    1.45
   3 -13   0   27.89    1.65
   2 -13   0    0.51    0.60
  -2  13   0    0.93    0.46
  -2  13   0    3.71    1.93
  -1  13   0  111.44    3.18
  -1  13   0  130.15    6.13
   1 -13   0  113.53    3.42
   0  13   0   -1.60    1.87
   0  13   0   -0.10    0.29
   0 -13   0    0.72    0.62
   1  13   0  126.37    6.52
  -1 -13   0  119.44    3.56
   1  13   0  119.67    2.99
  -1 -13   0  125.94    3.09
  -2 -13   0    1.55    0.47
   2  13   0    1.60    2.15
  -2 -13   0    1.47    0.79
  -3 -13   0   27.44    1.39
  -3 -13   0   27.92    1.75
   3  13   0   32.63    3.61
   4  13   0   -0.12    2.10
  -4 -13   0    0.27    0.76
  -4 -13   0    0.01    0.35
   5  13   0    1.74    2.26
   5  13   0    2.46    0.82
  -5 -13   0    2.16    0.88
  -6 -13   0    1.96    1.03
   6  13   0   -0.26    1.96
   6  13   0    2.11    0.92
   6 -14   0    1.09    0.74
  -6  14   0    1.01    0.74
   5 -14   0    0.42    0.76
  -5  14   0    0.39    0.63
   4 -14   0    6.95    1.03
  -4  14   0    4.60    0.82
  -3  14   0    1.71    0.60
   3 -14   0    1.23    0.65
   2 -14   0   22.61    1.48
  -2  14   0   21.45    1.32
   1 -14   0   27.27    1.61
  -1  14   0   25.05    1.33
  -1  14   0   28.82    4.06
   0  14   0   34.99    3.53
   0 -14   0   31.33    1.65
   0  14   0   33.41    1.41
   1  14   0   25.81    3.42
  -1 -14   0   29.25    1.71
   2  14   0   24.04    3.39
  -2 -14   0   22.94    1.61
  -3 -14   0    1.38    0.80
  -3 -14   0    2.51    0.60
   3  14   0    0.48    2.05
   4  14   0    5.96    2.65
  -4 -14   0    5.24    0.80
  -4 -14   0    5.48    1.09
  -5 -14   0    0.05    0.38
   5  14   0   -3.22    1.96
  -5 -14   0   -0.35    0.78
  -6 -14   0    0.91    0.97
   6  14   0    0.65    1.90
  -5  15   0   -0.84    0.64
   5 -15   0   -0.36    0.71
  -4  15   0    1.59    0.65
   4 -15   0    1.15    0.75
  -3  15   0    4.33    0.80
   3 -15   0    5.29    0.95
  -2  15   0    2.99    0.62
   2 -15   0    3.56    0.79
   1 -15   0    4.51    0.89
  -1  15   0    4.34    0.67
  -1  15   0    6.07    2.49
   0 -15   0   -0.10    0.67
   0  15   0   -0.68    2.15
   0  15   0    0.00    0.33
  -1 -15   0    5.19    0.93
   1  15   0    4.81    2.39
  -2 -15   0    2.89    0.90
   2  15   0    4.92    2.50
   3  15   0    3.99    2.65
  -3 -15   0    4.67    1.07
  -4 -15   0    0.91    0.50
  -4 -15   0    1.11    0.88
   4  15   0   -0.17    2.03
  -5 -15   0    0.35    0.44
  -5 -15   0   -0.36    0.84
   5  15   0    0.00    1.99
  -5  16   0    3.42    0.98
   5 -16   0    3.42    1.07
  -4  16   0    0.29    0.56
   4 -16   0    1.06    0.79
  -3  16   0    0.59    0.56
   3 -16   0    0.52    0.69
   2 -16   0    1.58    0.74
  -2  16   0    0.73    0.53
  -1  16   0    2.54    2.27
  -1  16   0    1.97    0.59
   1 -16   0    2.74    0.82
   0  16   0   39.41    3.89
   0 -16   0   36.06    1.95
   0  16   0   37.01    1.61
  -1 -16   0    2.08    0.87
   1  16   0    2.05    2.15
  -2 -16   0    2.42    0.89
   2  16   0   -0.01    2.08
   3  16   0   -0.56    2.09
  -3 -16   0    1.06    0.87
  -4 -16   0   -0.03    0.85
   4  16   0    1.24    2.03
  -5 -16   0    3.47    1.13
   5  16   0    0.88    2.11
  -5  17   0   -0.04    0.65
   5 -17   0    0.98    0.87
  -4  17   0    3.44    0.81
   4 -17   0    2.43    0.91
   3 -17   0   -0.19    0.68
  -3  17   0    0.14    0.53
  -2  17   0    2.95    0.69
   2 -17   0    4.09    0.94
   1 -17   0   23.47    1.65
  -1  17   0   29.63    3.63
  -1  17   0   27.04    1.49
   0  17   0   -0.31    2.03
   0  17   0    0.13    0.38
   0 -17   0    0.36    0.75
   1  17   0   29.46    3.79
  -1 -17   0   27.25    1.82
  -2 -17   0    3.15    1.00
   2  17   0    2.72    2.66
  -3 -17   0   -0.21    0.82
   3  17   0   -0.11    2.18
   4  17   0    2.23    2.16
  -4 -17   0    2.86    1.07
  -5 -17   0    0.17    1.07
   5  17   0    0.60    2.17
  -4  18   0    2.11    0.69
   4 -18   0    0.57    0.80
  -3  18   0    0.07    0.45
   3 -18   0   -0.74    0.66
   2 -18   0   15.36    1.45
  -2  18   0   14.55    1.23
  -1  18   0    1.42    2.27
  -1  18   0   -0.15    0.41
   1 -18   0    0.50    0.74
   0  18   0   14.53    3.26
   0 -18   0   12.23    1.38
  -1 -18   0    0.29    0.81
   1  18   0    1.40    2.38
  -2 -18   0   13.70    1.51
   2  18   0   21.96    3.68
   3  18   0   -1.06    2.24
  -3 -18   0    0.18    0.85
   4  18   0    0.55    2.24
  -4 -18   0    0.96    1.00
   4 -19   0    0.71    0.83
  -4  19   0    2.04    0.77
   3 -19   0    4.49    1.09
  -3  19   0    3.32    0.79
  -2  19   0    0.77    0.55
   2 -19   0    0.57    0.81
  -1  19   0    1.66    0.59
   1 -19   0    1.35    0.85
   0 -19   0    0.39    0.81
   0  19   0    1.33    2.42
  -1 -19   0    1.59    0.97
   1  19   0    3.61    2.64
   2  19   0    1.65    2.79
  -2 -19   0    1.28    0.96
  -3 -19   0    4.02    1.16
   3  19   0    2.81    2.98
   4  19   0    0.43    2.48
  -4 -19   0    1.32    1.05
  -3  20   0    1.04    0.58
   3 -20   0   -0.75    0.73
  -2  20   0    2.01    0.69
   2 -20   0    1.85    0.98
   1 -20   0    3.68    1.06
  -1  20   0    3.59    0.76
   0  20   0   11.39    3.17
   0 -20   0    8.38    1.33
  -1 -20   0    4.42    1.14
   1  20   0    4.76    2.84
  -2 -20   0    2.31    1.05
   2  20   0    2.19    2.83
   3  20   0    1.76    2.87
  -3 -20   0   -0.15    0.91
   2 -21   0    4.29    1.16
  -2  21   0    3.98    0.85
   1 -21   0    3.05    1.09
   0  21   0    0.99    2.50
   0 -21   0    0.28    0.88
   1  21   0   10.57    3.41
  -1 -21   0    4.39    1.19
   2  21   0    9.81    3.71
  -2 -21   0    5.13    1.28
   0 -22   0   -0.28    0.90
  -2 -21   1    0.84    1.05
   2  21  -1    0.36    2.67
  -1 -21   1    1.34    1.04
   1  21  -1    3.34    2.92
   0 -21   1    1.88    1.06
   0  21  -1    3.44    2.87
   1 -21   1    0.98    0.96
   2 -21   1    2.07    1.00
  -2  21  -1    0.44    0.60
   3  20  -1   -1.16    2.66
  -3 -20   1    0.04    0.97
   2  20  -1    1.68    2.79
  -2 -20   1    1.28    0.99
  -1 -20   1    0.84    0.92
   0  20  -1    3.64    2.81
   0 -20   1    2.24    1.02
   1 -20   1    0.84    0.87
  -1  20  -1   -0.72    0.41
  -2  20  -1    0.10    0.51
   2 -20   1    1.39    0.92
  -3  20  -1    1.26    0.60
   3 -20   1    0.93    0.90
  -4 -19   1    0.37    1.10
   4  19  -1    3.78    2.44
  -3 -19   1    0.97    1.00
   3  19  -1    1.35    2.59
  -2 -19   1    0.16    0.90
   2  19  -1    2.15    2.72
   1  19  -1    1.66    2.51
  -1 -19   1    2.20    0.95
   0 -19   1    2.46    0.98
   0  19  -1    1.21    2.45
   1 -19   1    0.24    0.79
  -1  19  -1   -0.04    0.48
  -2  19  -1    0.13    0.55
   2 -19   1   -0.04    0.75
  -3  19  -1    0.19    0.52
   3 -19   1    0.15    0.81
   4 -19   1    2.08    0.96
  -4  19  -1    0.99    0.71
  -4 -18   1    3.93    1.25
   4  18  -1    5.17    2.64
   3  18  -1    2.12    2.60
  -3 -18   1    3.95    1.14
  -2 -18   1    0.66    0.88
   2  18  -1    0.51    2.26
  -1 -18   1    2.56    0.97
   1  18  -1    2.13    2.40
   0 -18   1    8.59    1.25
   0  18  -1   11.29    3.19
   1 -18   1    7.76    1.19
  -1  18  -1    8.55    2.97
  -1  18  -1    5.44    0.80
  -2  18  -1    2.19    0.69
   2 -18   1    1.63    0.85
  -3  18  -1   -0.11    0.44
   3 -18   1    0.01    0.72
  -4  18  -1    0.46    0.62
   4 -18   1    0.48    0.81
   5  17  -1   -0.14    2.24
  -5 -17   1    0.19    1.01
   4  17  -1    1.84    2.07
  -4 -17   1    1.01    0.95
  -3 -17   1    9.69    1.39
   3  17  -1   11.00    3.30
  -2 -17   1   23.54    1.78
   1  17  -1   -1.62    2.18
  -1 -17   1    0.79    0.86
   0 -17   1   13.65    1.39
   0  17  -1   18.57    3.47
   0  17  -1   15.48    1.11
   1 -17   1    1.98    0.85
  -1  17  -1    1.99    2.53
  -1  17  -1    1.94    0.61
  -2  17  -1   -0.43    0.48
   2 -17   1   -0.15    0.68
   3 -17   1   10.45    1.27
  -3  17  -1    9.46    1.09
   4 -17   1   -0.24    0.65
  -4  17  -1   -0.17    0.48
  -5  17  -1   -0.16    0.73
   5 -17   1    1.02    0.77
  -5 -16   1    6.37    1.33
   5  16  -1    7.46    2.80
   4  16  -1    1.77    2.22
  -4 -16   1    1.22    0.94
  -3 -16   1    0.22    0.85
   3  16  -1   -1.64    2.13
  -2 -16   1   -0.74    0.73
   2  16  -1   -0.23    2.13
   1  16  -1   10.40    2.95
  -1 -16   1    6.95    1.12
   0 -16   1   19.14    1.50
   0  16  -1   20.51    3.30
   0  16  -1   20.36    1.23
   1 -16   1   19.49    1.52
  -1  16  -1   23.23    3.49
  -1  16  -1   21.55    1.33
  -2  16  -1   -0.04    0.42
   2 -16   1    0.92    0.74
  -3  16  -1   -0.81    0.45
   3 -16   1    0.02    0.66
  -4  16  -1    0.68    0.55
   4 -16   1    0.04    0.60
   5 -16   1    1.89    0.80
  -5  16  -1    1.26    0.83
  -5 -15   1   -0.01    0.86
   5  15  -1    1.86    2.22
   4  15  -1    3.43    2.21
  -4 -15   1    9.36    1.30
   3  15  -1    5.25    2.36
  -3 -15   1    6.50    1.13
   2  15  -1    2.35    2.03
  -2 -15   1    1.55    0.77
   1  15  -1   21.33    3.25
  -1 -15   1   22.40    1.59
   0  15  -1    3.90    2.69
   0  15  -1    5.42    0.67
   0 -15   1    4.67    0.96
   1 -15   1    0.48    0.66
  -1  15  -1   -0.12    2.33
  -1  15  -1    0.51    0.47
  -2  15  -1   21.64    3.32
  -2  15  -1   18.92    1.29
   2 -15   1   16.68    1.40
   3 -15   1    0.34    0.63
  -3  15  -1   -0.02    0.44
  -4  15  -1    1.42    0.65
   4 -15   1    1.60    0.75
   5 -15   1    5.07    1.02
  -5  15  -1    4.09    1.00
  -6 -14   1   -0.27    1.02
   6  14  -1    0.23    0.79
   6  14  -1   -0.46    2.13
   5  14  -1    1.56    2.13
  -5 -14   1    0.93    0.90
   5  14  -1    1.24    0.77
  -4 -14   1    2.92    0.58
   4  14  -1    2.35    2.18
  -4 -14   1    2.74    0.95
   3  14  -1   21.38    3.25
  -3 -14   1   20.82    1.62
  -2 -14   1    1.59    0.84
   2  14  -1    2.23    2.23
   1  14  -1   14.01    3.09
  -1 -14   1    9.49    1.17
   0  14  -1    5.33    0.64
   0  14  -1    6.46    2.73
   0 -14   1    4.82    0.92
   1 -14   1   34.55    1.76
  -1  14  -1   34.41    1.57
  -1  14  -1   34.26    3.64
   2 -14   1   22.79    1.54
  -2  14  -1   26.01    1.44
  -2  14  -1   25.99    3.15
   3 -14   1    1.31    0.69
  -3  14  -1    1.34    0.64
   4 -14   1    0.46    0.59
  -4  14  -1    0.06    0.47
  -5  14  -1    3.81    0.94
   5 -14   1    4.67    0.95
   6 -14   1    0.69    0.68
  -6  14  -1    0.12    0.75
  -6 -13   1   -1.54    0.74
   6  13  -1    0.01    0.76
   6  13  -1   -2.01    2.17
   5  13  -1   -0.24    0.63
  -5 -13   1   -0.31    0.79
   5  13  -1   -0.81    2.07
   4  13  -1    3.64    2.22
  -4 -13   1    2.63    0.90
   4  13  -1    2.68    0.73
  -3 -13   1   11.63    1.28
  -3 -13   1    9.65    0.81
   3  13  -1    8.50    2.71
  -2 -13   1   50.07    2.25
   2  13  -1   54.74    4.43
  -2 -13   1   50.60    1.75
  -1 -13   1   26.38    1.62
   1  13  -1   28.31    3.50
   1  13  -1   29.04    1.18
   0  13  -1    4.57    0.59
   0  13  -1    6.99    2.49
   0 -13   1    5.15    0.85
   1 -13   1   47.86    2.05
  -1  13  -1   53.14    3.92
  -1  13  -1   45.17    1.81
  -2  13  -1    6.43    2.26
  -2  13  -1    9.56    0.87
   2 -13   1    8.62    0.98
  -3  13  -1  133.60    3.85
   3 -13   1  136.69    3.99
   4 -13   1    6.74    1.00
  -4  13  -1    9.09    1.08
   5 -13   1    2.93    0.85
  -5  13  -1    3.67    0.89
  -6  13  -1    0.12    0.72
   6 -13   1    0.37    0.63
  -6 -12   1    1.11    0.93
   6  12  -1    0.40    0.79
   6  12  -1   -0.57    2.11
  -5 -12   1   19.71    1.57
   5  12  -1   21.84    3.32
   5  12  -1   17.55    1.42
  -4 -12   1    0.92    0.74
   4  12  -1    1.01    0.59
   4  12  -1    1.23    2.04
   3  12  -1    0.74    0.50
   3  12  -1   -1.14    1.87
  -3 -12   1    0.77    0.76
   2  12  -1    2.65    2.05
  -2 -12   1    3.67    0.85
  -2 -12   1    2.07    0.45
   1  12  -1    6.46    2.32
  -1 -12   1    6.17    0.60
   1  12  -1    4.79    0.51
  -1 -12   1    4.52    0.79
   0  12  -1  129.64    3.27
   0  12  -1  134.15    6.57
   0 -12   1  130.67    3.62
  -1  12  -1   26.91    1.31
   1 -12   1   30.31    1.57
  -1  12  -1   32.28    3.21
  -2  12  -1    6.35    1.98
  -2  12  -1    9.43    0.82
   2 -12   1    6.67    0.89
   3 -12   1   25.56    1.54
  -3  12  -1   23.31    1.42
  -4  12  -1   21.87    1.43
   4 -12   1   24.11    1.54
  -5  12  -1    0.01    0.57
   5 -12   1    1.00    0.64
   6 -12   1    7.49    1.15
  -6  12  -1    6.49    1.08
   7  11  -1    5.23    1.22
  -7 -11   1    5.60    1.33
  -6 -11   1    1.19    0.90
   6  11  -1    0.73    2.21
   6  11  -1    1.92    0.86
   5  11  -1   -0.06    2.06
   5  11  -1   -0.13    0.58
  -5 -11   1   -0.48    0.64
   4  11  -1    0.54    0.54
   4  11  -1    0.00    1.83
  -4 -11   1    0.37    0.67
   3  11  -1   54.26    1.88
  -3 -11   1   53.16    2.19
   3  11  -1   49.00    4.01
   2  11  -1   96.67    5.56
  -2 -11   1   87.67    2.94
  -2 -11   1  103.48    2.58
   1  11  -1  150.33    3.48
   1  11  -1  157.30    7.39
  -1 -11   1  158.52    3.46
  -1 -11   1  157.20    4.06
   0 -11   1   57.36    2.08
   0  11  -1   55.83    1.77
   0 -11   1   56.64    1.55
   0  11  -1   57.10    3.96
  -1  11  -1   11.79    0.83
  -1  11  -1   12.03    2.34
   1 -11   1   12.14    1.04
  -2  11  -1   26.99    1.33
   2 -11   1   28.99    1.46
  -3  11  -1   26.03    1.45
   3 -11   1   28.50    1.56
   4 -11   1    7.60    0.99
  -4  11  -1    8.42    0.97
   5 -11   1    0.75    0.60
  -5  11  -1    0.32    0.59
  -6  11  -1    3.79    0.94
   6 -11   1    3.81    0.95
  -7 -10   1   -0.31    0.83
   7  10  -1    0.15    0.87
   6  10  -1    5.68    2.48
  -6 -10   1    4.09    1.03
   6  10  -1    4.04    1.00
   5  10  -1    0.82    0.65
  -5 -10   1   -0.18    0.62
   5  10  -1   -0.38    1.91
   4  10  -1   99.08    5.73
   4  10  -1   92.14    2.91
  -4 -10   1   93.90    3.13
   3  10  -1    2.99    0.59
  -3 -10   1    3.34    0.75
   3  10  -1    1.77    1.91
   2  10  -1   -0.11    1.46
   2  10  -1   -0.34    0.31
  -2 -10   1   -0.09    0.55
  -1 -10   1   48.82    1.42
   1  10  -1   48.37    3.58
  -1 -10   1   50.63    1.88
   1  10  -1   49.16    1.44
   0 -10   1  106.48    2.40
   0 -10   1  107.42    2.97
   0  10  -1  107.29    5.30
   0  10  -1  107.18    2.67
   1 -10   1   23.76    0.83
  -1  10  -1   23.48    3.34
  -1  10  -1   22.70    1.10
   1 -10   1   25.68    1.30
  -2  10  -1   72.98    2.29
  -2  10  -1   80.06    4.30
   2 -10   1   67.25    2.29
   2 -10   1   71.91    1.83
   3 -10   1    2.35    0.63
  -3  10  -1    0.65    1.42
  -3  10  -1    1.28    0.53
   4 -10   1   22.12    1.41
  -4  10  -1   24.25    1.45
   5 -10   1    1.31    0.64
  -5  10  -1   -0.29    0.46
  -6  10  -1    1.58    0.73
   6 -10   1    1.35    0.72
   7 -10   1    0.62    0.67
  -7  10  -1    0.51    0.65
   7   9  -1    3.22    1.08
  -7  -9   1    2.90    1.09
   6   9  -1    2.46    0.86
   6   9  -1    3.85    2.28
  -6  -9   1    1.89    0.84
  -5  -9   1    0.77    0.66
   5   9  -1    0.92    0.65
   5   9  -1    1.40    1.98
   4   9  -1    3.79    0.74
  -4  -9   1    3.36    0.77
   4   9  -1    5.83    2.29
   3   9  -1    5.21    1.82
   3   9  -1    7.21    0.74
  -3  -9   1    6.18    0.81
   2   9  -1  943.81   32.72
  -2  -9   1  961.07   18.20
   2   9  -1  951.83   17.39
   2   9  -1  916.14   17.59
   1   9  -1    0.93    0.27
  -1  -9   1    1.31    0.29
   1   9  -1    2.33    1.64
  -1  -9   1    1.29    0.54
   0   9  -1   68.06    1.88
   0   9  -1   68.02    3.96
   0  -9   1   69.21    2.13
   0  -9   1   69.50    1.65
  -1   9  -1   26.40    2.43
  -1   9  -1   25.92    1.12
   1  -9   1   24.78    1.23
   1  -9   1   25.89    0.84
  -2   9  -1  296.66    6.29
  -2   9  -1  299.74   11.00
   2  -9   1  284.84    6.32
   2  -9   1  278.59    5.68
   3  -9   1   18.17    1.17
  -3   9  -1   19.48    1.16
   3  -9   1   21.72    0.98
  -3   9  -1   22.06    2.77
   4  -9   1  107.39    2.90
  -4   9  -1  104.73    3.17
   4  -9   1  107.17    3.31
  -5   9  -1    0.23    0.48
   5  -9   1    0.89    0.53
  -6   9  -1    4.02    0.84
   6  -9   1    3.42    0.88
  -7   9  -1    0.24    0.63
   7  -9   1    0.34    0.61
   7   8  -1    0.25    0.88
  -7  -8   1    0.58    0.93
   6   8  -1   -0.47    1.70
  -6  -8   1   -0.04    0.70
   6   8  -1    0.60    0.72
   5   8  -1    3.52    1.99
   5   8  -1    4.16    0.86
  -5  -8   1    3.22    0.80
   4   8  -1   34.05    1.62
   4   8  -1   36.45    3.35
  -4  -8   1   31.77    1.58
  -3  -8   1   18.48    1.14
   3   8  -1   17.26    2.44
   3   8  -1   17.74    1.03
  -2  -8   1   47.48    1.73
   2   8  -1   44.02    1.49
   2   8  -1   43.10    3.62
   2   8  -1   46.19    1.13
   1   8  -1  414.32   15.28
   1   8  -1  420.94    8.07
  -1  -8   1  424.89    8.05
  -1  -8   1  424.43    8.53
   0  -8   1  414.84    7.67
   0  -8   1  405.39    8.20
   0   8  -1  401.79    7.95
   0   8  -1  403.81   14.69
   1  -8   1  220.73    4.86
  -1   8  -1  218.98    4.73
  -1   8  -1  213.54    8.55
   1  -8   1  218.10    4.26
   2  -8   1   88.00    2.49
   2  -8   1   81.78    2.02
  -2   8  -1   94.74    4.42
  -2   8  -1   87.78    2.44
  -3   8  -1   32.69    1.40
  -3   8  -1   31.40    2.87
   3  -8   1   33.05    1.22
   3  -8   1   30.89    1.45
   4  -8   1    4.28    0.69
  -4   8  -1    3.82    0.69
   4  -8   1    4.33    0.80
   5  -8   1   15.54    1.13
   5  -8   1   17.24    1.30
  -5   8  -1   14.47    1.17
  -6   8  -1    0.76    0.58
   6  -8   1    1.38    0.63
   6  -8   1    0.66    0.65
  -7   8  -1    1.27    0.68
   7  -8   1    1.09    0.67
   7   7  -1   19.36    1.80
  -7  -7   1   22.53    1.86
   6   7  -1    0.22    0.70
   6   7  -1    0.38    1.71
  -6  -7   1    0.28    0.72
   5   7  -1   -0.72    1.64
   5   7  -1    0.04    0.59
  -5  -7   1    0.24    0.56
   4   7  -1   16.70    2.55
   4   7  -1   14.04    1.10
  -4  -7   1   15.17    1.15
   3   7  -1   53.16    1.80
   3   7  -1   50.86    3.53
  -3  -7   1   55.21    1.89
   2   7  -1  318.43    6.42
  -2  -7   1  315.70    6.66
   2   7  -1  323.44   12.12
   2   7  -1  318.57    6.04
   1   7  -1   54.85    3.39
   1   7  -1   55.38    1.42
  -1  -7   1   57.71    1.78
   0   7  -1  125.70    5.62
   0  -7   1  127.25    2.57
   0  -7   1  124.68    3.00
   1  -7   1   53.22    1.67
  -1   7  -1   54.37    3.12
  -1   7  -1   50.89    1.54
   1  -7   1   52.29    1.24
  -2   7  -1   37.61    1.38
   2  -7   1   39.13    1.43
  -2   7  -1   43.21    2.73
   2  -7   1   38.84    1.15
   3  -7   1  138.74    3.55
  -3   7  -1  140.67    3.50
   3  -7   1  135.38    3.19
   4  -7   1  307.69    6.94
   4  -7   1  311.80    6.58
  -4   7  -1  305.91    6.80
   5  -7   1    7.03    0.90
  -5   7  -1    5.19    0.76
   5  -7   1    7.97    0.88
   6  -7   1    2.29    0.72
   6  -7   1    3.21    0.75
  -6   7  -1    2.75    0.71
   7  -7   1    0.27    0.64
  -7   7  -1    1.21    0.65
   7  -7   1    0.60    0.69
   7   6  -1    3.35    1.09
  -7  -6   1    3.27    1.08
   6   6  -1   17.22    1.50
  -6  -6   1   18.33    1.52
   5   6  -1    1.98    1.89
   5   6  -1    2.70    0.75
  -5  -6   1    2.84    0.74
  -4  -6   1   23.69    1.33
   4   6  -1   25.12    2.79
   4   6  -1   25.68    1.35
  -3  -6   1  433.23    8.68
   3   6  -1  413.58   15.41
   3   6  -1  417.61    8.50
   2   6  -1   68.71    3.75
  -2  -6   1   69.42    1.99
   2   6  -1   67.69    1.86
  -1  -6   1  113.42    2.36
   1   6  -1  107.05    4.98
  -1  -6   1  114.14    2.73
   1   6  -1  111.58    2.41
   0   6  -1  163.01    6.45
   0  -6   1  161.22    3.41
   0  -6   1  158.34    3.58
   0  -6   1  168.87    3.20
   1  -6   1   59.96    1.69
  -1   6  -1   56.81    3.14
   1  -6   1   58.81    1.31
  -2   6  -1  104.69    4.60
   2  -6   1   94.54    2.20
  -2   6  -1   98.15    2.51
   2  -6   1   94.18    2.52
   3  -6   1  323.86    6.56
  -3   6  -1  336.32   11.98
   3  -6   1  314.67    6.89
  -3   6  -1  324.17    6.81
  -4   6  -1  113.84    3.11
   4  -6   1  113.89    3.25
   4  -6   1  116.67    3.04
  -5   6  -1   22.64    1.32
   5  -6   1   24.81    1.38
   5  -6   1   23.22    1.51
  -6   6  -1   -0.15    0.48
   6  -6   1   -0.13    0.53
   6  -6   1   -1.04    0.41
   7  -6   1   -0.38    0.57
   7   5  -1    4.52    1.11
  -7  -5   1    4.51    1.09
  -6  -5   1    3.37    0.89
   6   5  -1    3.32    0.88
   5   5  -1   21.87    1.43
   5   5  -1   27.32    2.89
  -5  -5   1   22.74    1.44
   4   5  -1   78.87    4.41
   4   5  -1   78.18    2.50
  -4  -5   1   80.44    2.52
   3   5  -1   11.90    0.90
  -3  -5   1   14.71    0.86
  -2  -5   1   29.99    1.13
   2   5  -1   26.69    2.21
  -1  -5   1 2227.39   42.80
  -1  -5   1 2467.78   42.63
   1   5  -1 2268.43   43.07
   1   5  -1 2356.62   76.74
   0  -5   1   11.01    0.53
   0  -5   1   10.74    0.38
   0   5  -1    7.36    1.54
   0  -5   1   11.00    0.70
   1  -5   1  338.80    6.71
  -1   5  -1  346.55   12.08
   1  -5   1  334.66    6.40
   1  -5   1  346.11    6.78
   2  -5   1  999.67   18.10
  -2   5  -1  995.83   18.03
   2  -5   1  976.92   17.66
  -2   5  -1  869.97   32.32
  -3   5  -1  189.22    4.24
   3  -5   1  182.32    4.32
   3  -5   1  189.81    4.10
  -4   5  -1   46.31    1.68
   4  -5   1   44.41    1.66
   4  -5   1   43.17    1.78
  -5   5  -1  154.70    4.05
   5  -5   1  164.16    4.42
   5  -5   1  163.66    4.20
   6  -5   1    3.44    0.76
  -6   5  -1    2.45    0.66
   6  -5   1    3.31    0.83
   7  -5   1   -0.93    0.52
  -7   5  -1   -0.31    0.78
  -7  -4   1    2.80    0.99
   7   4  -1    1.87    0.93
  -6  -4   1    0.40    0.66
   6   4  -1    0.24    0.67
  -5  -4   1   36.40    1.80
   5   4  -1   39.17    3.13
   5   4  -1   36.47    1.82
   4   4  -1   40.22    2.97
   4   4  -1   40.79    1.68
  -4  -4   1   40.82    1.63
   3   4  -1   18.67    1.00
   3   4  -1   14.70    2.02
  -3  -4   1   18.67    0.53
  -3  -4   1   17.09    0.91
   2   4  -1  789.72   27.38
  -2  -4   1  805.12   15.23
   2   4  -1  826.81   15.11
  -2  -4   1  814.26   15.36
   1   4  -1 7974.90  255.44
   1   4  -1 7869.03  140.51
  -1  -4   1 7227.16  141.69
   0  -4   1 2384.19   45.01
   0  -4   1 2319.46   45.44
   0  -4   1 2460.10   44.46
  -1   4  -1   89.19    4.06
   1  -4   1   89.72    1.87
   1  -4   1   94.98    2.17
  -2   4  -1    1.09    0.29
   2  -4   1    1.07    0.32
   2  -4   1    1.71    0.27
   3  -4   1    9.02    0.69
  -3   4  -1    9.16    0.65
   3  -4   1    8.66    0.64
   4  -4   1    0.68    0.40
  -4   4  -1    0.30    0.33
   4  -4   1    1.14    0.87
   4  -4   1    0.18    0.36
   5  -4   1   58.40    2.20
  -5   4  -1   58.19    2.02
   5  -4   1   57.65    2.26
   6  -4   1   19.56    1.39
  -6   4  -1   18.55    1.24
   7  -4   1    2.37    0.85
  -7   4  -1    3.07    1.04
   8   3  -1    0.89    0.79
  -8  -3   1    0.85    0.94
   7   3  -1   14.48    1.40
  -7  -3   1   14.53    1.52
   6   3  -1    3.69    0.90
  -6  -3   1    4.31    0.95
  -5  -3   1   35.26    1.71
   5   3  -1   38.42    1.84
   5   3  -1   40.57    3.04
   4   3  -1   11.96    1.96
   4   3  -1   12.57    1.02
  -4  -3   1   13.07    0.90
  -4  -3   1   13.75    0.60
  -3  -3   1  821.09   15.66
   3   3  -1  821.84   15.58
   3   3  -1  806.76   27.85
  -3  -3   1  834.76   15.15
   2   3  -1  743.16   14.12
  -2  -3   1  775.26   14.12
   2   3  -1  743.70   25.54
  -2  -3   1  762.43   14.25
   1   3  -1 3189.07  104.44
   1   3  -1 3140.80   57.71
  -1  -3   1 3168.30   58.66
  -1  -3   1 3072.81   59.10
   0  -3   1  601.94   11.25
   0  -3   1  601.54   11.17
   1  -3   1    5.66    0.46
   1  -3   1    4.74    0.31
   1  -3   1    5.26    0.39
   2  -3   1   11.39    0.66
   2  -3   1   10.80    0.57
   3  -3   1   51.18    2.64
  -3   3  -1   53.18    1.59
   3  -3   1   52.48    1.61
   3  -3   1   52.66    1.69
   4  -3   1   11.23    0.87
   4  -3   1   10.96    1.49
  -4   3  -1   10.27    0.75
   4  -3   1   10.31    0.90
   5  -3   1   12.32    1.13
  -5   3  -1   10.71    0.84
   5  -3   1   10.81    1.06
   6  -3   1    0.71    0.63
  -6   3  -1    0.36    0.75
   7  -3   1    2.43    0.81
  -7   3  -1    2.44    0.95
  -8   3  -1    1.77    1.17
  -8  -2   1    0.03    0.87
   8   2  -1   -0.75    0.62
   7   2  -1   -0.50    0.55
  -7  -2   1    0.13    0.76
  -6  -2   1   25.73    1.73
   6   2  -1   25.63    1.66
  -5  -2   1   30.02    1.60
   5   2  -1   31.81    2.73
   5   2  -1   28.71    1.60
   4   2  -1   65.58    2.17
  -4  -2   1   67.67    2.12
   4   2  -1   61.23    3.41
  -4  -2   1   64.30    1.65
  -3  -2   1   59.34    1.38
   3   2  -1   52.89    2.93
   3   2  -1   56.27    1.78
  -3  -2   1   58.03    1.74
  -2  -2   1  226.72    4.64
   2   2  -1  227.12    8.23
   2   2  -1  226.32    4.66
  -2  -2   1  226.02    4.34
  -1  -2   1   45.63    1.14
  -1  -2   1   46.26    0.98
   1   2  -1   46.94    2.20
   1   2  -1   44.47    1.13
   0  -2   1   44.55    1.11
   0  -2   1   42.37    1.14
   1  -2   1 1332.58   24.48
   1  -2   1 1275.51   24.68
   1  -2   1 1392.39   24.45
   2  -2   1  171.44    3.64
   2  -2   1  168.61    6.21
   2  -2   1  168.07    3.56
   2  -2   1  173.12    3.57
   3  -2   1   15.10    0.85
   3  -2   1   16.37    1.55
  -3   2  -1   16.53    0.76
   3  -2   1   14.84    0.81
  -4   2  -1   36.34    1.32
   4  -2   1   34.77    1.48
   4  -2   1   37.13    1.55
   4  -2   1   38.01    2.40
  -5   2  -1    0.79    0.39
   5  -2   1    0.83    0.57
   6  -2   1    7.62    1.02
  -6   2  -1    8.50    1.12
  -7   2  -1    3.51    1.03
   7  -2   1    2.26    0.78
   8  -2   1    0.45    0.69
  -8   2  -1    0.17    0.93
  -8  -1   1    4.70    1.24
   8   1  -1    5.49    1.14
  -7  -1   1    0.11    0.76
   7   1  -1    0.61    0.69
  -6  -1   1  103.12    3.43
   6   1  -1   99.16    3.39
   5   1  -1    1.00    0.60
  -5  -1   1    1.41    0.61
  -4  -1   1   65.60    1.70
  -4  -1   1   66.29    2.10
   4   1  -1   64.77    2.15
   4   1  -1   59.14    3.27
   3   1  -1   90.94    3.98
  -3  -1   1   92.02    2.40
   3   1  -1   91.14    2.46
  -3  -1   1   97.17    2.11
   2   1  -1   72.38    3.07
  -2  -1   1   66.58    1.76
   2   1  -1   73.13    1.85
  -2  -1   1   73.42    1.59
  -1  -1   1   19.82    0.51
   1   1  -1   18.60    1.15
  -1  -1   1   17.97    0.58
   1   1  -1   18.75    0.62
   0   1  -1   -0.21    0.57
   1  -1   1 1905.29   34.76
   1  -1   1 1838.09   35.03
   1  -1   1 1806.54   63.53
   1  -1   1 1905.20   34.66
   2  -1   1  619.33   11.70
   2  -1   1  623.20   11.58
   2  -1   1  597.86   11.54
   2  -1   1  628.51   20.82
   3  -1   1  241.57    5.17
  -3   1  -1  240.24    4.92
   3  -1   1  240.19    5.11
   3  -1   1  240.54    8.80
   4  -1   1   84.35    3.98
   4  -1   1   86.03    2.49
  -4   1  -1   83.60    2.21
  -5   1  -1  125.50    3.54
  -5   1  -1  126.93    3.15
   5  -1   1  122.72    3.53
   6  -1   1    1.59    0.71
  -6   1  -1    2.71    0.84
  -7   1  -1    5.71    1.15
   7  -1   1    2.95    0.86
  -8   1  -1    1.25    0.96
   8  -1   1    1.73    0.79
   8   0  -1   -0.17    0.62
  -8   0   1    0.77    0.98
   7   0  -1    1.44    0.72
  -7   0   1   -0.73    0.69
  -6   0   1   -0.26    0.70
   6   0  -1   -0.33    0.59
  -5   0   1   -0.26    0.47
  -5   0   1   -0.23    0.27
   5   0  -1   -0.81    0.41
  -4   0   1   -0.15    0.27
  -4   0   1    0.03    0.21
   4   0  -1    0.04    0.74
   4   0  -1   -0.01    0.35
  -3   0   1   -0.20    0.20
  -3   0   1   -0.13    0.17
   3   0  -1   -0.10    0.52
   3   0  -1    0.12    0.27
  -2   0   1   -0.16    0.14
   2   0  -1   -0.44    0.43
   2   0  -1   -0.06    0.19
  -2   0   1   -0.02    0.14
   1   0  -1   -1.53    0.33
   1   0  -1   -1.94    0.19
  -1   0   1   -2.16    0.14
   0   0   1   -0.03    0.04
   0   0  -1    0.02    0.05
   0   0   1   -0.07    0.13
   1   0   1   -0.06    0.09
   1   0   1   -0.14    0.33
   1   0   1    0.24    0.12
   1   0   1    0.01    0.08
   2   0   1    0.05    0.13
   2   0   1   -0.44    0.51
   2   0   1    0.00    0.19
   2   0   1   -0.02    0.19
  -3   0  -1   -0.10    0.23
  -3   0  -1    0.25    0.20
   3   0   1   -0.38    0.24
   3   0   1    0.08    0.74
  -4   0  -1    0.05    0.30
  -4   0  -1    0.03    0.22
   4   0   1    3.68    0.60
   4   0   1    1.05    0.91
   5   0   1    0.04    1.24
  -5   0  -1    0.21    0.30
   5   0   1    0.27    0.53
  -5   0  -1   -0.10    0.55
   6   0   1   -0.52    0.54
  -6   0  -1    0.21    0.64
  -7   0  -1    0.42    0.77
   7   0   1   -1.26    0.46
   8   0   1   -0.09    0.68
  -8   0  -1    0.36    0.96
   8  -1  -1    4.10    1.04
  -8   1   1    3.16    1.17
   7  -1  -1    0.40    0.63
  -7   1   1    0.40    0.81
   6  -1  -1   95.13    3.31
  -6   1   1  101.36    3.44
   5  -1  -1    0.87    0.58
  -5   1   1    0.35    0.37
  -5   1   1    0.89    0.53
   4  -1  -1   62.91    2.14
  -4   1   1   67.12    1.86
   4  -1  -1   66.92    3.09
   3  -1  -1   93.07    2.47
   3  -1  -1   89.84    2.43
  -3   1   1   94.06    2.23
   2  -1  -1   69.63    1.84
  -2   1   1   74.80    1.72
   2  -1  -1   71.61    1.84
   1  -1  -1   19.00    0.62
  -1   1   1   19.54    0.59
   1  -1  -1   18.54    0.64
   0   1   1 2030.68   37.71
   0  -1  -1 1924.28   37.17
   1   1   1 1819.09   61.00
   1   1   1 1827.40   34.43
   1   1   1 1850.26   34.78
   2   1   1  619.67   11.45
   2   1   1  585.02   20.51
  -2  -1  -1  611.77   11.45
   2   1   1  614.25   11.30
   3   1   1  233.45    9.01
  -3  -1  -1  251.96    5.17
   3   1   1  249.27    5.23
  -3  -1  -1  242.98    4.84
   4   1   1   82.40    2.51
  -4  -1  -1   90.72    2.52
  -4  -1  -1   81.10    2.07
   4   1   1   84.65    4.12
   5   1   1  125.90    5.86
   5   1   1  122.33    3.54
  -5  -1  -1  129.01    3.56
  -6  -1  -1    2.39    0.78
   6   1   1    1.34    0.72
  -7  -1  -1    4.34    1.07
   7   1   1    4.19    0.98
  -8  -1  -1   -0.28    0.85
   8   1   1    1.71    0.82
  -8   2   1    0.21    0.96
   8  -2  -1    1.27    0.76
   7  -2  -1   -0.72    0.54
  -7   2   1    1.00    0.89
  -6   2   1   26.40    1.72
   6  -2  -1   25.89    1.65
  -5   2   1   27.33    1.29
   5  -2  -1   28.49    1.54
   4  -2  -1   60.62    2.08
   4  -2  -1   65.41    2.17
  -4   2   1   66.00    1.88
  -3   2   1   58.42    1.60
   3  -2  -1   54.35    1.76
   3  -2  -1   55.97    1.75
   2  -2  -1  218.39    4.57
   2  -2  -1  226.05    4.64
  -2   2   1  225.10    4.51
   1  -2  -1   45.92    1.19
  -1   2   1   46.71    1.16
   1  -2  -1   47.17    1.18
   0   2   1   41.61    2.05
   0  -2  -1   45.04    1.16
   0   2   1   44.98    1.11
   0  -2  -1   45.43    1.12
   1   2   1 1290.64   41.83
   1   2   1 1197.43   23.99
  -1  -2  -1 1273.19   23.91
   1   2   1 1296.38   23.01
   2   2   1  176.19    3.71
   2   2   1  172.14    3.37
   2   2   1  170.58    6.56
  -2  -2  -1  174.59    3.62
   3   2   1   12.77    1.69
  -3  -2  -1   15.33    0.57
  -3  -2  -1   16.28    0.80
   3   2   1   17.28    0.90
   4   2   1   37.51    2.70
  -4  -2  -1   36.49    1.47
  -4  -2  -1   36.57    1.13
   4   2   1   40.52    1.59
   5   2   1    0.91    0.60
  -5  -2  -1    0.93    0.58
   5   2   1    0.73    1.47
  -6  -2  -1    9.39    1.13
   6   2   1    7.10    1.05
   7   2   1    2.87    0.88
  -7  -2  -1    3.44    1.00
  -8  -2  -1    0.40    0.89
   8   2   1    0.86    0.75
  -8   3   1    0.54    1.03
   8  -3  -1    0.15    0.68
  -7   3   1   14.97    1.59
   7  -3  -1   13.08    1.37
  -6   3   1    4.67    0.70
   6  -3  -1    6.89    1.01
  -6   3   1    4.79    0.93
   5  -3  -1   33.99    1.71
   5  -3  -1   37.72    1.77
  -5   3   1   33.83    1.44
   4  -3  -1   14.04    1.00
   4  -3  -1   12.13    0.93
  -4   3   1   12.68    0.79
  -3   3   1  807.45   15.05
   3  -3  -1  781.62   15.24
   3  -3  -1  796.21   15.09
  -2   3   1  761.68   13.98
   2  -3  -1  736.20   13.90
   2  -3  -1  732.24   14.04
   1  -3  -1 3086.37   59.49
  -1   3   1 3128.06   57.91
   1  -3  -1 3161.40   57.54
   0   3   1  586.33   20.45
   0  -3  -1  612.94   11.40
   0  -3  -1  615.34   11.32
   0   3   1  632.29   11.36
  -1  -3  -1    5.75    0.40
   1   3   1    5.15    0.24
   1   3   1    5.84    0.45
   1   3   1    5.69    0.99
  -2  -3  -1   11.79    0.59
   2   3   1   10.28    1.50
   2   3   1   12.52    0.68
   2   3   1   11.41    0.35
  -3  -3  -1   57.62    1.67
   3   3   1   51.91    3.06
   3   3   1   54.92    1.77
  -3  -3  -1   55.58    1.27
  -4  -3  -1   12.18    0.58
  -4  -3  -1   11.75    0.87
   4   3   1   11.68    0.93
   4   3   1   11.21    1.97
   5   3   1   10.40    1.11
  -5  -3  -1   11.08    1.07
   5   3   1   16.17    2.44
   6   3   1    0.88    0.70
  -6  -3  -1    1.44    0.71
   7   3   1    2.94    0.88
  -7  -3  -1    2.59    0.88
  -8  -3  -1    1.69    1.02
  -7   4   1    1.82    0.98
   7  -4  -1    1.86    0.85
   6  -4  -1    0.10    0.55
  -6   4   1   -0.44    0.46
   5  -4  -1   32.48    1.69
  -5   4   1   31.64    1.46
   5  -4  -1   35.70    1.72
   4  -4  -1   38.63    1.64
   4  -4  -1   39.87    1.63
  -4   4   1   41.09    1.48
   3  -4  -1   19.51    1.01
   3  -4  -1   17.54    0.97
  -3   4   1   18.80    0.89
   2  -4  -1  789.74   15.03
  -2   4   1  806.60   14.97
   2  -4  -1  790.87   14.84
   1  -4  -1 8162.74  164.87
  -1   4   1 9076.85  167.17
   1  -4  -1 9996.60  168.73
   0  -4  -1 2542.93   46.48
   0   4   1 2570.19   47.06
   0  -4  -1 2466.69   46.29
   0   4   1 2413.09   84.90
   1   4   1   94.82    1.90
  -1  -4  -1   96.70    2.14
  -1  -4  -1   95.14    2.12
   1   4   1   89.18    3.98
   2   4   1    1.58    0.94
   2   4   1    1.65    0.35
  -3  -4  -1    8.80    0.65
  -3  -4  -1   10.49    0.36
   3   4   1    9.20    1.67
   3   4   1   11.04    0.79
   4   4   1    1.05    1.21
  -4  -4  -1   -0.01    0.37
   4   4   1    1.43    0.52
   5   4   1   65.88    4.28
  -5  -4  -1   62.23    2.32
   5   4   1   57.81    2.37
   6   4   1   28.04    2.98
  -6  -4  -1   21.07    1.56
   6   4   1   19.23    1.50
   7   4   1    2.08    0.82
  -7  -4  -1    2.12    0.89
   7  -5  -1    6.75    1.14
  -7   5   1    5.19    1.11
   6  -5  -1    3.93    0.85
   6  -5  -1    3.57    0.84
  -6   5   1    3.89    0.71
  -5   5   1   19.25    1.18
   5  -5  -1   21.54    1.35
   5  -5  -1   22.71    1.40
  -4   5   1   72.69    2.18
   4  -5  -1   67.43    2.32
   4  -5  -1   72.34    2.29
  -3   5   1   14.28    0.84
   3  -5  -1   13.06    0.85
   3  -5  -1   13.83    0.91
   2  -5  -1   27.72    1.09
  -2   5   1   28.44    1.05
   2  -5  -1   26.99    1.03
   1  -5  -1 2308.62   41.01
  -1   5   1 2308.56   41.31
  -1   5   1 2217.43   74.73
   1  -5  -1 2226.54   41.69
   0   5   1   10.40    1.60
   0   5   1   10.80    0.49
   0  -5  -1   13.70    0.68
   0  -5  -1   10.65    0.58
  -1  -5  -1  354.71    6.74
   1   5   1  347.08    6.55
   1   5   1  337.93   12.33
  -1  -5  -1  351.30    6.82
   2   5   1 1028.32   19.01
   2   5   1 1005.33   34.53
  -2  -5  -1 1043.33   19.16
  -3  -5  -1  194.30    4.36
   3   5   1  190.55    7.90
   3   5   1  199.59    4.45
   4   5   1   43.69    1.81
   4   5   1   46.82    3.37
  -4  -5  -1   46.12    1.73
   5   5   1  161.80    4.52
  -5  -5  -1  167.45    4.47
   5   5   1  185.35    7.94
   6   5   1    3.01    1.87
  -6  -5  -1    2.28    0.76
   6   5   1    2.35    0.84
  -7  -5  -1    0.27    0.73
   7   5   1   -0.42    0.58
   7  -6  -1    3.00    0.92
   6  -6  -1   16.38    1.32
   6  -6  -1   16.65    1.40
  -6   6   1   16.41    1.21
   5  -6  -1    2.83    0.68
   5  -6  -1    3.79    0.74
  -5   6   1    2.57    0.59
   4  -6  -1   24.52    1.36
  -4   6   1   25.76    1.26
   4  -6  -1   25.98    1.32
  -3   6   1  407.49    8.16
   3  -6  -1  393.59    8.25
   3  -6  -1  397.61    8.05
  -2   6   1   65.60    1.89
   2  -6  -1   67.82    1.83
   2  -6  -1   67.36    1.93
  -1   6   1  110.91    2.59
  -1   6   1  109.14    4.50
   1  -6  -1  110.67    2.64
   1  -6  -1  111.87    2.52
   0   6   1  158.19    6.27
   0   6   1  160.48    3.37
   0  -6  -1  164.21    3.39
   0  -6  -1  163.81    3.53
   1   6   1   66.54    1.46
  -1  -6  -1   63.60    1.65
  -1  -6  -1   62.59    1.74
   1   6   1   59.96    3.31
  -2  -6  -1  102.82    2.55
   2   6   1   97.46    4.68
   2   6   1  102.18    2.50
   3   6   1  332.96    7.00
  -3  -6  -1  340.53    7.03
   3   6   1  332.63   12.60
  -4  -6  -1  121.10    3.33
   4   6   1  120.15    3.40
   4   6   1  130.08    6.12
  -5  -6  -1   27.26    1.60
   5   6   1   25.17    1.58
   5   6   1   32.92    3.17
   6   6   1    0.57    1.67
   6   6   1    0.11    0.64
  -6  -6  -1    0.02    0.67
   7   6   1    0.81    0.80
  -7  -6  -1    0.01    0.76
   7  -7  -1   17.53    1.60
  -7   7   1   18.83    1.39
   7  -7  -1   17.69    1.56
  -6   7   1   -0.39    0.45
   6  -7  -1    0.78    0.62
   6  -7  -1   -0.07    0.54
   5  -7  -1    1.18    0.59
  -5   7   1    0.05    0.43
   5  -7  -1    0.79    0.54
   4  -7  -1   13.59    1.02
  -4   7   1   12.21    0.94
   4  -7  -1   14.34    1.10
  -3   7   1   50.03    1.73
   3  -7  -1   51.54    1.85
   3  -7  -1   51.77    1.72
   2  -7  -1  305.72    6.41
  -2   7   1  302.42    6.34
   2  -7  -1  305.46    6.16
   1  -7  -1   53.10    1.50
   1  -7  -1   53.48    1.63
  -1   7   1   54.53    1.57
  -1   7   1   51.09    2.83
   0  -7  -1  131.14    3.08
   0  -7  -1  129.04    2.90
   0   7   1  123.26    5.47
   0   7   1  144.56    2.94
  -1  -7  -1   53.37    1.50
  -1  -7  -1   54.60    1.65
   1   7   1   53.33    1.32
   1   7   1   53.03    3.14
   2   7   1   40.63    0.92
  -2  -7  -1   41.45    1.45
   2   7   1   40.65    1.38
   2   7   1   39.46    2.86
  -3  -7  -1  144.59    3.56
   3   7   1  142.34    6.54
   3   7   1  143.16    3.55
   4   7   1  313.34    6.83
  -4  -7  -1  286.44    6.73
   4   7   1  315.74   12.19
   5   7   1    8.76    2.33
   5   7   1    7.01    1.01
  -5  -7  -1    5.70    0.90
   6   7   1    2.78    2.14
   6   7   1    2.45    0.83
  -6  -7  -1    3.67    0.88
  -7  -7  -1    0.36    0.80
   7   7   1   -0.29    0.77
   7  -8  -1    0.23    0.63
  -7   8   1    0.80    0.67
   7  -8  -1    1.64    0.81
  -6   8   1    0.37    0.54
   6  -8  -1    0.92    0.64
   6  -8  -1    0.81    0.63
  -5   8   1    2.95    0.64
   5  -8  -1    4.58    0.76
   5  -8  -1    4.04    0.79
  -4   8   1   29.99    1.45
   4  -8  -1   27.91    1.49
   4  -8  -1   30.06    1.44
  -3   8   1   17.28    1.02
   3  -8  -1   18.89    1.02
   3  -8  -1   16.72    1.04
   2  -8  -1   42.65    1.58
  -2   8   1   43.68    1.56
   2  -8  -1   45.00    1.48
  -1   8   1  399.31    8.02
  -1   8   1  397.07   14.14
   1  -8  -1  409.00    8.13
   1  -8  -1  406.10    7.85
   0   8   1  416.45   14.81
   0  -8  -1  416.43    8.31
   0   8   1  409.73    8.07
   0  -8  -1  416.21    8.05
   1   8   1  222.84    4.43
  -1  -8  -1  221.79    4.82
   1   8   1  216.14    8.72
  -1  -8  -1  218.75    4.60
  -2  -8  -1   90.83    2.48
  -2  -8  -1   87.27    2.36
   2   8   1   89.90    1.85
   2   8   1   85.80    4.54
   3   8   1   36.60    3.12
   3   8   1   32.41    1.43
  -3  -8  -1   34.32    1.48
   4   8   1    4.08    0.80
   4   8   1    6.41    2.24
  -4  -8  -1    4.05    0.83
   5   8   1   16.21    1.30
  -5  -8  -1   15.08    1.23
   5   8   1   16.29    2.66
  -6  -8  -1    0.97    0.75
   6   8   1    1.54    1.98
   6   8   1    0.58    0.71
  -7  -8  -1    1.60    0.95
   7   8   1    0.98    0.89
   7  -9  -1    2.80    0.89
  -7   9   1    2.62    0.80
   6  -9  -1    2.58    0.76
  -6   9   1    2.90    0.74
   6  -9  -1    1.94    0.79
   5  -9  -1    1.04    0.54
  -5   9   1    1.17    0.55
   5  -9  -1    1.37    0.68
   4  -9  -1    5.19    0.73
   4  -9  -1    4.58    0.78
  -4   9   1    4.86    0.74
   3  -9  -1    7.77    0.76
   3  -9  -1    5.89    0.77
  -3   9   1    7.03    0.75
  -2   9   1  874.20   16.69
  -2   9   1  887.05   29.36
   2  -9  -1  852.68   16.74
   2  -9  -1  867.77   16.32
   1  -9  -1    1.62    0.41
  -1   9   1    1.68    1.37
  -1   9   1    1.44    0.36
   1  -9  -1    1.43    0.43
   0   9   1   70.12    1.89
   0  -9  -1   70.65    2.11
   0  -9  -1   70.46    1.92
   0   9   1   74.53    3.96
  -1  -9  -1   26.29    1.23
   1   9   1   26.23    0.92
   1   9   1   24.57    2.67
  -1  -9  -1   25.88    1.04
  -2  -9  -1  300.76    6.26
   2   9   1  292.35   11.61
  -2  -9  -1  305.85    6.48
   2   9   1  295.26    5.71
   3   9   1   21.65    1.16
  -3  -9  -1   21.41    1.24
   3   9   1   18.53    2.68
   4   9   1  120.48    6.37
  -4  -9  -1  111.14    3.39
   4   9   1  119.47    3.43
   5   9   1    0.00    1.76
  -5  -9  -1    0.09    0.59
   5   9   1    0.18    0.59
   6   9   1    3.73    0.96
  -6  -9  -1    3.65    0.95
   6   9   1    4.18    2.31
  -7  -9  -1   -0.56    0.77
   7   9   1   -0.15    0.77
  -7  10   1    0.04    0.66
   7 -10  -1    0.55    0.72
  -6  10   1    4.09    0.83
   6 -10  -1    3.63    0.90
  -5  10   1    0.11    0.50
   5 -10  -1    0.13    0.50
   5 -10  -1    0.34    0.62
   4 -10  -1   92.46    2.75
  -4  10   1   87.43    2.85
   4 -10  -1   89.45    3.00
   3 -10  -1    3.35    0.63
   3 -10  -1    4.22    0.60
  -3  10   1    4.14    0.62
   2 -10  -1    0.15    0.38
   2 -10  -1   -0.28    0.44
  -2  10   1   -0.78    1.37
  -2  10   1   -0.19    0.33
  -1  10   1   46.76    1.62
   1 -10  -1   46.71    1.52
  -1  10   1   50.80    3.42
   1 -10  -1   46.97    1.73
   0 -10  -1  106.52    2.89
   0  10   1  113.15    5.26
   0 -10  -1  105.67    2.65
   0  10   1  105.65    2.64
   1  10   1   24.70    0.94
   1  10   1   25.37    2.73
  -1 -10  -1   26.05    1.09
  -1 -10  -1   24.27    1.28
   2  10   1   68.59    4.44
  -2 -10  -1   73.32    2.15
  -2 -10  -1   74.88    2.38
   3  10   1    1.35    1.72
  -3 -10  -1    9.65    0.98
   4  10   1   25.79    1.48
  -4 -10  -1   23.59    1.53
   4  10   1   24.73    3.30
  -5 -10  -1    1.13    0.71
   5  10   1    0.53    0.64
   5  10   1    1.14    1.95
   6  10   1    0.77    0.80
  -6 -10  -1    0.90    0.76
   6  10   1    0.89    2.31
   7  10   1    0.16    0.86
  -7 -10  -1   -0.19    0.84
   7  10   1    1.70    2.01
  -7  11   1    5.92    1.06
  -6  11   1    1.92    0.76
   6 -11  -1    2.65    0.94
  -5  11   1    0.07    0.46
   5 -11  -1   -0.24    0.57
  -4  11   1   -0.31    0.49
   4 -11  -1    0.07    0.58
  -3  11   1   51.63    1.96
   3 -11  -1   50.59    1.76
   3 -11  -1   49.86    2.03
  -2  11   1   87.75    2.66
   2 -11  -1   94.37    2.47
   2 -11  -1   86.08    2.74
  -2  11   1  102.70    4.66
  -1  11   1  151.15    6.55
  -1  11   1  147.71    3.61
   1 -11  -1  144.96    3.73
   1 -11  -1  141.81    3.38
   0 -11  -1   56.83    1.98
   0  11   1   54.44    1.69
   0 -11  -1   55.64    1.75
   0  11   1   56.89    3.70
   1  11   1   12.96    2.48
  -1 -11  -1   12.87    0.83
   1  11   1   11.48    0.69
  -1 -11  -1   12.75    1.05
  -2 -11  -1   32.96    1.60
  -2 -11  -1   32.32    1.36
   2  11   1   31.64    3.30
   3  11   1   33.22    3.39
  -3 -11  -1   24.80    1.33
  -3 -11  -1   26.75    1.57
  -4 -11  -1   11.03    1.15
   4  11   1   10.54    1.07
   4  11   1   10.71    2.74
   5  11   1    0.85    0.67
   5  11   1   -0.45    1.97
  -5 -11  -1    0.72    0.70
   6  11   1    2.92    0.94
  -6 -11  -1    3.96    1.01
   6  11   1    1.32    2.21
   7  11   1    1.84    2.07
   6 -12  -1    0.32    0.78
  -6  12   1    0.70    0.70
  -5  12   1   17.84    1.40
   5 -12  -1   17.86    1.51
   4 -12  -1    1.53    0.68
  -4  12   1    1.04    0.58
   3 -12  -1    0.67    0.57
  -3  12   1    0.02    0.40
   2 -12  -1    2.18    0.67
  -2  12   1    2.19    0.50
  -2  12   1    4.42    1.90
   2 -12  -1    4.81    0.63
   1 -12  -1    5.59    0.68
   1 -12  -1    4.23    0.73
  -1  12   1    5.92    2.15
  -1  12   1    4.02    0.61
   0  12   1  126.29    3.17
   0  12   1  134.25    6.28
   0 -12  -1  129.76    3.20
   0 -12  -1  130.32    3.52
  -1 -12  -1   27.69    1.51
   1  12   1   27.78    1.11
   1  12   1   27.29    3.22
  -1 -12  -1   28.32    1.24
   2  12   1    8.64    2.39
  -2 -12  -1    8.62    1.02
  -2 -12  -1    8.63    0.79
   3  12   1   31.61    3.50
  -3 -12  -1   24.68    1.60
  -3 -12  -1   26.44    1.38
  -4 -12  -1   22.05    1.58
   4  12   1   27.53    3.37
   5  12   1   -0.87    1.93
   5  12   1   -0.16    0.63
  -5 -12  -1   -0.30    0.68
   6  12   1    8.32    2.68
   6  12   1    7.59    1.23
  -6 -12  -1    5.66    1.14
  -6  13   1    0.21    0.67
   6 -13  -1    0.10    0.78
   5 -13  -1    0.77    0.73
  -5  13   1   -0.12    0.53
   4 -13  -1    3.93    0.83
  -4  13   1    2.46    0.72
   3 -13  -1   10.97    1.14
  -3  13   1    9.32    0.99
  -2  13   1   46.88    1.84
   2 -13  -1   45.38    1.97
   1 -13  -1   26.42    1.48
  -1  13   1   22.08    1.21
  -1  13   1   28.47    3.11
   0  13   1    7.95    2.30
   0  13   1    4.66    0.55
   0 -13  -1    6.17    0.74
   0 -13  -1    5.55    0.85
   1  13   1   52.67    4.09
  -1 -13  -1   48.04    2.06
  -1 -13  -1   52.25    1.81
   1  13   1   47.65    1.60
  -2 -13  -1   11.00    0.91
  -2 -13  -1   11.75    1.23
   2  13   1   10.36    2.69
  -3 -13  -1  142.98    3.88
   3  13   1  158.33    7.73
  -3 -13  -1  136.62    4.14
   4  13   1    7.57    2.56
  -4 -13  -1    7.60    1.13
  -4 -13  -1    8.75    0.98
   5  13   1    2.21    2.35
  -5 -13  -1    1.11    0.82
  -5 -13  -1    2.51    0.65
   6  13   1   -0.25    1.97
  -6 -13  -1    0.35    0.86
  -6  14   1    0.28    0.76
   6 -14  -1   -0.10    0.82
  -5  14   1    2.81    0.79
   5 -14  -1    2.12    0.87
  -4  14   1    3.11    0.70
   4 -14  -1    3.14    0.83
   3 -14  -1   20.12    1.45
  -3  14   1   18.70    1.30
   2 -14  -1    1.71    0.73
  -2  14   1    1.88    0.56
  -1  14   1    8.34    0.81
   1 -14  -1   10.18    1.08
  -1  14   1   13.93    2.62
   0 -14  -1    4.68    0.87
   0  14   1    3.48    0.54
   0  14   1    4.74    2.29
  -1 -14  -1   36.27    1.54
  -1 -14  -1   33.71    1.80
   1  14   1   36.45    3.63
  -2 -14  -1   26.96    1.69
   2  14   1   27.10    3.45
  -2 -14  -1   25.43    1.34
  -3 -14  -1    0.60    0.49
  -3 -14  -1    0.67    0.78
   3  14   1    1.96    2.40
  -4 -14  -1    0.78    0.49
  -4 -14  -1    1.25    0.77
   4  14   1   -1.91    2.10
  -5 -14  -1    3.53    0.77
  -5 -14  -1    3.64    1.02
   5  14   1    2.83    2.30
  -6 -14  -1    1.91    0.53
   6  14   1    0.71    2.12
  -6 -14  -1   -1.28    0.86
  -5  15   1    0.70    0.74
   5 -15  -1    0.57    0.83
   4 -15  -1    6.51    1.05
  -4  15   1    6.28    0.92
  -3  15   1    5.05    0.81
   3 -15  -1    6.65    1.03
   2 -15  -1    2.77    0.78
  -2  15   1    1.09    0.51
  -1  15   1   21.55    1.22
  -1  15   1   21.72    2.97
   1 -15  -1   22.80    1.50
   0 -15  -1    4.99    0.92
   0  15   1    3.83    2.18
   0  15   1    3.57    0.56
   1  15   1    2.26    2.13
  -1 -15  -1    1.20    0.79
   2  15   1   23.72    3.38
  -2 -15  -1   16.30    1.44
   3  15   1    0.05    2.32
  -3 -15  -1    0.14    0.45
  -3 -15  -1    0.52    0.76
   4  15   1    1.40    2.38
  -4 -15  -1    2.98    0.72
  -4 -15  -1    2.60    0.95
  -5 -15  -1    2.95    1.12
   5  15   1    5.64    2.66
  -5 -15  -1    4.79    0.88
  -5  16   1    7.40    1.20
   5 -16  -1    7.89    1.29
  -4  16   1    0.13    0.50
   4 -16  -1    1.27    0.77
   3 -16  -1   -0.35    0.64
  -3  16   1   -0.10    0.41
  -2  16   1   -0.22    0.40
   2 -16  -1   -0.08    0.61
  -1  16   1    9.98    2.55
   1 -16  -1    6.83    1.01
  -1  16   1    6.29    0.76
   0  16   1   19.58    1.16
   0  16   1   23.48    3.28
   0 -16  -1   20.71    1.49
  -1 -16  -1   22.77    1.61
   1  16   1   23.00    3.31
  -2 -16  -1   -0.54    0.69
   2  16   1    2.44    2.36
  -3 -16  -1    0.63    0.76
   3  16   1   -0.77    2.22
   4  16   1    0.16    1.91
  -4 -16  -1    0.19    0.80
   5  16   1    0.33    2.21
  -5 -16  -1    1.99    0.67
  -5 -16  -1    0.05    0.89
   5 -17  -1    0.83    0.91
  -5  17   1    0.01    0.60
   4 -17  -1    0.69    0.80
  -4  17   1    0.73    0.56
  -3  17   1    9.05    1.05
   3 -17  -1   10.44    1.28
  -2  17   1   18.07    1.29
   2 -17  -1   21.05    1.56
  -1  17   1    0.22    2.09
  -1  17   1   -0.43    0.37
   1 -17  -1   -0.25    0.68
   0  17   1   18.58    3.12
   0  17   1   16.74    1.14
   0 -17  -1   12.44    1.31
   1  17   1    3.25    2.47
  -1 -17  -1    2.85    0.92
  -2 -17  -1    0.52    0.81
   2  17   1    0.15    2.40
   3  17   1   11.28    3.23
  -3 -17  -1   10.15    1.41
   4  17   1    1.47    2.30
  -4 -17  -1    0.17    0.88
  -5 -17  -1    0.28    0.96
   5  17   1   -0.99    2.15
  -4  18   1    3.02    0.78
   4 -18  -1    3.38    1.05
  -3  18   1    2.73    0.74
   3 -18  -1    3.46    0.99
   2 -18  -1    0.00    0.68
  -2  18   1    0.78    0.58
   1 -18  -1    2.67    0.86
  -1  18   1    1.34    0.54
   0 -18  -1    7.95    1.17
   0  18   1   11.05    2.94
  -1 -18  -1    6.65    1.12
   1  18   1    9.24    3.07
   2  18   1    0.78    2.64
  -2 -18  -1    2.34    0.94
  -3 -18  -1    0.61    0.88
   3  18   1   -0.56    2.45
   4  18   1    0.18    2.39
  -4 -18  -1    1.01    0.98
  -4  19   1    1.67    0.71
   4 -19  -1    2.78    1.01
   3 -19  -1    0.82    0.85
  -3  19   1   -0.08    0.43
   2 -19  -1    0.21    0.75
  -2  19   1    0.52    0.55
  -1  19   1    2.57    0.64
   1 -19  -1    2.73    0.95
   0  19   1    3.35    2.47
   0 -19  -1    1.63    0.89
   1  19   1    0.02    2.21
  -1 -19  -1    0.25    0.76
  -2 -19  -1   -0.32    0.80
   2  19   1   -1.81    2.51
   3  19   1   -0.09    2.64
  -3 -19  -1    0.52    0.91
   4  19   1    0.77    2.71
   3 -20  -1    0.10    0.84
  -3  20   1    0.30    0.53
   2 -20  -1    1.46    0.88
  -2  20   1    1.03    0.55
  -1  20   1    0.18    0.47
   1 -20  -1   -0.39    0.76
   0 -20  -1    2.79    1.02
   0  20   1    6.81    2.88
  -1 -20  -1    1.12    0.89
   1  20   1    0.46    2.63
  -2 -20  -1    0.91    0.92
   2  20   1   -0.76    2.68
  -3 -20  -1    0.24    0.95
   3  20   1    2.02    3.07
  -2  21   1   -0.04    0.48
   2 -21  -1    0.27    0.82
   1 -21  -1    0.60    0.91
   0  21   1    3.56    2.93
   0 -21  -1    1.84    0.99
   1  21   1    0.98    2.78
  -1 -21  -1   -0.04    0.84
   2  21   1    3.23    3.06
  -2 -21  -1    0.79    0.98
  -2 -21   2    2.25    1.13
   2  21  -2    0.46    3.05
  -1 -21   2    7.92    1.40
   1  21  -2    8.26    3.26
   0 -21   2    1.19    1.02
   0  21  -2    0.40    2.77
   1 -21   2    0.25    0.91
  -2  21  -2    0.86    0.65
   2 -21   2    1.97    1.00
  -3 -20   2    0.73    1.10
   3  20  -2    0.77    2.59
  -2 -20   2    0.23    1.00
  -1 -20   2    0.95    0.95
   1  20  -2    0.88    2.65
   0  20  -2   -1.07    2.42
   0 -20   2    0.90    0.93
  -1  20  -2    7.22    0.97
   1 -20   2    6.89    1.25
   2 -20   2    0.69    0.90
  -2  20  -2   -0.02    0.52
   3 -20   2   -0.41    0.68
  -3  20  -2    0.79    0.60
   3  19  -2    0.29    2.62
  -3 -19   2    0.28    0.97
  -2 -19   2    2.11    1.06
   2  19  -2    1.84    2.62
  -1 -19   2    2.70    0.96
   1  19  -2    5.12    2.97
   0 -19   2    3.31    1.03
   0  19  -2    6.93    2.94
   1 -19   2    1.15    0.89
  -1  19  -2    0.04    0.50
  -1  19  -2   -0.09    2.65
  -2  19  -2   -0.30    0.46
   2 -19   2    0.59    0.85
   3 -19   2   -0.07    0.63
  -3  19  -2    0.29    0.56
  -4 -18   2    0.43    1.03
   4  18  -2    0.15    2.02
   3  18  -2    5.74    2.86
  -3 -18   2    6.68    1.36
   2  18  -2    5.62    2.90
  -2 -18   2    2.51    1.03
   1  18  -2   -2.26    2.19
  -1 -18   2    0.95    0.88
   0  18  -2    0.76    2.47
   0 -18   2    0.83    0.84
  -1  18  -2    0.23    0.45
  -1  18  -2    1.62    2.44
   1 -18   2    0.70    0.76
  -2  18  -2    2.47    0.69
   2 -18   2    2.37    0.90
  -3  18  -2    3.23    0.82
   3 -18   2    3.88    0.94
   4 -18   2   -0.19    0.61
  -4  18  -2   -0.30    0.47
   5  17  -2    6.88    2.77
  -5 -17   2    4.08    1.33
  -4 -17   2    0.16    0.96
   4  17  -2    0.39    1.90
   3  17  -2    1.07    2.21
  -3 -17   2    0.76    0.93
  -2 -17   2    1.35    0.91
   2  17  -2    0.87    2.50
   1  17  -2    5.44    2.72
  -1 -17   2    2.81    0.97
   0 -17   2   42.31    2.23
   0  17  -2   49.29    4.82
   0  17  -2   46.88    1.94
   1 -17   2    0.21    0.73
  -1  17  -2    1.12    0.56
  -1  17  -2    1.91    2.60
   2 -17   2   14.57    1.40
  -2  17  -2   14.45    1.22
   3 -17   2   -0.09    0.64
  -3  17  -2    0.26    0.55
   4 -17   2    5.67    1.02
  -4  17  -2    5.19    0.97
  -5  17  -2    0.23    0.75
   5  16  -2    4.93    2.49
  -5 -16   2    2.09    1.12
   4  16  -2    1.96    1.93
  -4 -16   2    3.09    1.10
   3  16  -2    7.06    2.50
  -3 -16   2   13.38    1.52
   2  16  -2   23.24    3.59
  -2 -16   2   18.64    1.64
  -1 -16   2    0.11    0.68
   1  16  -2   -0.51    1.98
   0  16  -2    2.38    2.49
   0  16  -2    3.43    0.64
   0 -16   2    2.70    0.88
   1 -16   2   26.73    1.75
  -1  16  -2   32.24    3.94
  -1  16  -2   29.76    1.58
   2 -16   2   38.37    2.06
  -2  16  -2   45.61    4.37
  -2  16  -2   41.07    1.95
  -3  16  -2    0.24    0.54
   3 -16   2   -0.15    0.59
  -4  16  -2   -0.68    0.47
   4 -16   2    0.64    0.64
   5 -16   2    0.49    0.64
  -5  16  -2    0.27    0.73
  -5 -15   2    5.74    1.28
   5  15  -2    9.70    2.81
  -4 -15   2    3.85    1.09
   4  15  -2    3.94    2.22
   3  15  -2    7.82    2.64
  -3 -15   2   13.65    1.45
  -2 -15   2    7.50    1.20
   2  15  -2   11.52    3.20
  -1 -15   2    4.56    0.98
   1  15  -2    4.03    2.41
   0  15  -2    2.45    0.55
   0  15  -2    3.89    2.70
   0 -15   2    2.11    0.77
  -1  15  -2   59.97    4.62
  -1  15  -2   58.51    2.18
   1 -15   2   54.27    2.37
  -2  15  -2    0.61    0.50
  -2  15  -2   -0.71    2.23
   2 -15   2    1.06    0.68
  -3  15  -2    0.45    0.53
   3 -15   2    0.77    0.68
   4 -15   2   -0.04    0.49
  -4  15  -2   -0.22    0.51
  -5  15  -2    6.63    1.16
   5 -15   2    7.53    1.13
  -6 -14   2    1.65    1.10
   6  14  -2    5.09    2.43
   6  14  -2    1.93    0.95
  -5 -14   2    0.03    0.84
   5  14  -2    1.96    2.02
  -4 -14   2   22.64    1.75
  -3 -14   2   24.19    1.77
   2  14  -2   25.29    3.42
  -2 -14   2   26.38    1.68
  -1 -14   2    2.89    0.81
   1  14  -2    6.39    2.38
   0  14  -2   10.98    2.77
   0 -14   2   10.49    1.15
   0  14  -2    9.40    0.85
   1 -14   2    9.59    1.06
  -1  14  -2   12.43    0.95
  -1  14  -2   11.74    2.80
  -2  14  -2   25.17    1.41
   2 -14   2   22.81    1.51
  -2  14  -2   24.76    4.42
   3 -14   2   26.97    1.67
  -3  14  -2   27.87    1.61
  -4  14  -2    1.24    0.62
   4 -14   2    1.46    0.72
   5 -14   2    0.78    0.65
  -5  14  -2    1.54    0.84
  -6  14  -2    1.66    0.88
   6 -14   2    2.36    0.85
   6  13  -2    1.79    1.95
  -6 -13   2    0.37    0.96
   6  13  -2    1.14    0.84
  -5 -13   2    0.23    0.85
   5  13  -2    2.29    2.09
   5  13  -2    0.14    0.68
  -4 -13   2   20.80    1.55
   4  13  -2   21.11    1.38
   3  13  -2    2.15    2.09
  -3 -13   2    7.57    1.13
   3  13  -2    4.16    0.71
   2  13  -2    3.30    2.32
  -2 -13   2    4.60    1.01
  -1 -13   2    0.50    0.71
   1  13  -2   -0.69    1.71
   1  13  -2   -0.02    0.28
   0 -13   2  105.40    3.26
   0  13  -2  102.60    2.88
   0  13  -2  110.80    6.06
  -1  13  -2   39.12    4.24
   1 -13   2   36.92    1.81
  -1  13  -2   35.49    1.56
   2 -13   2    1.65    0.65
  -2  13  -2    0.88    0.43
   3 -13   2   45.39    2.08
  -3  13  -2   41.79    1.93
   4 -13   2    0.32    0.61
  -4  13  -2   -0.09    0.59
   5 -13   2    2.25    0.80
  -5  13  -2    2.27    0.78
   6 -13   2    0.83    0.71
  -6  13  -2    0.80    0.78
  -6 -12   2    4.34    1.13
   6  12  -2    5.01    1.08
   6  12  -2    6.18    2.48
  -5 -12   2    3.25    0.96
   5  12  -2    3.20    0.83
   5  12  -2    5.47    2.33
   4  12  -2    0.82    0.55
  -4 -12   2   -0.38    0.66
   4  12  -2   -0.06    1.53
   3  12  -2   47.89    1.77
   3  12  -2   48.64    4.14
  -3 -12   2   46.92    2.19
  -2 -12   2  161.17    4.34
   2  12  -2  155.88    7.74
   1  12  -2   39.08    3.95
   1  12  -2   36.56    1.35
  -1 -12   2   39.40    1.85
   0  12  -2   25.92    3.25
   0 -12   2   23.78    1.44
   0  12  -2   24.66    1.17
  -1  12  -2   50.62    4.89
   1 -12   2   38.63    1.79
  -1  12  -2   40.33    1.64
  -2  12  -2    6.11    0.73
  -2  12  -2    9.43    2.20
   2 -12   2    6.26    0.82
   3 -12   2   59.66    2.36
  -3  12  -2   57.83    2.27
  -4  12  -2    0.53    0.64
   4 -12   2    0.75    0.60
  -5  12  -2    1.39    0.71
   5 -12   2    1.36    0.68
   6 -12   2    0.62    0.64
  -6  12  -2    0.33    0.73
   6  11  -2    3.07    0.96
  -6 -11   2    2.86    1.01
   6  11  -2    1.20    2.15
  -5 -11   2    9.03    1.21
   5  11  -2    7.86    2.34
   5  11  -2    9.36    1.13
   4  11  -2    4.93    2.25
   4  11  -2    8.28    0.95
  -4 -11   2    5.46    0.91
   3  11  -2   64.84    2.12
   3  11  -2   66.72    4.71
  -3 -11   2   68.20    2.55
   2  11  -2    0.70    0.39
  -2 -11   2    0.53    0.67
   2  11  -2    1.65    1.86
  -1 -11   2    0.82    0.28
   1  11  -2    0.17    0.26
  -1 -11   2    0.76    0.55
   1  11  -2    1.44    1.67
   0  11  -2  122.94    6.28
   0 -11   2  115.74    3.31
  -1  11  -2   85.37    4.89
   1 -11   2   76.06    2.51
  -1  11  -2   81.82    2.43
   2 -11   2    0.43    0.47
  -2  11  -2    0.64    1.57
  -2  11  -2    0.54    0.40
  -3  11  -2   78.59    2.64
   3 -11   2   74.22    2.67
  -3  11  -2   86.55    5.20
   4 -11   2    3.33    0.76
  -4  11  -2    3.73    0.77
  -5  11  -2    1.63    0.71
   5 -11   2    2.16    0.70
  -6  11  -2    1.10    0.69
   6 -11   2    0.49    0.59
  -7 -10   2    2.24    1.12
   7  10  -2    2.46    1.05
   6  10  -2    2.00    2.26
  -6 -10   2    0.07    0.81
   6  10  -2    0.89    0.75
   5  10  -2    5.79    0.97
   5  10  -2    7.17    2.37
  -5 -10   2    5.70    1.02
   4  10  -2   31.86    3.25
   4  10  -2   29.89    1.54
  -4 -10   2   25.94    1.58
  -3 -10   2   26.85    1.54
   3  10  -2   25.22    3.06
   3  10  -2   29.07    1.31
   2  10  -2   41.22    4.00
  -2 -10   2   43.36    1.85
   2  10  -2   41.36    1.44
  -1 -10   2    0.04    0.19
   1  10  -2    0.88    1.39
  -1 -10   2   -0.36    0.47
   0  10  -2   12.48    2.35
   0 -10   2    8.07    0.49
   0 -10   2   10.19    0.93
  -1  10  -2  281.25    6.04
   1 -10   2  283.11    6.26
  -2  10  -2   49.83    3.85
   2 -10   2   52.41    1.92
  -2  10  -2   47.77    1.79
  -3  10  -2   87.21    5.23
  -3  10  -2   80.68    2.64
   3 -10   2   80.59    2.67
  -4  10  -2    0.12    0.54
   4 -10   2    0.77    0.54
  -5  10  -2   -0.14    0.54
   5 -10   2    0.70    0.56
  -6  10  -2   -0.28    0.57
   6 -10   2   -0.21    0.52
   7 -10   2    4.65    1.03
  -7  10  -2    2.51    0.92
   7   9  -2    1.12    0.96
  -7  -9   2    2.03    1.06
   6   9  -2    2.22    2.29
  -6  -9   2    2.90    0.95
   6   9  -2    2.22    0.86
   5   9  -2    5.61    2.36
  -5  -9   2    3.63    0.85
   5   9  -2    5.86    0.96
   4   9  -2   27.82    1.50
  -4  -9   2   28.99    1.65
   4   9  -2   30.92    3.14
  -3  -9   2   29.18    1.50
   3   9  -2   31.68    1.36
   3   9  -2   28.28    2.95
   2   9  -2  162.55    3.63
  -2  -9   2  163.70    4.09
   2   9  -2  157.06    7.72
  -2  -9   2  162.17    3.38
  -1  -9   2   73.68    1.92
  -1  -9   2   78.22    2.37
   1   9  -2   72.47    4.33
   0  -9   2   65.24    2.07
   0  -9   2   66.43    1.88
   0  -9   2   67.16    1.49
   0   9  -2   66.97    3.93
   1  -9   2   18.05    1.03
   1  -9   2   16.75    0.93
   2  -9   2   92.40    2.62
   2  -9   2   93.19    2.01
  -2   9  -2   76.64    4.76
  -2   9  -2   90.75    2.57
  -3   9  -2    1.61    2.12
  -3   9  -2   -0.24    0.39
   3  -9   2    0.36    0.28
   3  -9   2    0.18    0.40
   4  -9   2   42.07    1.92
  -4   9  -2   41.13    1.81
   5  -9   2    0.38    0.60
  -5   9  -2   -0.18    0.47
  -6   9  -2   -0.23    0.56
   6  -9   2    0.60    0.61
  -7   9  -2   -0.53    0.65
   7  -9   2    0.36    0.63
  -7  -8   2    0.18    0.92
   7   8  -2    0.78    0.89
   6   8  -2   11.32    1.34
  -6  -8   2   10.67    1.34
   6   8  -2   14.87    2.77
  -5  -8   2   -0.48    0.53
   5   8  -2   -0.72    0.49
   5   8  -2   -1.98    1.64
   4   8  -2   33.10    1.59
  -4  -8   2   33.00    1.62
   4   8  -2   35.26    3.23
  -3  -8   2   -0.03    0.34
   3   8  -2   -0.01    1.09
   3   8  -2    0.62    0.38
   2   8  -2 2391.06   43.01
   2   8  -2 2283.58   78.62
  -2  -8   2 2413.19   43.15
  -2  -8   2 2396.02   43.77
   1   8  -2  484.81    9.04
  -1  -8   2  481.48    9.20
   1   8  -2  474.64   17.35
  -1  -8   2  480.69    9.65
   0  -8   2   90.89    1.86
   0  -8   2   89.87    2.46
   0  -8   2   87.67    2.25
   0   8  -2   91.84    4.95
   1  -8   2  101.05    2.62
   1  -8   2  103.16    2.74
  -2   8  -2   68.01    2.07
   2  -8   2   67.80    2.10
  -2   8  -2   62.87    3.94
   2  -8   2   67.86    1.60
  -3   8  -2   62.61    4.08
   3  -8   2   56.18    1.66
  -3   8  -2   57.66    2.01
   3  -8   2   57.88    2.05
   4  -8   2  108.15    2.84
  -4   8  -2  100.35    3.07
   4  -8   2  107.66    3.23
   5  -8   2   62.31    2.17
   5  -8   2   57.70    2.39
  -5   8  -2   60.62    2.34
   6  -8   2    0.58    0.65
  -6   8  -2    1.01    0.62
  -7   8  -2    1.24    0.77
   7  -8   2    1.11    0.73
   7   7  -2    1.72    0.96
  -7  -7   2    0.24    0.86
  -6  -7   2    2.22    0.86
   6   7  -2    4.04    0.97
   5   7  -2   20.06    1.40
  -5  -7   2   20.84    1.46
   5   7  -2   27.61    3.01
  -4  -7   2   29.03    1.52
   4   7  -2   32.67    3.04
   4   7  -2   37.08    1.61
   3   7  -2    9.89    1.91
  -3  -7   2    8.07    0.80
   2   7  -2   51.38    3.35
  -2  -7   2   51.46    1.25
  -2  -7   2   48.70    1.73
   2   7  -2   50.85    1.54
   1   7  -2   47.69    1.24
   1   7  -2   47.42    3.33
  -1  -7   2   46.34    1.27
  -1  -7   2   46.06    1.57
   0  -7   2  178.99    3.77
   0  -7   2  171.66    3.94
   1  -7   2   72.96    2.01
   1  -7   2   73.84    2.09
   2  -7   2    0.25    0.28
  -2   7  -2   -0.64    1.26
  -3   7  -2    6.21    0.67
   3  -7   2    6.91    0.73
   3  -7   2    6.03    0.58
  -4   7  -2   10.50    0.90
   4  -7   2    9.29    0.89
   4  -7   2   10.02    1.01
   5  -7   2    0.12    0.54
  -5   7  -2    0.25    0.49
   5  -7   2    0.69    0.51
  -6   7  -2    1.00    0.61
   6  -7   2    1.11    0.67
   6  -7   2    0.77    0.59
   7  -7   2    2.39    0.82
  -7  -6   2    4.15    1.15
   7   6  -2    3.37    1.06
  -6  -6   2    2.79    0.80
   6   6  -2    2.05    0.80
  -5  -6   2   91.39    3.02
   5   6  -2   85.13    4.99
   5   6  -2   86.10    2.96
   4   6  -2  189.25    8.07
  -4  -6   2  183.11    4.60
   4   6  -2  186.27    4.58
   3   6  -2  102.58    5.11
  -3  -6   2  105.82    2.12
  -3  -6   2  106.73    2.88
   3   6  -2  103.00    2.76
   2   6  -2   11.50    1.86
   2   6  -2   15.72    0.80
  -2  -6   2   12.36    0.83
  -2  -6   2   12.77    0.50
   1   6  -2    3.92    0.42
   1   6  -2    7.04    1.52
  -1  -6   2    4.73    0.44
  -1  -6   2    4.17    0.52
   0  -6   2    5.09    0.51
   0  -6   2    5.93    0.46
   1  -6   2    6.36    0.52
   1  -6   2    6.39    0.60
   2  -6   2  108.30    2.35
   2  -6   2  106.65    2.73
   2  -6   2  107.46    2.73
   3  -6   2   89.15    2.27
  -3   6  -2   91.06    2.51
   3  -6   2   90.30    2.58
  -4   6  -2   23.44    1.24
   4  -6   2   24.41    1.34
   4  -6   2   23.04    1.20
   5  -6   2   10.06    1.00
  -5   6  -2    9.14    0.94
   5  -6   2    9.87    0.94
  -6   6  -2   12.81    1.14
   6  -6   2   12.24    1.27
   6  -6   2   15.43    1.24
   7  -6   2    3.60    0.85
   7   5  -2    4.29    1.08
  -7  -5   2    4.77    1.12
   6   5  -2    0.26    0.68
  -6  -5   2    0.43    0.68
   5   5  -2   -0.79    1.53
   5   5  -2    0.31    0.57
  -5  -5   2    0.50    0.58
   4   5  -2    4.62    1.66
  -4  -5   2    5.72    0.75
   4   5  -2    4.10    0.70
   3   5  -2  777.58   14.81
  -3  -5   2  766.80   14.27
  -3  -5   2  773.93   14.93
  -2  -5   2   21.76    0.97
   2   5  -2   19.64    0.90
  -2  -5   2   20.31    0.61
   2   5  -2   18.14    1.97
  -1  -5   2 3820.23   71.28
  -1  -5   2 3884.46   71.47
   1   5  -2 3836.16  130.68
   1   5  -2 3865.98   70.99
   0  -5   2  173.01    3.58
   0  -5   2  171.76    3.71
   1  -5   2  210.16    4.34
   1  -5   2  202.96    3.93
   1  -5   2  205.55    4.35
   2  -5   2  358.68    7.21
   2  -5   2  361.50    7.23
   2  -5   2  351.37    6.83
   3  -5   2    1.24    0.41
  -3   5  -2    1.30    0.36
   3  -5   2    1.60    0.36
   4  -5   2   60.83    2.16
  -4   5  -2   63.47    2.04
   4  -5   2   63.29    2.01
  -5   5  -2    6.74    0.80
   5  -5   2    7.41    0.94
   5  -5   2    7.80    0.91
   6  -5   2   12.09    1.14
   6  -5   2   11.40    1.21
  -6   5  -2   12.86    1.15
  -7   5  -2    0.65    0.82
   7  -5   2   -0.33    0.58
   7   4  -2   12.44    1.51
  -7  -4   2   12.65    1.49
  -6  -4   2    3.95    0.90
   6   4  -2    4.61    0.98
  -5  -4   2    4.06    0.78
   5   4  -2    6.34    0.94
   5   4  -2    5.78    1.86
   4   4  -2   21.01    1.23
   4   4  -2   20.13    2.24
  -4  -4   2   18.99    1.15
  -3  -4   2  766.72   13.84
  -3  -4   2  723.01   14.38
   3   4  -2  739.76   25.72
   3   4  -2  758.94   14.35
  -2  -4   2    7.23    0.57
  -2  -4   2    7.24    0.36
   2   4  -2    6.91    0.58
   2   4  -2    9.25    1.36
  -1  -4   2 2774.06   51.57
  -1  -4   2 2755.31   51.88
   1   4  -2 2794.64   51.53
   0  -4   2 4462.74   80.12
   0  -4   2 4049.17   80.53
   1  -4   2 2281.46   40.91
   1  -4   2 2064.66   40.67
   1  -4   2 2261.96   40.20
   2  -4   2  199.92    4.01
   2  -4   2  198.57    4.27
   2  -4   2  196.27    4.26
   3  -4   2  183.42    4.03
   3  -4   2  186.70    4.25
  -4   4  -2   27.90    1.25
   4  -4   2   27.79    1.38
   4  -4   2   24.74    2.32
   4  -4   2   28.51    1.28
  -5   4  -2    0.33    0.42
   5  -4   2    0.11    0.53
   5  -4   2   -0.50    0.47
  -6   4  -2   15.48    1.14
   6  -4   2   16.61    1.26
   6  -4   2   14.89    1.34
   7  -4   2    3.90    0.91
  -7   4  -2    5.07    1.06
   8   3  -2    1.20    0.83
  -8  -3   2    2.18    1.07
   7   3  -2    7.59    1.28
  -7  -3   2    9.80    1.37
   6   3  -2    4.63    0.97
  -6  -3   2    6.07    1.03
  -5  -3   2   19.88    1.37
   5   3  -2   22.05    2.43
   5   3  -2   21.81    1.45
   4   3  -2   87.38    2.69
  -4  -3   2   91.59    2.10
  -4  -3   2   87.87    2.62
   4   3  -2   88.48    4.40
   3   3  -2  153.06    3.64
  -3  -3   2  151.99    3.61
   3   3  -2  152.44    6.27
  -3  -3   2  152.35    3.12
  -2  -3   2   30.90    0.81
   2   3  -2   27.72    1.92
  -2  -3   2   29.33    1.05
   1   3  -2  711.77   13.26
  -1  -3   2  724.47   13.31
  -1  -3   2  722.94   13.46
   0   3  -2  564.90   11.02
   0  -3   2  584.74   10.70
   0  -3   2  565.07   10.75
   1  -3   2  485.88    9.13
   1  -3   2  478.51    9.14
   1  -3   2  475.92    8.90
   2  -3   2  832.37   15.66
   2  -3   2  818.50   15.62
   2  -3   2  850.04   15.40
   3  -3   2   32.70    1.20
   3  -3   2   31.34    2.18
   3  -3   2   33.24    1.19
   3  -3   2   33.76    1.28
  -4   3  -2  164.66    3.85
   4  -3   2  166.04    4.09
   4  -3   2  161.32    3.92
   4  -3   2  159.19    6.61
   5  -3   2   20.38    1.34
   5  -3   2   18.43    1.25
  -5   3  -2   19.51    1.09
  -6   3  -2    4.74    0.91
   6  -3   2    5.00    0.85
   7  -3   2   -0.33    0.58
  -7   3  -2   -0.68    0.74
  -8  -2   2    2.57    1.09
   8   2  -2    3.84    1.07
  -7  -2   2    4.82    1.09
   7   2  -2    6.40    1.07
   6   2  -2   10.68    1.23
  -6  -2   2   12.44    1.30
  -5  -2   2  119.41    3.45
   5   2  -2  110.80    3.44
  -4  -2   2  396.35    7.68
   4   2  -2  396.47    8.31
  -4  -2   2  393.20    8.27
   4   2  -2  390.74   14.09
  -3  -2   2  214.58    4.27
   3   2  -2  220.68    8.05
   3   2  -2  204.03    4.68
  -3  -2   2  213.66    4.67
   2   2  -2  197.46    7.50
   2   2  -2  207.32    4.32
  -2  -2   2  206.76    4.30
  -2  -2   2  213.86    4.05
  -1  -2   2  804.22   14.83
   1   2  -2  798.33   14.78
  -1  -2   2  808.57   14.91
   0   2  -2  655.05   12.01
   0  -2   2  625.99   11.86
   0  -2   2  638.73   11.91
   1  -2   2  345.28    6.54
   1  -2   2  343.29    6.58
   1  -2   2  336.14    6.39
   2  -2   2 3214.39  110.92
   2  -2   2 3270.23   60.90
   2  -2   2 3361.39   62.11
   2  -2   2 3392.24   60.53
   3  -2   2    7.87    0.65
   3  -2   2    7.85    0.64
   3  -2   2   10.42    0.63
   3  -2   2    9.39    1.40
   4  -2   2  223.82    8.57
   4  -2   2  223.44    5.13
   4  -2   2  221.19    5.03
  -4   2  -2  218.95    4.84
   5  -2   2    6.85    0.87
  -5   2  -2    5.87    0.63
  -6   2  -2   -0.38    0.65
   6  -2   2   -0.23    0.49
   7  -2   2    5.91    1.02
  -7   2  -2    7.06    1.21
   8   1  -2    0.08    0.67
  -8  -1   2    0.12    0.85
  -7  -1   2    1.53    0.86
   7   1  -2    2.25    0.80
  -6  -1   2    0.63    0.70
   6   1  -2    1.33    0.68
   5   1  -2   17.82    1.31
  -5  -1   2   19.54    1.28
   4   1  -2   49.78    3.00
   4   1  -2   50.81    1.93
  -4  -1   2   56.86    1.92
  -4  -1   2   55.45    1.57
   3   1  -2    6.08    0.64
  -3  -1   2    4.75    0.50
  -3  -1   2    6.30    0.45
   3   1  -2    5.32    1.03
  -2  -1   2   15.01    0.70
   2   1  -2   15.07    1.26
   2   1  -2   16.96    0.81
  -2  -1   2   17.20    0.61
  -1  -1   2  752.76   14.32
  -1  -1   2  790.06   14.31
   1   1  -2  779.33   14.27
   0   1  -2  222.97    4.25
   0  -1   2  216.98    4.25
   1  -1   2  212.30    4.10
   1  -1   2  213.45    4.15
   1  -1   2  207.55    4.06
   1  -1   2  203.32    7.48
   2  -1   2   44.08    1.32
   2  -1   2   47.01    1.34
   2  -1   2   47.66    2.51
   2  -1   2   47.56    1.29
   3  -1   2   52.26    2.81
   3  -1   2   49.88    1.59
   3  -1   2   49.02    1.46
   3  -1   2   50.94    1.58
   4  -1   2  132.10    5.70
  -4   1  -2  135.02    3.14
   4  -1   2  127.75    3.34
   5  -1   2   34.18    1.63
  -5   1  -2   32.97    1.57
   5  -1   2   30.37    2.72
  -5   1  -2   32.38    1.33
  -6   1  -2   -0.53    0.60
   6  -1   2    0.36    0.58
   7  -1   2    1.46    0.74
  -7   1  -2    2.31    1.01
  -8   1  -2   -0.52    0.99
   8   0  -2    0.90    0.79
  -8   0   2    1.00    0.95
   7   0  -2    0.37    0.62
  -7   0   2    1.11    0.76
  -6   0   2   30.17    1.79
   6   0  -2   30.68    1.79
   5   0  -2   83.58    2.84
  -5   0   2   89.17    2.86
  -5   0   2   82.75    2.32
  -4   0   2   39.81    1.58
   4   0  -2   36.66    2.29
   4   0  -2   35.21    1.56
  -4   0   2   41.69    1.33
  -3   0   2  472.31    8.91
   3   0  -2  470.69    9.22
   3   0  -2  440.72   15.74
  -3   0   2  470.78    9.19
   2   0  -2 2053.47   69.98
  -2   0   2 1979.05   38.12
  -2   0   2 2180.46   38.08
   2   0  -2 2139.88   37.94
   1   0  -2 5511.07   97.70
  -1   0   2 4969.35   96.93
   0   0  -2   50.17    1.26
   0   0   2   52.61    1.24
   0   0   2   52.16    2.28
   1   0   2    2.08    0.24
   1   0   2    3.07    0.72
   1   0   2    1.85    0.20
   1   0   2    1.99    0.25
   2   0   2    6.87    0.52
   2   0   2    6.61    1.24
   2   0   2    6.95    0.49
   2   0   2    7.43    0.44
   3   0   2    9.95    1.47
   3   0   2    8.81    0.69
   3   0   2    9.91    0.57
   4   0   2    6.54    1.42
  -4   0  -2    4.97    0.51
  -4   0  -2    5.38    0.62
   4   0   2    4.72    0.65
   5   0   2   22.34    2.53
  -5   0  -2   26.63    1.43
   5   0   2   24.16    1.43
  -5   0  -2   24.58    1.10
   6   0   2   50.40    2.24
  -6   0  -2   51.42    2.27
  -7   0  -2   19.14    1.62
   7   0   2   17.64    1.50
  -8   0  -2    2.41    1.09
   8   0   2    2.42    0.92
  -8   1   2    0.23    0.90
   8  -1  -2    0.40    0.73
  -7   1   2    2.38    0.92
   7  -1  -2   -0.35    0.61
   6  -1  -2    0.12    0.59
  -6   1   2    0.42    0.69
  -5   1   2   17.45    1.01
   5  -1  -2   19.27    1.34
  -5   1   2   15.68    1.21
   4  -1  -2   51.43    1.93
  -4   1   2   52.34    1.84
  -4   1   2   53.11    1.62
  -3   1   2    5.23    0.50
   3  -1  -2    5.34    0.59
  -2   1   2   16.74    0.68
   2  -1  -2   18.26    0.78
   2  -1  -2   15.83    0.80
   1  -1  -2  766.43   14.28
   1  -1  -2  779.31   14.25
  -1   1   2  765.79   14.25
   0   1   2  221.81    7.62
   0  -1  -2  214.69    4.26
   0   1   2  218.55    4.22
  -1  -1  -2  203.91    3.97
   1   1   2  210.63    4.02
   1   1   2  203.65    7.42
   2   1   2   45.25    1.16
  -2  -1  -2   44.13    1.22
   2   1   2   47.12    1.35
   2   1   2   42.43    2.51
  -3  -1  -2   53.00    1.55
   3   1   2   51.14    1.66
   3   1   2   49.18    2.80
   3   1   2   51.32    1.37
   4   1   2  131.21    3.43
   4   1   2  131.71    5.82
  -4  -1  -2  133.30    3.37
  -4  -1  -2  131.34    3.00
   5   1   2   34.68    1.71
  -5  -1  -2   36.00    1.65
   5   1   2   34.76    2.95
  -6  -1  -2    0.14    0.64
   6   1   2    0.59    0.63
   7   1   2    0.79    0.68
  -7  -1  -2    1.87    0.87
  -8  -1  -2    0.49    0.93
  -8   2   2    2.85    1.17
   8  -2  -2    3.66    1.00
   7  -2  -2    3.38    0.94
  -7   2   2    3.63    1.04
  -6   2   2   11.52    1.24
   6  -2  -2   12.19    1.27
  -5   2   2  111.65    2.99
   5  -2  -2  113.83    3.43
  -5   2   2  116.55    3.34
  -4   2   2  373.85    7.55
   4  -2  -2  371.64    7.90
   3  -2  -2  204.11    4.61
   3  -2  -2  207.51    4.62
  -3   2   2  212.50    4.42
   2  -2  -2  206.23    4.41
  -2   2   2  209.24    4.29
   2  -2  -2  212.90    4.40
   1  -2  -2  798.18   14.89
   1  -2  -2  804.84   14.88
  -1   2   2  807.58   14.89
   0  -2  -2  628.84   11.77
   0  -2  -2  631.99   11.62
   0   2   2  619.50   11.59
   0   2   2  621.51   20.93
   1   2   2  330.48    6.22
   1   2   2  318.05   11.43
  -1  -2  -2  340.48    6.24
   2   2   2 3357.76   61.76
   2   2   2 3492.27   60.25
   2   2   2 3167.14  112.09
  -2  -2  -2 3343.91   61.46
  -3  -2  -2    9.63    0.61
   3   2   2    9.08    0.71
   3   2   2   10.56    1.49
   3   2   2    8.47    0.45
  -4  -2  -2  224.72    4.61
   4   2   2  224.62    8.94
  -4  -2  -2  222.13    5.05
   4   2   2  227.91    5.21
   5   2   2    6.74    0.93
   5   2   2    8.66    1.98
  -5  -2  -2    7.62    0.86
   6   2   2   -0.02    0.60
  -6  -2  -2    0.39    0.60
   7   2   2    7.50    1.11
  -7  -2  -2    5.92    1.09
   8  -3  -2    1.66    0.87
  -8   3   2    1.22    1.01
  -7   3   2    8.99    1.33
   7  -3  -2    7.78    1.20
  -6   3   2    4.87    0.94
   6  -3  -2    4.52    0.90
  -6   3   2    4.05    0.70
  -5   3   2   20.23    1.10
   5  -3  -2   19.58    1.32
   4  -3  -2   80.59    2.52
   4  -3  -2   83.79    2.56
  -4   3   2   82.55    2.29
   3  -3  -2  146.74    3.55
   3  -3  -2  149.71    3.57
  -3   3   2  148.86    3.41
   2  -3  -2   28.59    1.04
  -2   3   2   30.31    1.02
   2  -3  -2   27.92    1.09
  -1   3   2  696.85   13.06
   1  -3  -2  700.58   13.04
   1  -3  -2  699.90   13.04
   0  -3  -2  570.51   10.46
   0   3   2  550.50   18.81
   0  -3  -2  549.40   10.47
   0   3   2  564.73   10.44
  -1  -3  -2  490.96    8.95
  -1  -3  -2  474.00    9.00
   1   3   2  488.48    8.90
   1   3   2  449.53   16.27
   2   3   2  856.95   15.41
   2   3   2  811.28   28.16
  -2  -3  -2  840.63   15.56
   2   3   2  830.55   15.59
   3   3   2   31.75    2.36
  -3  -3  -2   34.75    1.20
   3   3   2   32.54    0.91
   3   3   2   33.88    1.32
   4   3   2  163.06    4.14
  -4  -3  -2  169.19    4.03
  -4  -3  -2  165.49    3.49
   4   3   2  170.86    7.22
   5   3   2   19.46    1.36
   5   3   2   21.25    2.78
  -5  -3  -2   19.54    1.26
   6   3   2    8.22    2.10
  -6  -3  -2    5.51    0.95
   6   3   2    5.68    0.99
   7   3   2   -0.25    0.56
  -7  -3  -2    0.35    0.76
  -7   4   2   13.13    1.50
   7  -4  -2   12.21    1.42
   6  -4  -2    5.03    0.94
  -6   4   2    2.95    0.75
  -6   4   2    3.75    0.68
   5  -4  -2    4.84    0.84
   5  -4  -2    3.90    0.75
  -5   4   2    3.33    0.59
   4  -4  -2   18.09    1.16
  -4   4   2   18.24    1.00
   4  -4  -2   18.65    1.12
  -3   4   2  739.93   13.93
   3  -4  -2  731.59   13.99
   3  -4  -2  709.79   14.05
   2  -4  -2    7.54    0.59
   2  -4  -2    7.93    0.67
  -2   4   2    6.87    0.53
   1  -4  -2 2733.62   51.69
  -1   4   2 2934.06   50.75
   1  -4  -2 2701.98   52.82
   0   4   2 4225.65   79.69
   0   4   2 4301.19  142.92
   0  -4  -2 4269.21   79.58
   0  -4  -2 4274.35   78.63
  -1  -4  -2 2261.48   40.11
   1   4   2 2191.65   41.58
   1   4   2 2196.41   72.86
  -2  -4  -2  202.34    4.11
   2   4   2  195.71    3.79
   2   4   2  186.86    7.56
   2   4   2  200.67    4.22
  -3  -4  -2  187.18    4.08
   3   4   2  185.88    4.22
   3   4   2  181.05    7.42
   3   4   2  178.32    3.58
   4   4   2   27.70    1.42
  -4  -4  -2   29.09    1.34
   4   4   2   31.24    2.84
   5   4   2    0.00    0.57
   5   4   2   -1.45    1.59
  -5  -4  -2   -0.35    0.51
   6   4   2   20.04    2.81
   6   4   2   17.34    1.41
  -6  -4  -2   17.63    1.39
   7   4   2    5.26    1.02
  -7  -4  -2    4.80    1.04
  -7   5   2    5.31    1.10
   7  -5  -2    3.20    0.95
  -6   5   2    1.07    0.51
   6  -5  -2    0.71    0.63
   5  -5  -2    0.11    0.55
   5  -5  -2   -0.02    0.50
  -5   5   2    0.43    0.44
   4  -5  -2    3.88    0.65
  -4   5   2    3.35    0.54
   4  -5  -2    3.61    0.64
   3  -5  -2  740.02   13.96
  -3   5   2  724.80   13.92
   3  -5  -2  707.94   14.03
  -2   5   2   21.00    0.90
   2  -5  -2   20.27    0.91
   2  -5  -2   20.86    0.97
  -1   5   2 3747.13   68.66
   1  -5  -2 3595.73   69.49
   1  -5  -2 3765.18   68.20
  -1   5   2 3643.98  123.05
   0  -5  -2  166.12    3.53
   0   5   2  156.83    6.22
   0  -5  -2  169.66    3.48
   0   5   2  171.16    3.45
   1   5   2  200.55    3.96
  -1  -5  -2  210.61    4.17
  -1  -5  -2  202.97    4.19
   1   5   2  194.10    7.61
   2   5   2  352.10   12.98
   2   5   2  363.11    7.16
   2   5   2  354.23    6.74
  -2  -5  -2  365.38    7.11
  -3  -5  -2    1.71    0.42
   3   5   2    0.15    1.13
   3   5   2    1.25    0.15
   3   5   2    1.20    0.41
  -4  -5  -2   68.19    2.17
   4   5   2   61.77    2.22
   4   5   2   64.05    4.07
   5   5   2   10.77    2.43
   5   5   2    7.87    1.07
  -5  -5  -2    7.67    0.92
   6   5   2   11.67    1.23
   6   5   2   18.33    2.74
  -6  -5  -2   13.02    1.24
   7   5   2    1.03    0.71
  -7  -5  -2   -0.90    0.65
   7  -6  -2    3.47    0.94
  -7   6   2    3.87    1.00
   6  -6  -2    1.38    0.69
  -6   6   2    1.33    0.56
   6  -6  -2    1.02    0.75
  -5   6   2   79.33    2.57
   5  -6  -2   77.80    2.81
   5  -6  -2   83.55    2.82
  -4   6   2  175.37    4.22
   4  -6  -2  176.39    4.35
   4  -6  -2  171.88    4.38
  -3   6   2   97.08    2.61
   3  -6  -2   97.10    2.71
   3  -6  -2   97.99    2.66
  -2   6   2   11.57    0.71
   2  -6  -2   11.55    0.78
   2  -6  -2   11.21    0.78
  -1   6   2    5.65    0.54
  -1   6   2    7.41    1.12
   1  -6  -2    4.79    0.50
   1  -6  -2    4.50    0.54
   0  -6  -2    5.39    0.56
   0   6   2    9.06    1.50
   0  -6  -2    4.85    0.50
   0   6   2    5.74    0.43
   1   6   2    7.00    1.34
  -1  -6  -2    7.10    0.54
  -1  -6  -2    6.85    0.62
   1   6   2    6.35    0.39
   2   6   2  108.96    5.04
  -2  -6  -2  111.50    2.68
   2   6   2  109.51    2.23
   3   6   2   97.05    2.64
  -3  -6  -2   93.22    2.51
   3   6   2   87.76    4.74
   4   6   2   24.64    1.41
  -4  -6  -2   24.61    1.28
   4   6   2   22.12    2.89
   5   6   2   13.81    2.58
   5   6   2   10.72    1.17
  -5  -6  -2   10.24    1.06
   6   6   2   19.34    2.92
   6   6   2   12.48    1.31
  -6  -6  -2   15.08    1.37
   7   6   2    2.93    0.98
  -7  -6  -2    3.32    0.97
  -7   7   2    1.05    0.67
   7  -7  -2    1.02    0.75
   6  -7  -2    3.60    0.86
   6  -7  -2    4.26    0.88
  -6   7   2    2.32    0.65
   5  -7  -2   21.03    1.39
  -5   7   2   21.27    1.29
   5  -7  -2   19.91    1.43
   4  -7  -2   25.56    1.42
   4  -7  -2   30.63    1.46
  -4   7   2   28.67    1.38
   3  -7  -2    7.76    0.78
  -3   7   2    7.61    0.71
   3  -7  -2    7.56    0.75
   2  -7  -2   49.01    1.61
   2  -7  -2   48.23    1.65
  -2   7   2   50.16    1.61
  -1   7   2   46.57    2.58
   1  -7  -2   45.30    1.48
   1  -7  -2   46.51    1.48
  -1   7   2   46.36    1.45
   0  -7  -2  171.10    3.72
   0   7   2  169.27    3.60
   0   7   2  166.17    6.61
   0  -7  -2  170.06    3.72
   1   7   2   74.96    1.72
  -1  -7  -2   72.34    1.97
   1   7   2   70.88    3.71
  -1  -7  -2   72.22    1.94
   2   7   2   -0.03    0.11
  -2  -7  -2    0.06    0.23
   2   7   2    0.15    0.96
  -2  -7  -2   -0.19    0.30
   3   7   2    6.98    0.74
   3   7   2    6.91    1.76
  -3  -7  -2    6.78    0.69
   4   7   2   16.19    2.74
  -4  -7  -2   10.83    0.97
   4   7   2   10.52    1.09
  -5  -7  -2    0.07    0.51
   5   7   2    2.19    1.77
   5   7   2    0.31    0.60
   6   7   2    1.61    0.78
   6   7   2    3.57    2.15
  -6  -7  -2    0.32    0.68
  -7  -7  -2    4.30    1.03
   7   7   2    2.68    0.97
   7  -8  -2    0.32    0.64
  -7   8   2   -0.13    0.57
   7  -8  -2    0.48    0.88
   6  -8  -2   11.39    1.31
   6  -8  -2   10.65    1.20
  -6   8   2    8.77    0.98
   5  -8  -2   -0.29    0.45
   5  -8  -2   -0.09    0.43
  -5   8   2   -0.12    0.43
  -4   8   2   27.99    1.42
   4  -8  -2   32.82    1.50
   4  -8  -2   29.37    1.50
  -3   8   2   -0.10    0.30
   3  -8  -2    0.07    0.39
   3  -8  -2   -0.30    0.33
   2  -8  -2 2276.16   41.18
  -2   8   2 2232.64   41.55
   2  -8  -2 2273.94   41.68
   1  -8  -2  450.65    9.11
   1  -8  -2  473.61    9.28
  -1   8   2  466.71   16.22
  -1   8   2  477.58    9.22
   0   8   2   86.88    4.16
   0   8   2   87.53    2.18
   0  -8  -2   88.01    2.31
   0  -8  -2   90.54    2.30
  -1  -8  -2  101.88    2.53
   1   8   2  103.65    2.30
  -1  -8  -2  100.17    2.57
   1   8   2   95.11    4.79
   2   8   2   68.74    4.05
  -2  -8  -2   72.73    2.10
   2   8   2   69.09    1.57
  -2  -8  -2   69.90    2.06
   3   8   2   61.76    4.02
  -3  -8  -2   58.77    1.99
   4   8   2  113.93    5.95
   4   8   2  108.59    3.22
  -4  -8  -2  103.88    3.09
   5   8   2   71.42    4.70
  -5  -8  -2   64.06    2.43
   5   8   2   63.18    2.56
   6   8   2    2.44    2.23
   6   8   2    0.84    0.74
  -6  -8  -2    0.26    0.72
   7   8   2    0.56    0.87
  -7  -8  -2    0.56    0.89
   7  -9  -2    0.56    0.83
   7  -9  -2    1.45    0.77
  -7   9   2    0.86    0.66
   6  -9  -2    3.61    0.97
   6  -9  -2    2.61    0.79
  -6   9   2    1.72    0.69
  -5   9   2    5.21    0.77
   5  -9  -2    6.50    0.96
   5  -9  -2    6.55    0.90
  -4   9   2   22.19    1.33
   4  -9  -2   27.31    1.51
   4  -9  -2   24.05    1.34
   3  -9  -2   25.32    1.35
  -3   9   2   25.11    1.27
   3  -9  -2   29.14    1.31
  -2   9   2  160.27    6.09
   2  -9  -2  149.02    3.57
  -2   9   2  141.90    3.63
   2  -9  -2  153.70    3.75
  -1   9   2   71.96    2.05
   1  -9  -2   68.36    2.02
   1  -9  -2   72.07    2.13
  -1   9   2   72.60    3.69
   0   9   2   62.49    3.52
   0   9   2   68.32    1.82
   0  -9  -2   65.41    1.91
   0  -9  -2   63.44    1.94
  -1  -9  -2   16.04    0.99
   1   9   2   16.08    0.72
   1   9   2   14.96    2.24
  -1  -9  -2   18.08    0.92
   2   9   2   93.56    2.08
   2   9   2   92.20    5.05
  -2  -9  -2   95.45    2.60
  -2  -9  -2   98.78    2.71
  -3  -9  -2   -0.02    0.45
  -3  -9  -2    0.51    0.36
   3   9   2   -0.46    1.37
   4   9   2   44.38    1.94
  -4  -9  -2   42.48    1.91
   4   9   2   48.09    4.00
   5   9   2    1.07    1.90
  -5  -9  -2   -0.19    0.63
   5   9   2    0.61    0.64
  -6  -9  -2   -0.81    0.57
   6   9   2   -2.01    1.95
   6   9   2   -0.40    0.68
  -7  -9  -2   -0.51    0.77
   7   9   2    2.36    2.30
   7   9   2   -0.62    0.75
   7 -10  -2    3.77    1.12
  -7  10   2    2.88    0.85
   6 -10  -2    0.92    0.81
  -6  10   2    0.70    0.60
   6 -10  -2    0.63    0.63
   5 -10  -2    5.90    0.88
   5 -10  -2    6.28    0.98
  -5  10   2    4.44    0.80
   4 -10  -2   23.58    1.35
   4 -10  -2   28.44    1.60
  -4  10   2   25.39    1.46
   3 -10  -2   23.97    1.38
   3 -10  -2   26.03    1.29
  -3  10   2   27.28    1.33
   2 -10  -2   41.35    1.54
  -2  10   2   38.09    1.54
   2 -10  -2   39.27    1.63
  -2  10   2   43.17    2.78
  -1  10   2   -0.52    1.29
  -1  10   2    0.26    0.29
   1 -10  -2    0.27    0.41
   1 -10  -2   -0.05    0.38
   0  10   2   10.36    1.91
   0 -10  -2    7.95    0.80
   0 -10  -2    8.24    0.78
   0  10   2    8.11    0.62
  -1 -10  -2  292.91    6.12
   1  10   2  287.94   11.24
   1  10   2  294.93    5.88
  -1 -10  -2  287.29    6.26
  -2 -10  -2   53.59    1.79
   2  10   2   45.77    3.61
  -2 -10  -2   52.56    1.91
  -3 -10  -2   80.74    2.59
  -3 -10  -2   71.90    2.45
   3  10   2   88.66    5.03
   4  10   2   -0.17    1.94
  -4 -10  -2    1.10    0.69
   5  10   2    0.52    0.62
   5  10   2   -1.30    1.79
  -5 -10  -2    0.02    0.66
   6  10   2   -0.18    0.70
   6  10   2   -2.01    2.11
  -6 -10  -2    0.54    0.76
   7  10   2    4.56    1.15
  -7 -10  -2    2.83    1.13
   7  10   2    5.95    2.57
  -6  11   2    2.30    0.74
   6 -11  -2    2.23    0.92
   5 -11  -2    8.67    1.12
   5 -11  -2    9.84    1.06
  -5  11   2    8.22    0.97
   4 -11  -2    6.33    0.83
  -4  11   2    6.32    0.85
   4 -11  -2    6.79    0.94
   3 -11  -2   58.23    2.03
   3 -11  -2   57.12    2.20
  -3  11   2   61.63    2.15
   2 -11  -2    0.95    0.49
  -2  11   2    1.23    1.40
   2 -11  -2    1.07    0.53
  -2  11   2    0.98    0.43
  -1  11   2    0.59    0.34
   1 -11  -2    0.24    0.45
   1 -11  -2    0.65    0.48
  -1  11   2    0.14    1.47
   0  11   2  111.24    2.82
   0 -11  -2  114.49    2.94
   0  11   2  114.37    5.44
   0 -11  -2  112.28    3.06
  -1 -11  -2   82.13    2.37
   1  11   2   84.33    4.71
   1  11   2   82.50    2.16
  -1 -11  -2   85.05    2.54
   2  11   2   -0.27    1.60
  -2 -11  -2    0.83    0.41
  -2 -11  -2    1.06    0.57
   3  11   2   85.39    5.18
  -3 -11  -2   77.92    2.70
  -3 -11  -2   81.15    2.60
  -4 -11  -2    3.50    0.70
  -4 -11  -2    3.91    0.89
   4  11   2    5.50    2.36
  -5 -11  -2    2.86    0.79
   5  11   2    2.94    2.34
   6  11   2    0.62    2.24
   6  11   2   -0.51    0.73
  -6 -11  -2    0.54    0.76
  -6  12   2    1.91    0.78
   6 -12  -2    3.84    1.02
  -5  12   2    3.51    0.82
   5 -12  -2    3.14    0.85
   4 -12  -2   -0.16    0.56
  -4  12   2   -0.04    0.48
   3 -12  -2   42.60    1.75
   3 -12  -2   43.87    1.95
  -3  12   2   44.87    1.85
  -2  12   2  147.49    3.77
   2 -12  -2  144.44    3.58
   2 -12  -2  145.04    3.87
  -1  12   2   34.45    1.43
   1 -12  -2   33.72    1.45
   1 -12  -2   34.36    1.58
  -1  12   2   36.27    2.99
   0 -12  -2   25.99    1.40
   0  12   2   24.56    1.13
   0  12   2   29.51    2.77
   0 -12  -2   27.53    1.34
  -1 -12  -2   39.54    1.57
   1  12   2   40.29    3.47
   1  12   2   39.74    1.37
  -1 -12  -2   38.46    1.72
  -2 -12  -2    6.43    0.94
  -2 -12  -2    7.62    0.80
   2  12   2    8.71    2.39
  -3 -12  -2   59.75    2.20
  -3 -12  -2   55.27    2.29
   3  12   2   60.72    4.60
  -4 -12  -2    1.18    0.70
   4  12   2    1.73    2.22
  -4 -12  -2    1.53    0.53
   5  12   2    1.06    1.91
  -5 -12  -2    1.42    0.76
  -5 -12  -2    1.81    0.63
  -6 -12  -2   -0.61    0.78
   6  12   2    0.65    2.27
  -6 -12  -2    0.86    0.47
   6 -13  -2    2.03    0.96
  -6  13   2    0.46    0.63
   5 -13  -2   -0.25    0.68
  -5  13   2    0.67    0.64
   4 -13  -2   17.39    1.40
  -4  13   2   16.66    1.30
   3 -13  -2    4.92    0.86
  -3  13   2    4.35    0.75
  -2  13   2    3.03    0.61
   2 -13  -2    3.55    0.77
   1 -13  -2   -0.05    0.50
  -1  13   2   -0.41    1.58
  -1  13   2   -0.29    0.33
   1 -13  -2   -0.07    0.51
   0 -13  -2   95.05    2.99
   0 -13  -2  103.42    2.88
   0  13   2  107.00    5.39
   0  13   2   99.32    2.72
  -1 -13  -2   33.20    1.67
   1  13   2   35.10    1.32
  -1 -13  -2   36.10    1.55
   1  13   2   34.70    3.46
  -2 -13  -2    1.78    0.81
  -2 -13  -2    1.74    0.54
   2  13   2    1.80    2.01
  -3 -13  -2   45.08    2.16
   3  13   2   56.79    4.66
  -3 -13  -2   51.02    2.06
  -4 -13  -2    0.36    0.46
   4  13   2   -2.07    1.84
  -4 -13  -2    0.64    0.75
  -5 -13  -2    3.09    0.75
   5  13   2    1.85    2.33
  -5 -13  -2    0.98    0.80
  -6 -13  -2   -0.12    0.89
   6  13   2    1.39    2.07
  -6 -13  -2    1.88    0.57
   6 -14  -2    0.32    0.88
  -6  14   2    1.76    0.81
  -5  14   2    0.39    0.62
   5 -14  -2    1.07    0.81
   4 -14  -2   23.80    1.62
  -4  14   2   23.61    1.51
   3 -14  -2   22.95    1.52
  -3  14   2   22.44    1.39
  -2  14   2   21.67    1.25
   2 -14  -2   23.07    1.46
  -1  14   2    4.66    1.92
  -1  14   2    2.72    0.56
   1 -14  -2    3.11    0.77
   0 -14  -2    8.98    0.94
   0 -14  -2    8.13    0.99
   0  14   2    7.67    0.74
   0  14   2   11.57    2.46
  -1 -14  -2   14.06    1.11
  -1 -14  -2   11.55    1.21
   1  14   2   15.82    2.94
  -2 -14  -2   25.69    1.39
   2  14   2   26.42    3.38
  -2 -14  -2   22.78    1.62
  -3 -14  -2   30.20    1.60
  -3 -14  -2   27.48    1.72
   3  14   2   32.84    3.97
   4  14   2   -1.75    1.81
  -4 -14  -2    2.66    0.86
  -4 -14  -2    1.23    0.58
   5  14   2    1.52    2.05
  -5 -14  -2    1.23    0.60
  -5 -14  -2    0.46    0.82
  -6 -14  -2    2.30    0.66
  -6 -14  -2    0.55    0.93
   6  14   2    1.60    2.04
  -5  15   2    8.31    1.16
   5 -15  -2    8.08    1.24
  -4  15   2    3.27    0.77
   4 -15  -2    3.91    0.90
   3 -15  -2   12.39    1.23
  -3  15   2   12.02    1.05
  -2  15   2    7.35    0.84
   2 -15  -2    6.64    0.97
  -1  15   2    5.30    2.05
  -1  15   2    2.56    0.57
   1 -15  -2    3.67    0.80
   0  15   2    1.79    0.43
   0  15   2    3.73    2.10
   0 -15  -2    1.83    0.73
   1  15   2   63.18    4.61
  -1 -15  -2   59.52    2.43
   2  15   2    2.63    2.38
  -2 -15  -2    0.13    0.72
  -2 -15  -2    0.61    0.52
   3  15   2    2.15    2.53
  -3 -15  -2    0.97    0.56
  -3 -15  -2    0.80    0.79
  -4 -15  -2    0.16    0.83
  -4 -15  -2   -0.31    0.46
   4  15   2    0.11    2.16
  -5 -15  -2    6.89    1.29
   5  15   2    3.76    2.20
  -5 -15  -2    6.24    1.02
   5 -16  -2    1.82    0.94
  -5  16   2    2.04    0.83
   4 -16  -2    2.42    0.86
  -4  16   2    1.83    0.64
  -3  16   2    9.79    1.07
   3 -16  -2   11.64    1.27
   2 -16  -2   17.52    1.37
  -2  16   2   17.15    1.23
  -1  16   2    0.60    1.70
  -1  16   2    0.12    0.41
   1 -16  -2    0.05    0.63
   0  16   2    2.59    2.10
   0 -16  -2    2.35    0.81
   0  16   2    1.82    0.50
  -1 -16  -2   26.27    1.68
   1  16   2   27.16    3.51
   2  16   2   49.98    4.45
  -2 -16  -2   42.74    2.18
   3  16   2    1.30    2.52
  -3 -16  -2    0.07    0.77
   4  16   2    0.54    2.05
  -4 -16  -2    0.20    0.81
  -4 -16  -2    1.02    0.61
   5  16   2    0.31    2.03
  -5 -16  -2    0.57    0.98
  -5 -16  -2   -0.15    0.52
  -5  17   2    4.05    0.92
   5 -17  -2    5.64    1.21
   4 -17  -2    0.55    0.78
  -4  17   2    0.86    0.64
  -3  17   2    0.58    0.56
   3 -17  -2    1.03    0.77
  -2  17   2    1.22    0.59
   2 -17  -2    1.11    0.72
   1 -17  -2    3.39    0.94
  -1  17   2    3.54    0.66
   0 -17  -2   42.77    2.12
   0  17   2   40.62    1.74
   0  17   2   48.25    4.15
   1  17   2    0.04    2.22
  -1 -17  -2    0.68    0.75
  -2 -17  -2   15.65    1.45
   2  17   2   20.86    3.61
   3  17   2   -0.34    2.50
  -3 -17  -2    0.07    0.83
   4  17   2    3.62    2.79
  -4 -17  -2    5.20    1.17
   5  17   2    0.57    2.11
   4 -18  -2    0.26    0.74
  -4  18   2    0.34    0.55
   3 -18  -2    5.69    1.08
  -3  18   2    6.11    0.94
  -2  18   2    2.66    0.70
   2 -18  -2    3.62    0.97
  -1  18   2    0.92    0.49
   1 -18  -2   -0.14    0.69
   0  18   2    2.08    2.33
   0 -18  -2   -0.70    0.73
  -1 -18  -2    0.02    0.76
   1  18   2   -0.31    2.36
  -2 -18  -2    4.50    1.05
   2  18   2    3.70    2.75
  -3 -18  -2    5.54    1.17
   3  18   2    5.53    3.13
   4  18   2    0.98    2.73
  -4 -18  -2   -0.69    0.89
  -4  19   2    0.88    0.62
   3 -19  -2   -0.12    0.76
  -3  19   2   -0.03    0.36
   2 -19  -2    1.58    0.89
  -2  19   2    2.28    0.67
   1 -19  -2    1.27    0.86
  -1  19   2    2.24    0.62
   0 -19  -2    2.46    0.95
   0  19   2    5.80    2.65
   1  19   2    1.24    2.43
  -1 -19  -2    0.52    0.80
   2  19   2    2.62    2.88
  -2 -19  -2    1.34    0.91
  -3 -19  -2    0.74    0.94
   3  19   2    1.00    2.90
   3 -20  -2    0.07    0.76
  -3  20   2   -0.29    0.44
  -2  20   2    0.47    0.51
   2 -20  -2    1.43    0.88
   1 -20  -2    0.41    0.79
   0 -20  -2    0.08    0.81
   0  20   2    1.36    2.52
  -1 -20  -2    7.48    1.30
   1  20   2   13.27    3.46
   2  20   2    1.56    3.00
  -2 -20  -2    0.53    0.99
   3  20   2    0.41    2.69
  -3 -20  -2   -0.35    0.87
   2 -21  -2    0.64    0.95
  -2  21   2    1.67    0.65
   1 -21  -2    7.38    1.27
   0 -21  -2    1.04    0.90
   1  21   2    1.94    2.96
  -1 -21  -2    2.34    1.00
   2  21   2    3.06    3.22
  -2 -21  -2    0.79    0.95
   1  21  -3    0.88    2.67
  -1 -21   3    0.52    0.93
   0  21  -3    1.29    2.89
   0 -21   3    2.63    1.11
   1 -21   3    5.64    1.24
  -3 -20   3    1.33    1.11
   3  20  -3    2.89    3.04
  -2 -20   3   -0.28    0.94
   2  20  -3    0.12    2.71
   1  20  -3    6.66    3.35
  -1 -20   3    5.09    1.24
   0 -20   3    1.16    0.99
   0  20  -3    1.57    2.85
  -1  20  -3    1.26    0.67
   1 -20   3    0.91    0.78
  -1  20  -3    0.64    3.02
  -2  20  -3   -0.27    0.50
   2 -20   3    1.00    0.81
  -3  20  -3    0.01    0.58
   3  19  -3   -0.52    2.72
  -3 -19   3    0.17    1.02
   2  19  -3    1.10    2.38
  -2 -19   3    0.86    1.00
   1  19  -3   19.99    3.91
  -1 -19   3   14.39    1.63
   0 -19   3    1.07    0.93
   0  19  -3   -0.26    2.35
  -1  19  -3    3.95    3.12
  -1  19  -3    2.39    0.72
   1 -19   3    2.40    0.90
   2 -19   3    0.56    0.73
  -2  19  -3    0.49    0.58
   3 -19   3    0.07    0.63
  -3  19  -3   -0.22    0.45
  -4 -18   3    1.45    1.11
   4  18  -3    2.10    2.24
  -3 -18   3    0.32    0.96
   3  18  -3    0.46    2.06
  -2 -18   3    3.51    1.12
   2  18  -3    8.79    3.33
  -1 -18   3    2.25    0.99
   1  18  -3    4.13    2.81
   0 -18   3    9.37    1.28
   0  18  -3   15.57    3.73
  -1  18  -3    2.18    0.65
   1 -18   3    2.15    0.85
  -1  18  -3   -0.08    2.63
   2 -18   3    8.84    1.23
  -2  18  -3   10.25    1.15
   3 -18   3   -0.05    0.61
  -3  18  -3   -0.11    0.50
  -4  18  -3    3.24    0.88
   4 -18   3    4.58    0.99
   4  17  -3    1.16    1.90
  -4 -17   3   -0.30    0.92
   3  17  -3    4.11    2.20
  -3 -17   3    3.11    1.11
  -2 -17   3   12.82    1.50
   2  17  -3   18.01    3.53
   1  17  -3   -0.66    2.11
  -1 -17   3    0.09    0.73
   0 -17   3   14.67    1.42
   0  17  -3   21.39    3.91
   0  17  -3   16.63    1.17
  -1  17  -3    1.47    0.59
   1 -17   3    1.30    0.79
  -1  17  -3    0.91    2.45
  -2  17  -3   16.07    1.35
   2 -17   3   14.43    1.40
   3 -17   3    0.79    0.74
  -3  17  -3    1.09    0.69
   4 -17   3    4.08    0.96
  -4  17  -3    5.54    1.02
   5  16  -3    4.27    2.45
  -5 -16   3    1.19    1.08
  -4 -16   3    2.78    1.13
   4  16  -3    2.63    2.21
  -3 -16   3    1.21    0.96
   3  16  -3    3.77    2.28
   2  16  -3    4.17    2.60
  -2 -16   3    1.91    0.97
  -1 -16   3    5.97    1.09
   1  16  -3    6.45    2.75
   0  16  -3    0.31    0.44
   0  16  -3    2.38    2.57
   0 -16   3    0.64    0.70
  -1  16  -3   -0.20    0.39
  -1  16  -3   -0.27    2.15
   1 -16   3    0.48    0.67
  -2  16  -3   13.72    3.05
   2 -16   3   22.05    1.57
  -2  16  -3   18.36    1.32
  -3  16  -3    1.42    0.64
   3 -16   3    1.60    0.70
   4 -16   3    5.79    1.03
  -4  16  -3    4.24    0.90
  -5  16  -3    1.43    0.94
   5 -16   3    2.23    0.86
  -5 -15   3   -0.69    0.90
   5  15  -3    0.86    1.97
  -4 -15   3    7.50    1.28
   4  15  -3    4.62    2.19
   3  15  -3    0.79    1.85
  -3 -15   3    0.97    0.90
  -2 -15   3    2.89    1.01
   2  15  -3    3.62    2.29
  -1 -15   3    3.04    0.88
   1  15  -3    4.43    2.65
   0 -15   3   22.65    1.56
   0  15  -3   20.95    3.55
   0  15  -3   21.65    1.26
  -1  15  -3    3.81    2.68
   1 -15   3    1.25    0.72
  -1  15  -3    3.07    0.63
  -2  15  -3   23.01    1.43
  -2  15  -3   21.10    3.09
   2 -15   3   17.03    1.39
  -3  15  -3   -0.39    0.44
   3 -15   3   -0.01    0.58
   4 -15   3    3.06    0.87
  -4  15  -3    1.75    0.71
   5 -15   3    0.87    0.67
  -5  15  -3   -0.31    0.72
   6  14  -3    5.00    2.46
  -6 -14   3    0.24    0.95
   5  14  -3    2.24    2.17
  -5 -14   3    1.51    0.95
  -4 -14   3   -0.17    0.79
   4  14  -3    0.03    1.70
  -3 -14   3   44.15    2.33
   3  14  -3   46.92    4.27
  -2 -14   3    5.20    1.10
   2  14  -3    7.28    2.78
   1  14  -3   22.07    3.80
   1  14  -3   21.12    1.12
  -1 -14   3   18.73    1.50
   0 -14   3    6.95    0.96
   0  14  -3    5.79    0.71
   0  14  -3    8.76    2.73
  -1  14  -3    0.10    0.37
  -1  14  -3    1.95    2.50
   1 -14   3   -0.35    0.51
  -2  14  -3    3.54    0.68
  -2  14  -3    2.40    1.68
   2 -14   3    5.70    0.90
  -3  14  -3   24.44    1.56
   3 -14   3   24.89    1.59
  -4  14  -3    0.08    0.54
   4 -14   3   -0.68    0.51
   5 -14   3    0.50    0.63
  -5  14  -3    0.83    0.77
  -6  14  -3   -0.86    0.70
   6  13  -3    7.53    2.37
   6  13  -3    7.86    1.24
  -6 -13   3    6.58    1.40
   5  13  -3    3.13    0.85
  -5 -13   3    2.72    0.99
   5  13  -3    4.15    2.18
  -4 -13   3    7.69    1.18
   4  13  -3    3.52    2.07
  -3 -13   3   50.07    2.37
   3  13  -3   48.90    4.32
   2  13  -3   32.72    3.79
  -2 -13   3   29.35    1.85
   1  13  -3   68.66    2.07
  -1 -13   3   66.24    2.56
   1  13  -3   69.50    5.10
   0  13  -3   31.35    1.40
   0  13  -3   40.72    4.50
   0 -13   3   33.84    1.77
  -1  13  -3    6.94    0.76
   1 -13   3    6.19    0.93
   2 -13   3   20.73    1.39
  -2  13  -3   18.14    1.21
   3 -13   3    1.05    0.64
  -3  13  -3   -0.29    0.53
  -4  13  -3    9.12    1.13
   4 -13   3    9.35    1.14
  -5  13  -3    0.67    0.72
   5 -13   3   -0.01    0.60
  -6  13  -3    1.24    0.77
   6 -13   3    0.08    0.64
   6  12  -3    5.37    1.10
   6  12  -3    6.21    2.55
  -6 -12   3    4.95    1.22
   5  12  -3    7.08    2.44
  -5 -12   3    5.53    1.10
   5  12  -3    6.91    1.03
  -4 -12   3    0.64    0.77
   4  12  -3    2.16    0.67
   4  12  -3    1.30    1.66
   3  12  -3   61.87    4.69
  -3 -12   3   60.44    2.54
   3  12  -3   59.08    2.01
  -2 -12   3    0.73    0.73
   2  12  -3    0.95    1.95
   1  12  -3   -0.12    1.90
  -1 -12   3    0.50    0.58
  -1 -12   3   -0.20    0.32
   0 -12   3   90.05    2.58
   0  12  -3   91.98    6.23
   0 -12   3   86.82    2.82
  -1  12  -3    2.70    0.54
  -1  12  -3    2.01    2.21
   1 -12   3    4.20    0.77
   2 -12   3    2.51    0.68
  -2  12  -3    2.54    0.55
  -2  12  -3    1.10    1.83
  -3  12  -3   36.24    4.31
   3 -12   3   34.18    1.78
  -3  12  -3   35.35    1.75
   4 -12   3    4.08    0.83
  -4  12  -3    3.39    0.79
   5 -12   3    0.68    0.66
  -5  12  -3    1.04    0.73
  -6  12  -3    0.96    0.73
   6 -12   3    1.78    0.70
  -6 -11   3   10.62    1.45
   6  11  -3    8.73    2.62
   6  11  -3   11.16    1.34
  -5 -11   3    7.45    1.14
   5  11  -3    8.54    2.52
   5  11  -3    7.90    1.07
   4  11  -3    0.02    0.52
  -4 -11   3    0.25    0.66
   3  11  -3   -0.10    1.49
   3  11  -3   -0.35    0.41
  -3 -11   3   -0.03    0.69
   2  11  -3   21.65    3.15
   2  11  -3   19.67    0.98
  -2 -11   3   21.14    1.47
   1  11  -3   36.78    3.68
  -1 -11   3   35.98    1.32
  -1 -11   3   34.46    1.71
   0 -11   3  115.33    3.06
   0 -11   3  116.77    3.34
   0  11  -3  124.25    6.31
   1 -11   3   42.01    1.79
   1 -11   3   41.78    1.64
  -2  11  -3    5.43    2.26
   2 -11   3    9.32    0.98
  -3  11  -3   25.22    3.59
  -3  11  -3   15.58    1.13
   3 -11   3   16.41    1.27
  -4  11  -3   21.21    1.44
   4 -11   3   20.34    1.44
   5 -11   3    9.11    1.14
  -5  11  -3    9.62    1.12
   6 -11   3    3.16    0.89
  -6  11  -3    2.71    0.87
  -7 -10   3    1.14    0.99
   7  10  -3    0.52    0.92
  -6 -10   3   -0.19    0.77
   6  10  -3    0.07    2.00
   6  10  -3    0.11    0.69
  -5 -10   3    3.67    0.94
   5  10  -3    4.57    2.08
   5  10  -3    3.81    0.85
  -4 -10   3   10.31    1.14
   4  10  -3    9.46    1.01
   3  10  -3   54.85    1.90
   3  10  -3   56.62    4.27
  -3 -10   3   53.54    2.20
   2  10  -3    2.06    0.44
   2  10  -3    2.62    1.78
  -2 -10   3    2.15    0.64
  -2 -10   3    1.83    0.37
  -1 -10   3    5.58    0.59
  -1 -10   3    6.88    0.85
   1  10  -3   10.91    2.50
   0 -10   3    4.10    0.68
   0 -10   3    4.39    0.52
   0  10  -3    5.37    2.54
   1 -10   3   17.93    1.11
   1 -10   3   20.75    1.11
   2 -10   3   13.41    1.05
   2 -10   3   12.59    0.99
   3 -10   3   89.83    2.88
  -3  10  -3   89.02    2.78
  -4  10  -3    5.57    0.85
   4 -10   3    7.10    0.93
   5 -10   3    0.74    0.64
  -5  10  -3    0.40    0.59
  -6  10  -3    2.17    0.78
   6 -10   3    1.73    0.77
  -7  10  -3   -0.16    0.71
  -7  -9   3    4.91    1.26
   7   9  -3    5.69    1.29
   6   9  -3   10.61    2.80
   6   9  -3    7.39    1.18
  -6  -9   3    7.36    1.20
  -5  -9   3   32.44    1.89
   5   9  -3   34.26    1.82
   5   9  -3   41.46    3.60
   4   9  -3   21.50    1.32
  -4  -9   3   22.51    1.44
  -3  -9   3    1.09    0.55
   3   9  -3    0.94    0.43
   3   9  -3    0.74    1.36
   2   9  -3  434.50    8.48
  -2  -9   3  426.12    8.33
   2   9  -3  429.52   16.27
  -2  -9   3  437.65    9.07
  -1  -9   3  712.94   13.89
   1   9  -3  704.65   13.06
  -1  -9   3  698.37   13.38
   1   9  -3  708.31   25.08
   0  -9   3   27.48    1.34
   0  -9   3   31.55    1.19
   1  -9   3  424.97    8.70
   1  -9   3  431.22    8.84
   2  -9   3    8.09    0.79
   2  -9   3    8.02    0.77
  -3   9  -3    9.37    0.84
  -3   9  -3    9.94    2.82
   3  -9   3    9.46    0.97
   4  -9   3    2.44    0.69
  -4   9  -3    2.05    0.62
   5  -9   3   54.21    2.33
  -5   9  -3   53.22    2.23
   6  -9   3    0.40    0.60
  -6   9  -3    0.51    0.60
   7  -9   3    1.08    0.71
  -7   9  -3    0.02    0.74
   7   8  -3    1.47    1.01
  -7  -8   3    2.20    1.11
   6   8  -3    2.36    0.85
  -6  -8   3    4.41    0.97
   5   8  -3    0.10    0.55
   5   8  -3    0.69    1.81
  -5  -8   3   -0.51    0.56
  -4  -8   3   10.07    0.99
   4   8  -3    9.76    1.00
   3   8  -3   28.37    1.28
  -3  -8   3   27.20    1.41
   3   8  -3   27.69    2.94
   2   8  -3  907.31   32.34
  -2  -8   3  939.07   18.02
  -2  -8   3  970.10   17.40
   2   8  -3  928.34   17.42
   1   8  -3  105.98    2.32
  -1  -8   3  107.20    2.88
   1   8  -3  103.51    5.25
  -1  -8   3  107.93    2.52
   0  -8   3   55.78    1.66
   0  -8   3   54.90    1.82
  -1   8  -3    0.70    1.62
   1  -8   3    0.92    0.43
   1  -8   3    1.73    0.38
   2  -8   3    9.26    0.78
   2  -8   3    8.78    0.79
  -2   8  -3    6.05    2.44
   2  -8   3    9.65    0.46
   3  -8   3   17.53    1.12
   3  -8   3   16.77    0.82
  -4   8  -3   19.88    1.24
   4  -8   3   19.79    1.32
   5  -8   3   -0.23    0.53
  -5   8  -3    0.76    0.52
  -6   8  -3    2.51    0.73
   6  -8   3    0.85    0.66
   7  -8   3    1.89    0.78
  -7   8  -3    0.74    0.73
  -7  -7   3   -0.64    0.82
   7   7  -3    1.09    0.93
   6   7  -3   20.44    1.61
  -6  -7   3   20.95    1.62
   5   7  -3    4.52    0.87
   5   7  -3    4.26    2.12
  -5  -7   3    3.63    0.82
  -4  -7   3   44.56    1.87
   4   7  -3   37.43    1.71
  -3  -7   3   10.31    0.90
   3   7  -3   11.24    2.09
   3   7  -3   10.50    0.82
  -2  -7   3   61.73    1.99
   2   7  -3   62.28    1.76
  -2  -7   3   63.20    1.56
   2   7  -3   57.76    3.75
   1   7  -3  859.58   15.95
  -1  -7   3  876.66   16.59
   1   7  -3  865.94   29.97
  -1  -7   3  872.21   16.20
   0  -7   3 1905.86   35.55
   0  -7   3 1951.76   35.37
   1  -7   3   29.79    1.24
   1  -7   3   31.41    1.20
   2  -7   3    0.00    0.25
   2  -7   3    0.34    0.17
  -2   7  -3   -0.64    1.07
   2  -7   3    0.60    0.35
   3  -7   3  104.93    2.96
   3  -7   3  103.65    2.51
   3  -7   3  108.67    2.98
  -4   7  -3   76.87    2.52
   4  -7   3   80.75    2.29
   4  -7   3   78.44    2.59
  -5   7  -3    1.36    0.53
   5  -7   3    0.87    0.57
   5  -7   3    0.88    0.52
   6  -7   3   20.61    1.56
  -6   7  -3   19.99    1.43
   7  -7   3    0.93    0.69
  -7  -6   3    8.33    1.39
   7   6  -3    7.84    1.32
   6   6  -3    9.03    1.23
  -6  -6   3    8.80    1.19
   5   6  -3    5.81    2.10
  -5  -6   3    3.35    0.84
   5   6  -3    3.33    0.80
   4   6  -3   23.76    1.36
  -4  -6   3   24.88    1.36
  -3  -6   3    0.86    0.42
   3   6  -3    0.86    0.39
   3   6  -3    0.34    1.06
  -3  -6   3    0.88    0.21
   2   6  -3  240.27    4.99
  -2  -6   3  246.40    4.74
   2   6  -3  227.46    9.35
  -2  -6   3  243.68    5.24
  -1  -6   3  733.89   13.44
   1   6  -3  723.51   13.26
  -1  -6   3  695.23   13.71
   0  -6   3   10.05    0.60
   0  -6   3    8.69    0.70
   1  -6   3   52.70    1.58
   1  -6   3   52.11    1.62
   2  -6   3    4.21    0.52
   2  -6   3    4.05    0.51
   2  -6   3    4.69    0.39
   3  -6   3  197.21    4.54
   3  -6   3  187.50    4.49
   3  -6   3  192.86    4.11
  -4   6  -3    5.99    0.72
   4  -6   3    7.75    0.76
   4  -6   3    6.84    0.81
   5  -6   3    4.89    0.81
  -5   6  -3    5.87    0.78
   5  -6   3    7.24    0.84
   6  -6   3    0.83    0.66
  -6   6  -3    1.26    0.62
   6  -6   3    0.73    0.58
  -7  -5   3   -0.43    0.86
   7   5  -3    0.32    0.82
   6   5  -3   19.96    1.55
  -6  -5   3   18.50    1.54
   5   5  -3  176.47    7.57
  -5  -5   3  157.04    4.44
   5   5  -3  158.79    4.48
   4   5  -3   28.36    2.63
   4   5  -3   26.48    1.42
  -4  -5   3   26.92    1.40
  -3  -5   3    6.12    0.44
   3   5  -3    5.15    0.62
   3   5  -3    6.14    1.39
  -3  -5   3    4.21    0.61
   2   5  -3   26.85    2.42
   2   5  -3   27.04    1.07
  -2  -5   3   27.68    1.15
  -2  -5   3   27.76    0.86
   1   5  -3   51.15    1.31
  -1  -5   3   51.65    1.56
  -1  -5   3   51.54    1.34
   0  -5   3  153.46    3.41
   0  -5   3  155.39    3.33
   1  -5   3 1390.39   25.27
  -1   5  -3 1316.93   25.09
   1  -5   3 1386.31   25.24
  -2   5  -3    0.03    0.68
   2  -5   3    0.30    0.24
   2  -5   3    1.11    0.32
   2  -5   3    0.03    0.17
   3  -5   3   44.48    1.42
   3  -5   3   45.71    1.64
   3  -5   3   46.99    1.64
  -4   5  -3    6.04    0.66
   4  -5   3    4.74    0.70
   4  -5   3    6.52    0.71
   5  -5   3   22.66    1.31
  -5   5  -3   21.74    1.29
   5  -5   3   26.20    1.53
   6  -5   3   11.42    1.24
  -6   5  -3   10.51    1.06
   6  -5   3   11.30    1.11
   7  -5   3    0.12    0.57
  -7   5  -3    0.65    0.86
   7   4  -3    9.67    1.41
  -7  -4   3    9.08    1.33
  -6  -4   3    6.92    1.07
   6   4  -3    5.20    1.02
  -5  -4   3    2.12    0.64
   5   4  -3    2.36    1.61
   5   4  -3    1.68    0.70
  -4  -4   3   15.28    1.06
   4   4  -3   19.02    1.20
   4   4  -3   19.11    2.13
   3   4  -3  660.23   12.66
  -3  -4   3  666.63   12.20
   3   4  -3  624.04   22.54
  -3  -4   3  654.67   12.73
  -2  -4   3 1916.71   35.15
  -2  -4   3 1904.83   35.01
   2   4  -3 1876.94   63.25
   2   4  -3 1943.03   34.80
   1   4  -3    0.20    1.10
   1   4  -3    0.41    0.20
  -1  -4   3    0.09    0.16
   0   4  -3  121.34    2.41
   0  -4   3  124.76    2.69
   0  -4   3  119.88    2.72
   1  -4   3  288.39    5.76
   1  -4   3  285.40    5.81
  -1   4  -3  290.82    5.44
   2  -4   3   19.72    0.90
   2  -4   3   18.81    0.86
   2  -4   3   19.92    0.73
   3  -4   3   77.70    2.06
   3  -4   3   78.73    2.22
   3  -4   3   75.26    2.20
   4  -4   3  172.08    4.25
   4  -4   3  162.30    6.98
   4  -4   3  175.39    4.04
  -5   4  -3   19.96    1.18
   5  -4   3   18.23    1.31
   5  -4   3   18.52    1.23
   6  -4   3    1.56    0.76
  -6   4  -3    2.18    0.66
   6  -4   3    2.04    0.69
   7  -4   3    0.30    0.61
  -7   4  -3    0.64    0.79
   7   3  -3    2.05    0.94
  -7  -3   3    3.60    1.04
   6   3  -3   24.04    1.73
  -6  -3   3   22.89    1.66
   5   3  -3    5.31    0.89
  -5  -3   3    5.92    0.83
  -4  -3   3    8.56    0.85
  -4  -3   3   11.25    0.64
   4   3  -3   11.31    0.98
   4   3  -3    9.86    1.80
  -3  -3   3   37.74    1.12
   3   3  -3   38.13    1.47
  -3  -3   3   36.20    1.39
   3   3  -3   38.21    2.50
  -2  -3   3  365.40    6.79
   2   3  -3  341.73   12.56
   2   3  -3  351.20    7.00
  -2  -3   3  352.99    7.04
  -1  -3   3   18.76    0.66
  -1  -3   3   18.28    0.74
   1   3  -3   17.96    0.71
   0   3  -3  506.12    9.33
   0  -3   3  484.59    9.45
   0  -3   3  510.99    9.49
   1  -3   3  400.85    7.78
  -1   3  -3  405.89    7.57
   1  -3   3  410.59    7.87
   2  -3   3  193.10    4.18
   2  -3   3  195.14    7.43
   2  -3   3  200.07    3.99
   2  -3   3  191.70    4.14
   3  -3   3  149.25    3.35
   3  -3   3  143.16    3.44
   3  -3   3  146.10    3.42
   3  -3   3  139.18    5.96
   4  -3   3  185.13    4.36
   4  -3   3  185.75    4.38
   4  -3   3  188.99    7.66
   4  -3   3  192.85    4.55
   5  -3   3   33.70    1.62
   5  -3   3   33.15    1.70
  -5   3  -3   31.82    1.44
   6  -3   3   24.46    1.52
  -7   3  -3    3.63    1.03
   7  -3   3    3.37    0.88
  -8  -2   3    0.76    0.97
  -7  -2   3    1.71    0.89
   7   2  -3    1.57    0.85
   6   2  -3   14.31    1.40
  -6  -2   3   14.35    1.35
  -5  -2   3    2.71    0.67
   5   2  -3    4.29    0.82
  -4  -2   3   46.70    1.80
  -4  -2   3   46.54    1.44
   4   2  -3   47.89    2.93
   4   2  -3   46.30    1.84
  -3  -2   3  104.68    2.39
   3   2  -3  107.34    2.79
  -3  -2   3  106.76    2.71
   3   2  -3  101.86    4.53
   2   2  -3   -0.11    0.27
  -2  -2   3    0.07    0.18
  -2  -2   3    0.59    0.27
   2   2  -3   -0.42    0.70
  -1  -2   3   11.77    0.53
   1   2  -3   11.78    0.64
  -1  -2   3   12.09    0.55
   0   2  -3   16.80    0.70
   0  -2   3   16.97    0.66
   0  -2   3   17.16    0.67
   1  -2   3 2905.64   53.77
   1  -2   3 2843.60   53.98
  -1   2  -3 2872.58   52.92
   2  -2   3   24.16    0.93
   2  -2   3   22.84    0.89
   2  -2   3   22.45    1.98
   2  -2   3   23.75    0.87
   3  -2   3   66.35    1.86
   3  -2   3   65.58    1.92
   3  -2   3   67.36    1.90
   3  -2   3   61.94    3.36
   4  -2   3   12.56    0.94
   4  -2   3   12.99    0.85
   4  -2   3   13.47    0.97
   4  -2   3   12.08    1.88
   5  -2   3    5.00    1.62
   5  -2   3    4.99    0.81
  -5   2  -3    5.49    0.67
   6  -2   3    3.09    0.76
  -6   2  -3    3.51    0.85
   7  -2   3   -0.35    0.57
  -7   2  -3   -0.08    0.73
  -8  -1   3    0.09    0.90
   8   1  -3    0.21    0.71
   7   1  -3    3.09    0.92
  -7  -1   3    3.12    0.98
  -6  -1   3    1.65    0.66
   6   1  -3    0.60    0.65
   5   1  -3  146.55    4.17
  -5  -1   3  154.45    4.11
  -4  -1   3  335.13    7.21
   4   1  -3  330.47   12.02
  -4  -1   3  340.76    6.76
   4   1  -3  334.87    7.30
  -3  -1   3    0.02    0.21
   3   1  -3    0.27    0.36
  -3  -1   3    0.19    0.27
  -2  -1   3   86.97    2.13
   2   1  -3   85.87    3.71
   2   1  -3   89.17    2.25
  -2  -1   3   90.21    2.02
   1   1  -3  390.78    7.46
  -1  -1   3  387.37    7.39
  -1  -1   3  389.97    7.42
   0  -1   3 1699.62   30.17
   0   1  -3 1602.22   30.19
   1  -1   3 1329.14   24.48
   1  -1   3 1312.19   24.49
   1  -1   3 1341.29   44.23
  -1   1  -3 1357.45   24.27
   2  -1   3  269.90    5.32
   2  -1   3  260.53    5.29
   2  -1   3  263.40    9.69
   2  -1   3  265.22    5.33
   3  -1   3  340.22    7.02
   3  -1   3  341.62   12.49
   3  -1   3  345.61    6.99
   3  -1   3  350.27    6.91
   4  -1   3    3.29    0.48
   4  -1   3    3.30    0.62
   4  -1   3    5.14    0.67
   4  -1   3    5.97    1.53
   5  -1   3   20.73    2.36
   5  -1   3   18.00    1.23
  -5   1  -3   18.03    1.00
  -6   1  -3   15.49    1.31
   6  -1   3   17.31    1.32
  -7   1  -3    2.79    0.98
   7  -1   3    2.81    0.83
   8   0  -3   -0.46    0.60
  -8   0   3   -0.76    0.79
   7   0  -3   -0.59    0.55
  -7   0   3    0.08    0.76
   6   0  -3   -0.08    0.51
  -6   0   3   -0.14    0.48
  -5   0   3   -0.22    0.32
   5   0  -3    0.45    0.54
  -5   0   3    0.09    0.42
  -4   0   3    0.28    0.29
   4   0  -3   -0.64    0.38
  -4   0   3   -0.57    0.31
  -3   0   3    0.17    0.21
  -3   0   3    0.01    0.25
   3   0  -3   -0.30    0.30
  -2   0   3   -0.44    0.16
   2   0  -3   -0.36    0.43
  -2   0   3   -0.06    0.20
   2   0  -3   -0.32    0.24
   1   0  -3   -0.44    0.87
   1   0  -3   -0.44    0.27
  -1   0   3   -0.22    0.13
  -1   0   3   -0.13    0.19
   0   0  -3   -0.93    0.24
   0   0   3   -0.64    0.58
   0   0   3   -0.80    0.12
   0   0   3   -0.81    0.15
   1   0   3   -0.65    0.61
  -1   0  -3   -0.12    0.17
   1   0   3   -0.08    0.13
   1   0   3    0.15    0.17
   2   0   3   -0.15    0.17
   2   0   3   -0.70    0.65
   2   0   3   -0.27    0.20
   2   0   3   -0.01    0.17
   3   0   3    0.59    0.33
   3   0   3   -0.03    0.24
   3   0   3    0.67    0.93
  -4   0  -3   -0.11    0.30
   4   0   3   -0.09    0.26
   4   0   3    0.40    0.42
   4   0   3   -1.07    1.06
   5   0   3    0.15    0.52
  -5   0  -3   -0.18    0.31
   5   0   3   -0.93    1.26
  -5   0  -3    0.06    0.51
   6   0   3    0.08    0.56
  -6   0  -3    0.24    0.64
  -7   0  -3    0.54    0.80
   7   0   3   -0.94    0.50
   8  -1  -3   -1.02    0.60
  -8   1   3    0.21    0.93
   7  -1  -3    3.91    0.95
  -7   1   3    3.50    0.96
   6  -1  -3    0.45    0.67
  -6   1   3    0.60    0.60
   5  -1  -3  149.92    4.19
  -5   1   3  154.24    4.11
  -5   1   3  148.38    3.66
   4  -1  -3  328.82    7.20
  -4   1   3  329.54    6.78
  -4   1   3  333.22    7.12
   3  -1  -3    0.17    0.34
  -3   1   3   -0.11    0.26
  -3   1   3   -0.08    0.24
  -2   1   3   87.49    2.06
   2  -1  -3   85.81    2.24
  -1   1   3  380.59    7.29
   1  -1  -3  374.31   12.98
   1  -1  -3  387.04    7.39
   0   1   3 1511.23   53.32
   0  -1  -3 1641.69   28.94
   0   1   3 1614.96   29.05
  -1  -1  -3 1350.12   24.02
   1   1   3 1317.99   43.65
  -1  -1  -3 1237.42   24.36
   1   1   3 1362.16   24.14
   2   1   3  257.63    5.27
   2   1   3  262.09    5.14
  -2  -1  -3  263.39    5.11
   2   1   3  256.10    9.59
   3   1   3  344.92    7.01
   3   1   3  333.60    6.70
   3   1   3  342.35   12.49
  -3  -1  -3  345.93    6.87
   4   1   3    4.17    0.46
   4   1   3    4.42    1.49
  -4  -1  -3    3.85    0.54
   4   1   3    4.42    0.67
  -5  -1  -3   21.21    1.24
   5   1   3   18.18    2.44
   5   1   3   18.97    1.27
  -6  -1  -3   16.13    1.32
   6   1   3   13.89    1.24
  -7  -1  -3    3.00    0.94
   7   1   3    1.93    0.77
  -8   2   3    2.36    1.10
  -7   2   3    1.56    0.77
   7  -2  -3    0.87    0.74
   6  -2  -3   15.00    1.36
  -6   2   3   16.90    1.36
  -5   2   3    3.36    0.68
   5  -2  -3    4.16    0.82
  -5   2   3    2.84    0.53
  -4   2   3   42.96    1.50
   4  -2  -3   44.37    1.82
   3  -2  -3  100.27    2.68
  -3   2   3  101.33    2.52
   3  -2  -3  104.03    2.78
  -2   2   3    0.35    0.24
   2  -2  -3   -0.13    0.28
   2  -2  -3   -0.03    0.24
  -1   2   3   11.98    0.57
   1  -2  -3   11.38    0.52
   1  -2  -3   12.13    0.75
   0   2   3   15.93    1.36
   0  -2  -3   15.29    0.45
   0   2   3   16.49    0.64
   0  -2  -3   17.00    0.81
  -1  -2  -3 2800.30   53.44
   1   2   3 2823.92   53.86
   1   2   3 2980.21   93.65
  -1  -2  -3 2812.91   53.00
  -2  -2  -3   22.86    0.76
   2   2   3   22.45    0.74
   2   2   3   23.16    0.95
   2   2   3   19.25    1.91
  -3  -2  -3   63.12    1.78
   3   2   3   64.59    3.51
   3   2   3   64.31    1.63
   3   2   3   66.36    1.98
   4   2   3   13.06    2.07
   4   2   3   12.54    1.01
  -4  -2  -3   14.36    0.87
   4   2   3   13.20    0.72
   5   2   3    5.23    1.88
   5   2   3    6.05    0.87
  -5  -2  -3    4.26    0.73
   6   2   3    4.50    1.78
   6   2   3    3.32    0.80
  -6  -2  -3    3.96    0.82
  -7  -2  -3    0.35    0.69
   7   2   3    0.34    0.60
   7  -3  -3    2.44    0.87
  -7   3   3    4.55    0.99
  -6   3   3   25.20    1.59
   6  -3  -3   22.55    1.60
  -6   3   3   21.56    1.26
   5  -3  -3    4.95    0.86
  -5   3   3    5.26    0.66
  -5   3   3    3.29    0.63
   4  -3  -3    8.97    0.92
  -4   3   3    9.03    0.74
   4  -3  -3   11.99    0.97
   3  -3  -3   36.68    1.47
   3  -3  -3   37.21    1.44
  -3   3   3   36.11    1.32
   2  -3  -3  348.19    7.04
   2  -3  -3  352.31    7.13
  -2   3   3  361.84    7.05
   1  -3  -3   17.38    0.68
  -1   3   3   17.22    0.72
   1  -3  -3   18.50    0.90
   0   3   3  472.62    9.04
   0  -3  -3  476.06    8.95
   0   3   3  481.67   16.27
   0  -3  -3  483.12    9.15
  -1  -3  -3  399.28    7.52
   1   3   3  384.49   13.89
  -1  -3  -3  406.15    7.72
   1   3   3  404.54    7.57
  -2  -3  -3  195.89    3.98
   2   3   3  194.20    7.56
   2   3   3  192.84    3.87
   3   3   3  146.64    3.10
  -3  -3  -3  146.32    3.34
   3   3   3  146.77    6.32
   3   3   3  150.16    3.59
   4   3   3  190.35    8.03
  -4  -3  -3  193.42    4.40
   4   3   3  180.60    4.53
   5   3   3   31.96    1.68
   5   3   3   34.51    3.18
  -5  -3  -3   35.49    1.66
   6   3   3   27.94    1.69
   6   3   3   26.28    2.93
  -6  -3  -3   24.68    1.58
  -7  -3  -3    3.86    0.98
   7   3   3    2.84    0.87
   7  -4  -3    8.73    1.23
  -7   4   3    8.73    1.21
  -6   4   3    6.09    0.78
  -6   4   3    3.69    0.80
   6  -4  -3    5.93    1.00
   5  -4  -3    1.70    0.72
   5  -4  -3    1.96    0.69
  -5   4   3    2.34    0.55
   4  -4  -3   18.61    1.19
  -4   4   3   17.26    1.00
   4  -4  -3   18.59    1.16
   3  -4  -3  634.14   12.32
  -3   4   3  632.32   12.21
   3  -4  -3  622.43   12.32
   2  -4  -3 1830.08   34.15
   2  -4  -3 1863.01   33.99
  -2   4   3 1883.80   34.15
   1  -4  -3    0.35    0.33
   1  -4  -3    0.02    0.22
  -1   4   3   -0.23    0.48
  -1   4   3    1.54    0.30
   0   4   3  113.00    2.53
   0   4   3  112.28    4.59
   0  -4  -3  119.62    2.73
   0  -4  -3  122.52    2.47
  -1  -4  -3  286.14    5.47
  -1  -4  -3  286.50    5.69
   1   4   3  268.20   10.15
   1   4   3  286.07    5.48
   2   4   3   15.50    1.83
   2   4   3   19.14    0.64
  -2  -4  -3   20.24    0.77
  -2  -4  -3   20.42    0.91
  -3  -4  -3   77.45    2.09
   3   4   3   77.37    4.14
   3   4   3   77.72    1.78
   3   4   3   79.24    2.29
   4   4   3  174.16    7.66
   4   4   3  177.23    4.35
  -4  -4  -3  173.98    4.16
   5   4   3   19.97    1.37
  -5  -4  -3   18.20    1.23
   5   4   3   21.28    2.88
   6   4   3    3.13    1.86
   6   4   3    1.53    0.71
  -6  -4  -3    2.80    0.76
  -7  -4  -3    0.24    0.69
   7   4   3    0.70    0.68
  -7   5   3   -0.63    0.51
   7  -5  -3   -0.08    0.61
   6  -5  -3   20.32    1.53
  -6   5   3   16.94    1.24
   5  -5  -3  150.33    4.20
   5  -5  -3  148.38    4.18
  -5   5   3  146.74    3.84
   4  -5  -3   26.55    1.40
   4  -5  -3   22.72    1.32
  -4   5   3   25.16    1.18
   3  -5  -3    5.83    0.61
  -3   5   3    4.30    0.52
   3  -5  -3    5.25    0.67
   2  -5  -3   24.97    1.05
  -2   5   3   25.70    1.04
   2  -5  -3   25.11    1.14
   1  -5  -3   47.55    1.36
  -1   5   3   47.88    1.42
  -1   5   3   43.09    2.25
   1  -5  -3   49.14    1.54
   0   5   3  144.62    5.74
   0   5   3  155.23    3.21
   0  -5  -3  145.70    3.35
   0  -5  -3  152.72    3.15
   1   5   3 1334.34   24.88
  -1  -5  -3 1391.54   25.00
   1   5   3 1356.18   45.22
  -1  -5  -3 1352.22   24.94
   2   5   3   -0.47    0.80
  -2  -5  -3    0.23    0.23
  -2  -5  -3    0.74    0.27
   2   5   3    0.32    0.15
  -3  -5  -3   47.01    1.52
   3   5   3   42.20    3.18
   3   5   3   44.75    1.14
   3   5   3   46.11    1.67
   4   5   3    5.33    0.83
   4   5   3    7.21    2.03
  -4  -5  -3    6.33    0.77
  -5  -5  -3   24.53    1.39
   5   5   3   25.31    1.52
   5   5   3   24.97    3.05
   6   5   3   12.63    1.25
   6   5   3   16.05    2.77
  -6  -5  -3    9.52    1.13
   7   5   3    1.23    0.73
  -7  -5  -3    1.10    0.78
   7  -6  -3    8.15    1.22
   6  -6  -3   11.36    1.27
   6  -6  -3    8.80    1.18
  -6   6   3    7.61    0.92
   5  -6  -3    2.32    0.72
   5  -6  -3    4.26    0.85
  -5   6   3    2.48    0.61
   4  -6  -3   20.07    1.25
  -4   6   3   18.27    1.10
   4  -6  -3   23.26    1.33
  -3   6   3    0.66    0.34
   3  -6  -3    0.15    0.39
   3  -6  -3    0.81    0.40
  -2   6   3  226.32    4.90
   2  -6  -3  228.75    4.90
   2  -6  -3  227.31    4.95
   1  -6  -3  656.48   12.79
  -1   6   3  671.90   22.71
  -1   6   3  699.31   12.91
   1  -6  -3  680.10   12.92
   0   6   3    8.79    1.49
   0  -6  -3    8.70    0.60
   0   6   3    9.27    0.56
   0  -6  -3    8.57    0.72
   1   6   3   48.97    2.90
  -1  -6  -3   50.75    1.56
   1   6   3   49.77    1.32
  -1  -6  -3   54.15    1.46
   2   6   3    4.17    0.33
  -2  -6  -3    3.63    0.47
   2   6   3    5.06    1.31
  -3  -6  -3  201.76    4.47
   3   6   3  197.90    8.31
   4   6   3    9.29    2.24
   4   6   3    7.46    0.91
  -4  -6  -3    7.31    0.75
   5   6   3    5.58    0.94
   5   6   3    9.93    2.41
  -5  -6  -3    6.13    0.85
  -6  -6  -3    0.55    0.65
   6   6   3    2.61    2.00
   6   6   3    1.15    0.72
   7   6   3    0.26    0.66
  -7  -6  -3    1.03    0.85
   7  -7  -3   -0.30    0.63
  -7   7   3    0.85    0.67
   6  -7  -3   18.08    1.52
  -6   7   3   19.95    1.35
   6  -7  -3   20.32    1.56
  -5   7   3    3.08    0.63
   5  -7  -3    3.90    0.80
   5  -7  -3    3.37    0.78
  -4   7   3   38.16    1.60
   4  -7  -3   39.55    1.74
   4  -7  -3   38.49    1.73
   3  -7  -3    9.17    0.88
  -3   7   3    9.97    0.75
   3  -7  -3    7.86    0.80
   2  -7  -3   57.49    1.81
  -2   7   3   55.35    1.80
   2  -7  -3   59.35    1.87
   1  -7  -3  809.82   15.21
  -1   7   3  772.95   26.92
   1  -7  -3  820.56   15.27
  -1   7   3  815.15   15.26
   0  -7  -3 1880.15   34.52
   0  -7  -3 1896.21   34.67
   0   7   3 1959.48   34.63
   0   7   3 1819.80   62.29
  -1  -7  -3   30.38    1.18
   1   7   3   30.62    0.98
   1   7   3   29.67    2.40
  -1  -7  -3   32.12    1.14
   2   7   3    0.30    0.16
   2   7   3   -0.38    0.92
  -2  -7  -3    0.47    0.32
  -3  -7  -3  111.25    2.89
   3   7   3  113.58    5.63
  -3  -7  -3  106.48    3.02
   4   7   3   82.53    5.02
  -4  -7  -3   80.78    2.51
   4   7   3   85.24    2.74
   5   7   3    1.87    1.95
  -5  -7  -3    2.11    0.63
   5   7   3    2.39    0.75
   6   7   3   20.26    1.61
   6   7   3   30.10    3.47
  -6  -7  -3   20.88    1.49
  -7  -7  -3    0.90    0.79
   7   7   3    0.95    0.83
   7  -8  -3    3.16    0.90
   7  -8  -3    2.59    1.07
  -7   8   3    2.24    0.78
   6  -8  -3    2.98    0.89
   6  -8  -3    4.57    0.94
  -6   8   3    3.38    0.75
   5  -8  -3    0.38    0.53
   5  -8  -3   -0.72    0.50
  -5   8   3    0.03    0.40
   4  -8  -3    8.50    0.94
   4  -8  -3    9.09    0.94
  -4   8   3    7.29    0.80
   3  -8  -3   25.91    1.32
   3  -8  -3   27.34    1.36
  -3   8   3   26.50    1.27
  -2   8   3  865.32   16.58
   2  -8  -3  883.37   16.51
   2  -8  -3  854.68   16.58
  -1   8   3   98.97    2.56
  -1   8   3   98.02    4.35
   1  -8  -3  104.86    2.69
   1  -8  -3   98.15    2.55
   0   8   3   56.31    1.61
   0  -8  -3   56.27    1.67
   0  -8  -3   54.66    1.77
   0   8   3   53.02    3.06
   1   8   3    1.55    1.13
   1   8   3    1.22    0.27
  -1  -8  -3    1.08    0.41
  -1  -8  -3    0.68    0.34
   2   8   3    8.95    0.49
   2   8   3   13.39    2.07
  -2  -8  -3    9.61    0.76
  -2  -8  -3   10.39    0.84
   3   8   3   13.36    2.41
  -3  -8  -3   17.15    1.02
  -3  -8  -3   16.27    1.08
  -4  -8  -3   17.66    1.23
   5   8   3    3.32    2.05
  -5  -8  -3    0.70    0.63
   5   8   3   -0.12    0.60
   6   8   3    1.15    2.25
  -6  -8  -3    1.04    0.72
   6   8   3    1.26    0.78
   7   8   3    0.68    0.82
   7   8   3    2.60    2.39
  -7  -8  -3    1.50    0.94
  -7   9   3    4.33    0.92
   7  -9  -3    4.49    1.02
   7  -9  -3    3.71    1.12
   6  -9  -3    5.66    1.08
  -6   9   3    6.70    0.93
   6  -9  -3    8.09    1.13
  -5   9   3   30.93    1.61
   5  -9  -3   30.13    1.71
   5  -9  -3   36.55    1.84
  -4   9   3   17.24    1.14
   4  -9  -3   18.71    1.31
   4  -9  -3   21.58    1.32
  -3   9   3    0.57    0.38
   3  -9  -3    0.06    0.46
   3  -9  -3    0.98    0.50
   2  -9  -3  396.04    8.10
   2  -9  -3  397.87    8.19
  -2   9   3  391.62    8.14
  -1   9   3  657.10   12.69
  -1   9   3  653.39   22.41
   1  -9  -3  662.32   12.74
   1  -9  -3  651.38   12.71
   0   9   3   27.85    2.36
   0   9   3   27.87    1.08
   0  -9  -3   30.09    1.22
   0  -9  -3   27.58    1.26
  -1  -9  -3  433.63    8.62
  -1  -9  -3  431.58    8.60
   1   9   3  412.91   15.46
   1   9   3  431.94    8.32
   2   9   3    8.02    0.49
  -2  -9  -3    8.34    0.75
  -2  -9  -3    8.94    0.83
   2   9   3    8.78    1.98
   3   9   3   13.35    2.39
  -3  -9  -3    8.36    0.88
  -3  -9  -3    8.21    0.85
  -4  -9  -3    1.77    0.66
  -4  -9  -3    2.53    0.63
   4   9   3   -0.21    1.92
  -5  -9  -3   56.03    2.37
   5   9   3   74.09    4.88
   5   9   3   58.11    2.50
  -6  -9  -3   -0.15    0.69
   6   9   3    0.08    0.70
   6   9   3   -0.51    2.21
   7   9   3    1.14    0.91
  -7  -9  -3    1.82    0.91
   7   9   3    5.26    2.41
   7 -10  -3    0.53    0.88
   7 -10  -3    1.19    0.64
  -7  10   3   -0.28    0.67
   6 -10  -3    0.21    0.73
  -6  10   3   -0.36    0.52
   6 -10  -3    0.31    0.59
   5 -10  -3    2.87    0.80
  -5  10   3    2.61    0.68
   5 -10  -3    2.84    0.74
   4 -10  -3    7.68    0.95
   4 -10  -3    8.82    0.95
  -4  10   3    6.05    0.78
   3 -10  -3   50.52    1.96
   3 -10  -3   46.88    1.87
  -3  10   3   49.19    1.85
   2 -10  -3    1.58    0.58
  -2  10   3    2.68    1.11
   2 -10  -3    2.10    0.57
  -2  10   3    2.67    0.52
  -1  10   3    6.27    0.63
   1 -10  -3    6.94    0.72
   1 -10  -3    6.83    0.77
  -1  10   3    8.84    1.56
   0  10   3    4.05    0.48
   0 -10  -3    2.87    0.57
   0 -10  -3    4.07    0.61
   0  10   3    4.00    1.43
   1  10   3   18.32    0.85
  -1 -10  -3   18.14    1.06
  -1 -10  -3   18.68    1.07
   1  10   3   17.30    2.49
  -2 -10  -3   14.18    1.07
   2  10   3   13.41    2.48
  -2 -10  -3   14.81    0.99
  -3 -10  -3   91.77    2.88
   3  10   3   99.82    5.60
  -3 -10  -3   94.10    2.86
   4  10   3    9.18    2.66
  -4 -10  -3    7.08    0.95
  -4 -10  -3    7.32    0.92
  -5 -10  -3    0.12    0.45
  -5 -10  -3   -0.29    0.63
   5  10   3    1.45    2.13
  -6 -10  -3    1.47    0.81
   6  10   3    0.58    2.30
  -7 -10  -3   -0.05    0.80
   7  10   3   -0.69    2.06
  -6  11   3    8.60    1.09
   6 -11  -3   10.71    1.36
   6 -11  -3   11.13    1.27
  -5  11   3    6.38    0.87
   5 -11  -3    7.21    1.04
   5 -11  -3    8.35    1.00
   4 -11  -3   -0.73    0.36
   4 -11  -3    0.98    0.61
  -4  11   3   -0.36    0.37
   3 -11  -3    0.32    0.53
   3 -11  -3   -0.21    0.54
  -3  11   3    0.06    0.37
   2 -11  -3   20.09    1.21
   2 -11  -3   20.15    1.21
  -2  11   3   19.17    1.12
  -1  11   3   32.98    2.70
   1 -11  -3   32.92    1.46
  -1  11   3   34.59    1.38
   1 -11  -3   33.01    1.49
   0 -11  -3  111.56    3.00
   0  11   3  112.20    2.84
   0  11   3  108.36    5.28
   0 -11  -3  112.63    3.03
  -1 -11  -3   41.75    1.64
   1  11   3   41.33    1.37
   1  11   3   41.23    3.35
  -1 -11  -3   39.56    1.63
  -2 -11  -3   10.60    1.09
  -2 -11  -3   11.82    0.95
   2  11   3   15.96    2.62
   3  11   3   18.30    3.08
  -3 -11  -3   15.29    1.30
  -3 -11  -3   15.44    1.16
   4  11   3   23.10    3.23
  -4 -11  -3   23.24    1.43
  -5 -11  -3   10.36    1.19
  -5 -11  -3   10.42    1.15
   5  11   3    8.95    2.80
  -6 -11  -3    2.21    0.94
   6  11   3    1.94    2.26
   6 -12  -3    4.86    1.10
  -6  12   3    4.23    0.91
  -5  12   3    6.44    0.90
   5 -12  -3    5.79    1.01
   4 -12  -3    1.57    0.69
  -4  12   3    1.44    0.57
   4 -12  -3    1.31    0.56
  -3  12   3   53.89    2.07
   3 -12  -3   51.83    2.13
   3 -12  -3   52.62    2.02
   2 -12  -3    0.23    0.53
   2 -12  -3    1.08    0.58
  -2  12   3    0.29    0.42
  -1  12   3    0.06    0.33
  -1  12   3   -0.36    1.23
   1 -12  -3    0.02    0.50
   1 -12  -3   -0.34    0.44
   0 -12  -3   87.85    2.65
   0  12   3   89.94    2.47
   0  12   3   85.80    4.72
   0 -12  -3   86.72    2.65
   1  12   3    3.58    0.48
  -1 -12  -3    3.10    0.64
   1  12   3    2.80    1.79
  -1 -12  -3    3.92    0.71
   2  12   3    3.16    1.94
  -2 -12  -3    2.96    0.78
  -2 -12  -3    2.13    0.59
  -3 -12  -3   37.63    1.77
  -3 -12  -3   37.27    1.88
   3  12   3   42.26    4.16
   4  12   3    4.47    2.17
  -4 -12  -3    3.70    0.77
  -4 -12  -3    2.98    0.90
   5  12   3   -1.19    1.97
  -5 -12  -3    1.57    0.78
  -5 -12  -3    1.49    0.60
  -6 -12  -3    0.95    0.59
   6  12   3    1.28    2.45
  -6 -12  -3    1.21    0.85
   6 -13  -3    7.14    1.27
  -6  13   3    6.32    1.08
   5 -13  -3    2.70    0.87
  -5  13   3    2.27    0.76
  -4  13   3    6.15    0.85
   4 -13  -3    5.82    0.97
  -3  13   3   42.46    1.87
   3 -13  -3   43.23    1.97
   3 -13  -3   41.47    1.79
   2 -13  -3   28.54    1.45
  -2  13   3   25.99    1.37
   2 -13  -3   26.53    1.49
  -1  13   3   68.51    4.00
   1 -13  -3   65.51    2.23
   1 -13  -3   62.54    2.27
  -1  13   3   62.74    2.10
   0  13   3   31.48    3.07
   0  13   3   32.29    1.37
   0 -13  -3   34.53    1.62
   0 -13  -3   37.26    1.69
  -1 -13  -3    6.07    0.82
   1  13   3    6.10    0.63
   1  13   3    6.91    2.20
  -1 -13  -3    5.05    0.84
  -2 -13  -3   17.64    1.34
   2  13   3   21.01    3.14
  -2 -13  -3   18.98    1.23
  -3 -13  -3    0.00    0.46
  -3 -13  -3    0.57    0.73
   3  13   3    0.70    2.41
  -4 -13  -3    7.75    1.10
   4  13   3    8.43    2.53
  -4 -13  -3    9.62    1.07
  -5 -13  -3    1.22    0.60
   5  13   3   -0.02    1.79
  -5 -13  -3   -0.09    0.78
  -6 -13  -3    0.37    0.43
   6  13   3    1.00    2.29
  -6 -13  -3   -1.29    0.82
  -6  14   3    0.05    0.69
   6 -14  -3    1.74    0.96
   5 -14  -3    1.14    0.83
  -5  14   3    2.33    0.79
  -4  14   3   -0.38    0.36
   4 -14  -3   -0.09    0.63
  -3  14   3   38.34    1.82
   3 -14  -3   39.99    1.93
  -2  14   3    3.62    0.62
   2 -14  -3    5.60    0.86
  -1  14   3   18.49    2.61
   1 -14  -3   16.87    1.26
  -1  14   3   17.53    1.07
   1 -14  -3   18.73    1.25
   0  14   3    8.75    2.28
   0 -14  -3    6.50    0.92
   0  14   3    6.91    0.72
   0 -14  -3    6.47    0.92
  -1 -14  -3    0.30    0.50
   1  14   3   -1.15    1.77
  -1 -14  -3    0.74    0.67
   2  14   3    6.51    2.50
  -2 -14  -3    4.10    0.93
  -2 -14  -3    4.31    0.79
  -3 -14  -3   22.61    1.64
   3  14   3   29.70    3.91
  -3 -14  -3   23.44    1.48
   4  14   3   -0.40    1.92
  -4 -14  -3   -0.15    0.45
  -4 -14  -3   -0.45    0.69
   5  14   3    0.15    1.86
  -5 -14  -3    0.28    0.76
  -5 -14  -3   -0.56    0.45
  -6 -14  -3    0.44    0.50
   6  14   3    1.23    2.39
   5 -15  -3    1.19    0.85
  -5  15   3    0.10    0.67
  -4  15   3    5.98    0.88
   4 -15  -3    7.27    1.08
  -3  15   3    0.51    0.51
   3 -15  -3    0.67    0.66
  -2  15   3    2.14    0.57
   2 -15  -3    1.78    0.70
  -1  15   3    4.34    1.87
  -1  15   3    3.48    0.59
   1 -15  -3    4.49    0.84
   0  15   3   21.78    2.95
   0 -15  -3   19.63    1.40
   0  15   3   20.74    1.14
  -1 -15  -3    2.67    0.70
  -1 -15  -3    1.19    0.73
   1  15   3    1.81    2.14
  -2 -15  -3   23.01    1.44
  -2 -15  -3   19.43    1.45
   2  15   3   22.86    3.43
   3  15   3    3.14    2.63
  -3 -15  -3    0.08    0.52
  -3 -15  -3    0.12    0.71
  -4 -15  -3    2.71    0.94
  -4 -15  -3    1.61    0.69
   4  15   3    1.70    2.11
   5  15   3    0.01    2.04
  -5 -15  -3    0.36    0.89
  -5 -15  -3    0.90    0.64
  -5  16   3    1.49    0.81
   5 -16  -3    2.69    0.98
  -4  16   3    4.33    0.81
   4 -16  -3    4.26    0.96
   3 -16  -3    2.34    0.78
  -3  16   3    1.56    0.62
  -2  16   3    1.74    0.57
   2 -16  -3    1.77    0.76
   1 -16  -3    5.15    0.90
  -1  16   3    4.25    0.66
   0 -16  -3    0.63    0.67
   0  16   3    0.31    1.79
   0  16   3    0.36    0.39
   1  16   3   -0.09    2.04
  -1 -16  -3   -0.20    0.70
   2  16   3   28.48    3.78
  -2 -16  -3   21.20    1.47
   3  16   3    1.26    2.57
  -3 -16  -3    1.59    0.71
  -3 -16  -3    1.75    0.88
  -4 -16  -3    5.03    1.10
   4  16   3    5.06    2.96
  -4 -16  -3    4.71    0.94
  -5 -16  -3    1.70    0.98
   5  16   3    2.72    2.44
  -5 -16  -3    1.32    0.67
   4 -17  -3    0.93    0.78
  -4  17   3   -0.22    0.42
   3 -17  -3    3.97    0.91
  -3  17   3    3.07    0.71
   2 -17  -3   12.08    1.24
  -2  17   3   11.77    1.06
   1 -17  -3   -0.11    0.64
  -1  17   3   -0.22    0.37
   0 -17  -3   14.64    1.35
   0  17   3   17.19    3.13
  -1 -17  -3    1.08    0.77
   1  17   3    3.24    2.39
  -2 -17  -3   16.21    1.53
   2  17   3   22.37    3.62
  -3 -17  -3    0.81    0.79
   3  17   3    0.99    2.74
  -4 -17  -3    5.05    1.00
   4  17   3    6.71    3.11
  -4 -17  -3    4.59    1.17
  -4  18   3    0.54    0.50
   4 -18  -3    0.57    0.78
  -3  18   3   -0.84    0.40
   3 -18  -3   -0.59    0.64
   2 -18  -3    3.37    0.93
  -2  18   3    3.43    0.71
   1 -18  -3    2.37    0.84
  -1  18   3    2.86    0.66
   0  18   3   18.03    3.31
   0 -18  -3   12.70    1.33
   1  18   3    0.70    2.32
  -1 -18  -3    0.79    0.86
  -2 -18  -3   10.28    1.38
   2  18   3   15.64    3.54
  -3 -18  -3   -0.22    0.79
   3  18   3    0.18    2.76
  -4 -18  -3    2.95    1.14
   4  18   3    5.15    3.28
   3 -19  -3    0.12    0.73
  -3  19   3   -0.33    0.41
  -2  19   3    0.42    0.50
   2 -19  -3   -0.21    0.68
   1 -19  -3   15.14    1.44
  -1  19   3   12.70    1.12
   0 -19  -3    0.28    0.79
   0  19   3   -0.57    2.18
  -1 -19  -3    2.49    0.93
   1  19   3    4.95    2.74
  -2 -19  -3    0.14    0.81
   2  19   3    0.96    2.59
  -3 -19  -3    0.15    0.92
   3  19   3    1.90    3.00
  -3  20   3    1.24    0.59
   3 -20  -3    1.16    0.87
  -2  20   3   -0.55    0.39
   2 -20  -3    0.45    0.75
   1 -20  -3    5.38    1.12
   0 -20  -3    1.58    0.85
  -1 -20  -3    0.88    0.87
   1  20   3    2.66    2.78
   2  20   3    3.03    2.97
  -2 -20  -3    0.12    0.83
  -2  21   3   -0.25    0.43
   2 -21  -3   -0.70    0.76
   1 -21  -3   -0.52    0.78
   0 -21  -3    2.09    0.94
   1  21   3   11.63    3.56
  -1 -21  -3    6.43    1.23
  -1 -21   4    0.16    0.89
   0  21  -4   -0.34    3.01
   0 -21   4    0.94    0.90
   1 -21   4   15.51    1.62
   2  20  -4    1.37    2.77
  -2 -20   4    0.79    1.04
   1  20  -4    5.66    3.24
  -1 -20   4    3.73    1.04
   0  20  -4    0.20    3.01
   0 -20   4    0.20    0.72
  -1  20  -4    2.38    0.77
   1 -20   4    1.81    0.84
  -1  20  -4    2.46    3.17
   2 -20   4    4.84    1.09
  -2  20  -4    6.33    1.01
  -3 -19   4    0.13    0.98
   3  19  -4    0.55    2.66
   2  19  -4    0.45    2.48
  -2 -19   4    0.23    0.98
   1  19  -4    1.87    2.85
  -1 -19   4   -0.92    0.69
   0  19  -4    1.73    3.18
   0 -19   4    1.34    0.87
  -1  19  -4    7.24    3.35
  -1  19  -4    3.38    0.78
   1 -19   4    2.60    0.90
  -2  19  -4    1.35    0.68
   2 -19   4    1.03    0.73
   3 -19   4    0.09    0.66
  -3  19  -4    0.15    0.59
  -4 -18   4    0.94    1.05
   4  18  -4   -0.02    2.01
   3  18  -4    6.42    2.63
  -3 -18   4    2.98    1.20
   2  18  -4    4.04    2.64
  -2 -18   4    2.66    1.02
  -1 -18   4   14.37    1.55
   1  18  -4   13.42    3.75
   0  18  -4    1.16    2.93
   0 -18   4   -0.35    0.61
  -1  18  -4   -1.54    2.44
   1 -18   4   -0.37    0.65
  -1  18  -4   -0.19    0.46
   2 -18   4    3.55    0.93
  -2  18  -4    3.19    0.80
   3 -18   4    1.75    0.78
  -3  18  -4    2.60    0.81
   4 -18   4   -0.06    0.64
  -4  18  -4    2.09    0.75
  -4 -17   4    9.46    1.50
  -3 -17   4    0.91    0.98
   3  17  -4    2.64    2.27
  -2 -17   4    2.87    1.01
   2  17  -4    4.56    2.51
  -1 -17   4    1.25    0.88
   1  17  -4    1.89    2.86
   0  17  -4    2.45    2.86
   0  17  -4    3.49    0.68
   0 -17   4    4.35    0.98
  -1  17  -4   12.81    3.43
   1 -17   4   11.55    1.32
  -1  17  -4   10.48    1.03
   2 -17   4    7.48    1.11
  -2  17  -4    7.75    1.03
  -2  17  -4    6.42    2.73
  -3  17  -4    0.31    0.54
   3 -17   4   -0.64    0.58
  -4  17  -4   -0.31    0.56
   4 -17   4    0.31    0.66
  -5 -16   4   -0.12    0.97
   5  16  -4    1.96    1.91
   4  16  -4    1.44    2.12
  -4 -16   4    1.47    1.03
  -3 -16   4    0.46    0.89
   3  16  -4    1.17    2.11
  -2 -16   4   48.55    2.47
   2  16  -4   45.20    4.69
  -1 -16   4    0.09    0.75
   1  16  -4    1.40    2.49
   0  16  -4    3.82    0.66
   0 -16   4    3.66    0.91
   0  16  -4    5.83    2.79
  -1  16  -4    3.53    0.71
   1 -16   4    5.66    0.99
  -1  16  -4    5.78    3.00
  -2  16  -4    0.96    0.54
   2 -16   4    1.98    0.78
  -2  16  -4    1.26    1.96
   3 -16   4    5.72    1.01
  -3  16  -4    7.33    1.00
   4 -16   4    7.08    1.11
  -4  16  -4    5.49    1.00
   5 -16   4    1.90    0.80
  -5  16  -4   -0.27    0.76
  -5 -15   4    0.04    0.94
   5  15  -4    1.75    1.99
  -4 -15   4    6.13    1.24
   4  15  -4    5.23    2.42
   3  15  -4    0.30    1.64
  -3 -15   4   -0.05    0.79
   2  15  -4   13.54    3.12
  -2 -15   4   11.84    1.39
   1  15  -4    1.85    2.30
  -1 -15   4    1.89    0.83
   0  15  -4    0.31    0.40
   0 -15   4    0.32    0.63
   0  15  -4   -1.12    2.43
   1 -15   4   11.00    1.19
  -1  15  -4    9.20    2.91
  -1  15  -4    9.13    0.92
  -2  15  -4   10.00    0.98
  -2  15  -4    7.54    2.48
   2 -15   4    9.33    1.11
   3 -15   4    5.88    1.00
  -3  15  -4    5.51    0.92
  -4  15  -4    0.09    0.52
   4 -15   4   -0.42    0.54
  -5  15  -4    1.40    0.85
   5 -15   4    2.14    0.83
   6  14  -4    3.38    2.21
  -6 -14   4    0.89    1.03
   5  14  -4    1.26    1.64
  -5 -14   4    0.87    0.93
   4  14  -4   -0.28    1.54
  -4 -14   4    0.63    0.86
  -3 -14   4   15.61    1.53
   3  14  -4   17.62    2.97
   2  14  -4   30.05    3.77
  -2 -14   4   27.66    1.82
   1  14  -4   31.48    4.09
  -1 -14   4   26.74    1.74
   0  14  -4   25.48    4.11
   0 -14   4   18.01    1.43
  -1  14  -4    0.40    2.20
  -1  14  -4    1.25    0.48
   1 -14   4    0.51    0.64
   2 -14   4    0.70    0.55
  -2  14  -4    0.63    0.46
  -2  14  -4   -1.07    1.61
  -3  14  -4    6.56    0.95
   3 -14   4    6.50    0.98
   4 -14   4    5.60    1.01
  -4  14  -4    5.41    0.92
   5 -14   4    0.55    0.60
  -5  14  -4   -0.02    0.75
   6  13  -4    2.80    2.13
  -6 -13   4   -0.70    0.89
   5  13  -4    1.13    1.65
  -5 -13   4    0.36    0.87
  -4 -13   4    1.45    0.82
   4  13  -4    2.76    2.00
  -3 -13   4  191.78    5.34
   3  13  -4  198.02    9.50
  -2 -13   4   26.43    1.77
   2  13  -4   25.23    3.59
  -1 -13   4   10.61    1.20
   1  13  -4   14.53    3.07
  -1 -13   4   11.34    0.87
   0 -13   4   67.16    2.22
   0  13  -4   65.94    4.87
   0 -13   4   63.11    2.46
   1 -13   4   10.40    1.11
   1 -13   4   11.54    0.97
  -2  13  -4    0.04    2.21
   2 -13   4    1.83    0.67
  -2  13  -4    0.80    0.45
  -3  13  -4   86.41    6.60
   3 -13   4   97.97    3.20
  -3  13  -4   95.97    3.15
   4 -13   4   11.94    1.28
  -4  13  -4   11.24    1.23
   5 -13   4   -0.37    0.54
  -5  13  -4    0.23    0.68
   6 -13   4    0.87    0.65
  -6  13  -4    0.41    0.76
   6  12  -4    2.21    0.92
   6  12  -4    4.51    2.25
  -6 -12   4    1.07    0.96
  -5 -12   4    0.60    0.85
   5  12  -4    2.76    0.85
   5  12  -4    2.94    1.82
  -4 -12   4   -0.36    0.64
   4  12  -4    2.26    1.82
   4  12  -4    0.14    0.54
  -3 -12   4   30.41    1.84
   3  12  -4   29.67    3.82
   2  12  -4  207.88    9.59
  -2 -12   4  203.68    5.29
   1  12  -4  119.29    6.94
  -1 -12   4  114.90    3.48
  -1 -12   4  120.00    3.07
   0 -12   4    0.33    0.59
   0  12  -4   -1.05    2.95
   0 -12   4    0.26    0.37
   1 -12   4    2.66    0.57
  -1  12  -4    0.54    2.43
   1 -12   4    3.05    0.74
   2 -12   4    8.53    0.93
   2 -12   4    9.20    0.98
  -2  12  -4    2.08    2.53
   3 -12   4   44.78    2.01
  -3  12  -4   40.84    1.87
   4 -12   4   28.60    1.77
  -4  12  -4   35.50    1.91
   5 -12   4    5.59    1.02
  -5  12  -4    5.13    0.94
   6 -12   4    1.07    0.71
  -6  12  -4    1.89    0.87
  -6 -11   4    0.66    0.89
   6  11  -4    0.17    0.75
   6  11  -4    0.95    2.00
   5  11  -4   15.53    1.35
  -5 -11   4   15.17    1.45
   4  11  -4   13.67    2.69
  -4 -11   4   12.05    1.26
   4  11  -4   11.27    1.09
   3  11  -4    7.06    0.80
   3  11  -4    7.58    2.38
  -3 -11   4    5.83    0.98
  -2 -11   4    3.13    0.45
  -2 -11   4    3.33    0.83
   2  11  -4    2.58    1.76
  -1 -11   4   30.03    1.25
   1  11  -4   32.96    4.52
  -1 -11   4   29.05    1.63
   0 -11   4   85.67    2.45
   0 -11   4   78.88    2.62
  -1  11  -4    0.00    2.17
   1 -11   4    0.12    0.52
   1 -11   4    0.63    0.39
   2 -11   4   38.00    1.72
   2 -11   4   41.75    1.77
  -3  11  -4   -0.17    0.42
   3 -11   4    0.57    0.58
  -3  11  -4   -2.45    2.95
   4 -11   4   13.34    1.21
  -4  11  -4   10.53    1.12
  -5  11  -4    0.45    0.62
   5 -11   4    0.33    0.62
  -6  11  -4   -0.45    0.63
   6 -11   4   -0.02    0.58
   7  10  -4   11.10    1.55
  -7 -10   4    8.75    1.53
  -6 -10   4    9.52    1.36
   6  10  -4   10.53    1.36
  -5 -10   4    3.53    0.86
   5  10  -4    1.11    1.56
   5  10  -4    2.80    0.79
  -4 -10   4   41.11    2.01
   4  10  -4   48.02    1.95
   4  10  -4   51.46    4.08
  -3 -10   4  180.50    4.76
   3  10  -4  181.57    8.44
   3  10  -4  184.89    4.30
   2  10  -4   11.05    2.55
   2  10  -4    8.23    0.71
  -2 -10   4    9.62    0.67
  -2 -10   4    9.65    1.03
   1  10  -4   26.17    2.98
  -1 -10   4   22.32    1.03
  -1 -10   4   23.29    1.40
   0 -10   4   69.04    2.32
   0 -10   4   71.38    2.13
   1 -10   4   24.22    1.31
   1 -10   4   23.57    1.18
  -2  10  -4   -2.44    2.34
   2 -10   4    0.05    0.46
   2 -10   4   -0.20    0.46
   3 -10   4   29.38    1.54
   3 -10   4   25.74    1.48
  -4  10  -4   -0.29    0.45
   4 -10   4   -0.13    0.52
   5 -10   4   22.19    1.59
  -5  10  -4   24.04    1.58
   6 -10   4    4.22    0.92
  -6  10  -4    4.11    0.92
  -7  -9   4   -0.52    0.87
   7   9  -4    0.20    0.84
  -6  -9   4    3.30    1.02
   6   9  -4    3.19    0.91
   5   9  -4    2.89    1.60
   5   9  -4    6.77    1.00
  -5  -9   4    5.96    0.99
  -4  -9   4    0.82    0.62
   4   9  -4    1.90    1.85
   4   9  -4    0.90    0.57
   3   9  -4  180.11    8.17
   3   9  -4  179.99    4.24
  -3  -9   4  175.43    4.57
  -2  -9   4  187.95    4.04
   2   9  -4  190.13    8.51
  -2  -9   4  180.20    4.57
   2   9  -4  188.38    4.08
  -1  -9   4   27.31    1.42
   1   9  -4   32.10    3.65
  -1  -9   4   28.89    1.15
   1   9  -4   28.75    0.91
   0  -9   4  152.99    3.62
   0  -9   4  154.09    3.82
   1  -9   4   44.37    1.61
   1  -9   4   43.37    1.68
   2  -9   4   15.65    1.03
   2  -9   4   12.49    0.98
   3  -9   4   16.48    1.17
   3  -9   4   17.80    1.18
  -3   9  -4   13.01    3.10
   4  -9   4    8.39    0.98
  -4   9  -4   10.13    0.96
   5  -9   4   13.30    1.24
  -5   9  -4   15.41    1.24
  -6   9  -4   -0.02    0.60
   6  -9   4    0.97    0.66
  -7   9  -4    1.38    0.82
   7  -9   4    1.20    0.69
  -7  -8   4   13.55    1.67
   7   8  -4   14.20    1.65
   6   8  -4   -0.60    0.58
  -6  -8   4   -0.68    0.68
  -5  -8   4    3.16    0.76
   5   8  -4    4.10    1.83
   5   8  -4    4.09    0.87
   4   8  -4    2.11    1.68
  -4  -8   4    2.38    0.65
   4   8  -4    1.29    0.58
  -3  -8   4    0.85    0.53
   3   8  -4   -0.06    1.22
   3   8  -4   -0.19    0.37
   2   8  -4  170.35    3.68
  -2  -8   4  168.05    3.57
  -2  -8   4  161.39    4.07
   2   8  -4  153.64    7.47
  -1  -8   4  813.60   16.10
  -1  -8   4  846.35   15.78
   1   8  -4  848.23   15.40
   0  -8   4    9.76    0.84
   0  -8   4   10.05    0.71
  -1   8  -4   -0.27    2.19
   1  -8   4    3.85    0.57
   1  -8   4    4.39    0.55
   2  -8   4   54.59    1.92
   2  -8   4   54.16    1.88
   3  -8   4   -0.28    0.36
  -3   8  -4    0.22    1.48
   3  -8   4    0.15    0.47
   5  -8   4    1.78    0.65
  -5   8  -4    0.91    0.57
  -6   8  -4    0.41    0.59
   6  -8   4    0.27    0.61
   7  -8   4   -0.14    0.57
  -7   8  -4    0.09    0.68
  -7  -7   4    4.11    1.14
   7   7  -4    2.38    1.01
  -6  -7   4    1.39    0.75
   6   7  -4    2.36    0.83
   5   7  -4    3.74    1.96
   5   7  -4    5.93    0.96
  -5  -7   4    5.64    0.87
  -4  -7   4   57.24    2.21
   4   7  -4   60.29    4.11
   4   7  -4   54.58    2.13
   3   7  -4   11.77    0.88
  -3  -7   4   11.70    0.61
   3   7  -4   12.46    2.05
  -3  -7   4   10.72    0.94
   2   7  -4    2.45    1.52
   2   7  -4    1.97    0.40
  -2  -7   4    2.22    0.54
  -2  -7   4    1.99    0.33
   1   7  -4  148.69    3.10
  -1  -7   4  146.50    3.59
  -1  -7   4  150.00    3.31
   0  -7   4   61.88    1.77
   0  -7   4   58.07    1.84
   1  -7   4   19.23    0.95
   1  -7   4   19.47    0.99
   2  -7   4   75.44    2.28
   2  -7   4   76.20    1.74
   2  -7   4   79.77    2.29
   3  -7   4    1.60    0.37
   3  -7   4    1.05    0.48
   3  -7   4    2.66    0.54
  -3   7  -4    0.32    1.33
   4  -7   4    0.83    0.52
   4  -7   4    1.08    0.49
   4  -7   4    0.89    0.46
  -4   7  -4    0.35    0.86
   5  -7   4    0.64    0.54
  -5   7  -4    0.14    0.49
  -6   7  -4    1.63    0.69
   6  -7   4    0.59    0.68
   7  -7   4    0.82    0.66
  -7  -6   4    1.09    0.91
   7   6  -4    0.85    0.88
   6   6  -4   45.85    2.31
  -6  -6   4   50.19    2.39
  -5  -6   4    8.13    1.00
   5   6  -4    6.21    1.94
   5   6  -4    6.98    1.02
  -4  -6   4   52.19    2.01
   4   6  -4   49.53    3.58
   4   6  -4   44.52    1.94
  -3  -6   4   32.07    1.03
  -3  -6   4   33.45    1.46
   3   6  -4   32.28    1.39
   3   6  -4   31.90    2.68
   2   6  -4  131.86    6.40
   2   6  -4  132.74    3.10
  -2  -6   4  136.83    3.34
  -2  -6   4  131.66    2.92
   1   6  -4   -0.94    1.34
   1   6  -4    1.05    0.25
  -1  -6   4    0.17    0.21
  -1  -6   4    0.32    0.33
   0  -6   4  886.26   16.45
   0  -6   4  861.62   16.52
   1  -6   4    1.50    0.37
  -1   6  -4   -1.25    1.54
   1  -6   4    1.97    0.41
   2  -6   4  380.92    7.68
   2  -6   4  369.11    7.12
   2  -6   4  377.64    7.75
   3  -6   4   79.10    2.39
   3  -6   4   79.16    2.42
   3  -6   4   80.32    2.07
   4  -6   4   20.10    1.09
   4  -6   4   20.85    1.26
   4  -6   4   21.00    1.23
   5  -6   4   11.69    1.12
   5  -6   4   12.99    1.01
  -5   6  -4   12.13    1.04
   6  -6   4    6.01    0.98
  -6   6  -4    7.23    0.95
  -7  -5   4    4.82    1.11
   7   5  -4    3.10    1.03
   6   5  -4    1.14    0.81
  -6  -5   4    0.62    0.69
  -5  -5   4    5.11    0.85
   5   5  -4    6.39    1.98
   5   5  -4    5.21    0.93
   4   5  -4    0.63    0.52
   4   5  -4    0.11    1.12
  -4  -5   4    1.13    0.49
   3   5  -4    9.48    1.76
  -3  -5   4    9.65    0.58
  -3  -5   4    9.46    0.81
   3   5  -4    9.48    0.82
   2   5  -4  235.98    9.48
  -2  -5   4  248.33    4.91
  -2  -5   4  245.32    5.25
   2   5  -4  240.57    5.07
   1   5  -4  414.27    7.83
  -1  -5   4  420.93    7.99
  -1  -5   4  398.99    8.14
   0   5  -4   12.73    0.48
   0  -5   4   12.47    0.74
   0  -5   4   12.80    0.67
   1  -5   4    4.84    0.48
   1  -5   4    4.69    0.48
  -1   5  -4    4.72    0.34
  -2   5  -4   -0.71    0.84
   2  -5   4   -0.44    0.25
   2  -5   4    0.25    0.21
   2  -5   4    0.10    0.29
   3  -5   4    5.44    0.62
   3  -5   4    6.45    0.66
   3  -5   4    5.76    0.58
   4  -5   4   33.83    1.56
   4  -5   4   39.19    1.49
   4  -5   4   39.27    1.65
  -5   5  -4   15.65    1.12
   5  -5   4   15.66    1.09
   5  -5   4   15.40    1.19
   6  -5   4    0.06    0.50
   6  -5   4   -0.35    0.56
  -6   5  -4   -0.18    0.49
  -7   5  -4    0.57    0.86
   7   4  -4    4.19    1.10
  -7  -4   4    3.08    0.87
   6   4  -4    2.91    0.90
  -6  -4   4    2.83    0.81
   5   4  -4   15.55    1.31
  -5  -4   4   17.54    1.29
   4   4  -4    0.92    1.16
   4   4  -4    2.82    0.65
  -4  -4   4    2.74    0.40
  -4  -4   4    2.63    0.57
   3   4  -4  155.08    6.64
  -3  -4   4  163.34    3.41
  -3  -4   4  155.22    3.78
   3   4  -4  155.59    3.82
   2   4  -4  282.52    5.79
   2   4  -4  283.46   10.69
  -2  -4   4  282.32    5.61
  -2  -4   4  278.88    5.85
  -1  -4   4  932.34   17.67
   1   4  -4  942.49   17.39
  -1  -4   4  961.08   17.58
   0  -4   4  110.75    2.54
   0   4  -4  109.41    2.30
   0  -4   4  107.36    2.51
   1  -4   4   16.39    0.81
   1  -4   4   17.61    0.80
  -1   4  -4   18.56    0.63
   2  -4   4    1.39    0.35
   2  -4   4    1.23    0.27
  -2   4  -4   -0.19    0.55
   2  -4   4    0.42    0.26
   3  -4   4   69.12    1.92
   3  -4   4   66.82    2.08
   3  -4   4   71.89    2.09
   4  -4   4  107.81    3.06
   4  -4   4  109.76    5.22
   4  -4   4  108.93    2.89
   4  -4   4  104.18    2.97
   5  -4   4    9.42    0.93
   5  -4   4   10.95    1.04
   5  -4   4   12.88    2.17
  -5   4  -4    8.32    0.86
   6  -4   4    3.64    0.77
   6  -4   4    2.61    0.75
  -6   4  -4    4.26    0.75
  -7   4  -4    0.98    0.82
   7  -4   4    1.30    0.71
  -7  -3   4    0.41    0.58
   7   3  -4   -0.06    0.82
   6   3  -4    8.33    1.19
  -6  -3   4    8.84    1.15
  -5  -3   4   59.31    2.31
   5   3  -4   56.47    2.35
   4   3  -4   -0.57    1.08
  -4  -3   4    0.65    0.45
   4   3  -4    0.69    0.50
  -4  -3   4    1.10    0.32
   3   3  -4   16.15    1.01
  -3  -3   4   16.97    0.77
  -3  -3   4   16.85    0.92
   3   3  -4   15.52    1.82
   2   3  -4   -0.13    0.77
  -2  -3   4    1.02    0.25
   2   3  -4    1.40    0.35
  -2  -3   4    1.33    0.33
   1   3  -4  209.86    4.32
  -1  -3   4  212.73    4.39
  -1  -3   4  216.16    4.36
   0   3  -4  171.03    3.45
   0  -3   4  165.82    3.58
   0  -3   4  170.49    3.52
   1  -3   4  156.67    3.31
  -1   3  -4  160.95    3.20
   1  -3   4  151.94    3.44
   2  -3   4  179.51    3.86
   2  -3   4  184.91    3.99
   2  -3   4  177.38    3.72
   2  -3   4  172.84    7.14
   3  -3   4  161.49    3.80
   3  -3   4  157.02    6.76
   3  -3   4  164.95    3.67
   3  -3   4  165.47    3.78
   4  -3   4    3.79    0.58
   4  -3   4    3.13    0.63
   4  -3   4    3.38    0.60
   4  -3   4    5.97    1.63
   5  -3   4    6.57    0.86
  -5   3  -4    6.14    0.73
   5  -3   4   10.30    2.11
   5  -3   4    8.50    0.96
  -6   3  -4   -0.73    0.57
   6  -3   4   -0.47    0.47
   7  -3   4    1.65    0.71
  -7   3  -4    2.57    0.94
   7   2  -4   10.04    1.44
  -7  -2   4   11.28    1.32
  -6  -2   4   49.92    2.29
   6   2  -4   44.76    2.29
  -5  -2   4   18.87    1.28
   5   2  -4   16.34    1.34
  -4  -2   4   62.11    1.81
  -4  -2   4   63.76    2.17
   4   2  -4   61.64    2.25
   4   2  -4   65.61    3.53
   3   2  -4    9.80    0.84
  -3  -2   4   12.00    0.68
   3   2  -4   10.53    1.47
  -3  -2   4   12.94    0.83
  -2  -2   4  443.16    8.42
   2   2  -4  431.50    8.57
  -2  -2   4  434.72    8.53
   1   2  -4   44.78    1.33
  -1  -2   4   45.53    1.25
  -1  -2   4   46.69    1.29
   0  -2   4  173.70    3.67
   0   2  -4  174.59    3.61
   0  -2   4  176.37    3.53
   1  -2   4  490.74    9.52
   1  -2   4  501.82    9.36
  -1   2  -4  496.94    9.32
   2  -2   4  516.71   18.32
   2  -2   4  529.05   10.06
   2  -2   4  531.65   10.18
   3  -2   4    1.94    0.43
   3  -2   4    0.35    0.36
   3  -2   4   -0.14    1.14
   3  -2   4    0.50    0.32
   4  -2   4   74.88    2.22
   4  -2   4   76.83    2.33
   4  -2   4   73.91    2.29
   4  -2   4   73.12    4.02
   5  -2   4   48.76    1.95
  -5   2  -4   47.35    1.75
   5  -2   4   50.31    3.43
   6  -2   4    0.79    0.59
  -6   2  -4    0.93    0.71
  -7   2  -4   -0.11    0.76
   7  -2   4   -0.32    0.54
   7   1  -4    2.68    0.89
  -7  -1   4    0.58    0.60
   6   1  -4   30.03    1.89
  -6  -1   4   30.82    1.80
   5   1  -4   -0.21    0.53
  -5  -1   4    0.55    0.48
  -4  -1   4    1.40    0.41
   4   1  -4    3.87    1.27
   4   1  -4    1.70    0.56
  -4  -1   4    1.18    0.51
  -3  -1   4   39.57    1.27
  -3  -1   4   36.90    1.43
   3   1  -4   39.76    1.56
   3   1  -4   37.15    2.25
  -2  -1   4  954.72   17.82
  -2  -1   4  948.48   17.74
   2   1  -4  960.78   17.86
  -1  -1   4  531.20   10.12
  -1  -1   4  533.33   10.02
   1   1  -4  534.92   10.13
   0   1  -4  308.87    6.08
   0  -1   4  309.73    5.89
   0  -1   4  310.58    6.10
   1  -1   4  202.46    7.74
  -1   1  -4  202.92    4.14
   1  -1   4  205.89    4.01
   1  -1   4  206.35    4.24
  -2   1  -4  118.60    2.67
   2  -1   4  115.29    2.59
   2  -1   4  113.71    2.68
   2  -1   4  114.21    5.00
   3  -1   4  434.39    8.52
   3  -1   4  417.05   15.38
   3  -1   4  428.88    8.50
   3  -1   4  426.66    8.47
   4  -1   4    2.10    0.52
   4  -1   4    2.37    1.34
   4  -1   4    1.95    0.41
   4  -1   4    2.61    0.54
   5  -1   4   38.13    3.10
   5  -1   4   40.24    1.79
   6  -1   4   -0.06    0.51
  -6   1  -4   -0.64    0.57
   7  -1   4    0.57    0.62
  -7   1  -4    0.14    0.74
  -7   0   4    1.58    0.72
   7   0  -4    0.41    0.65
  -6   0   4    0.70    0.61
   6   0  -4    1.65    0.72
   5   0  -4    1.08    0.62
  -5   0   4    1.77    0.52
  -5   0   4    0.72    0.42
  -4   0   4  478.07    9.48
   4   0  -4  475.36    9.97
  -4   0   4  486.62    9.85
   3   0  -4 2215.33   40.19
  -3   0   4 2183.22   40.08
  -3   0   4 2174.70   40.29
  -2   0   4  392.86    7.79
  -2   0   4  398.61    7.80
   2   0  -4  411.06    8.01
   1   0  -4 3435.39   57.26
  -1   0   4 3009.58   58.99
  -1   0   4 3054.88   59.74
   0   0  -4 2337.55   41.19
   0   0   4 2235.45   41.38
   0   0   4 2243.70   74.64
   1   0   4  245.31    8.98
  -1   0  -4  242.99    4.89
   1   0   4  243.11    4.67
   1   0   4  241.95    4.92
   2   0   4  168.89    3.54
  -2   0  -4  169.19    3.70
   2   0   4  172.68    6.82
   2   0   4  170.52    3.66
   3   0   4 1488.98   27.34
   3   0   4 1460.20   27.35
   3   0   4 1494.03   49.57
   4   0   4    3.43    0.61
   4   0   4    6.03    1.60
   4   0   4    5.70    0.57
  -4   0  -4    3.99    0.55
   5   0   4    3.29    0.72
   5   0   4    3.50    1.71
  -5   0  -4    3.68    0.72
   6   0   4    1.52    0.67
  -6   0  -4    2.04    0.74
   7   0   4    1.24    0.70
  -7   0  -4    0.86    0.78
   7  -1  -4    1.74    0.79
  -7   1   4    1.45    0.74
   6  -1  -4   28.58    1.79
  -6   1   4   28.02    1.70
  -5   1   4    0.41    0.45
   5  -1  -4   -0.16    0.52
  -5   1   4    0.65    0.44
  -4   1   4    2.38    0.46
  -4   1   4    2.32    0.54
   4  -1  -4    1.85    0.61
  -3   1   4   39.21    1.39
   3  -1  -4   37.17    1.54
  -3   1   4   39.01    1.33
  -2   1   4  949.18   17.46
   2  -1  -4  946.67   17.55
  -2   1   4  908.37   17.41
  -1   1   4  508.28    9.68
   1  -1  -4  530.33    9.97
   1  -1  -4  514.84   17.59
  -1   1   4  517.01    9.87
   0   1   4  289.19   10.38
   0  -1  -4  296.41    5.88
   0   1   4  294.20    5.78
   1   1   4  210.20    4.21
  -1  -1  -4  198.66    3.93
  -1  -1  -4  206.81    4.26
   1   1   4  205.92    7.78
  -2  -1  -4  114.75    2.44
  -2  -1  -4  116.12    2.75
   2   1   4  112.07    5.00
   2   1   4  112.28    2.57
   3   1   4  423.42    8.51
  -3  -1  -4  433.02    8.33
   3   1   4  427.74   15.35
   3   1   4  411.55    8.28
   4   1   4    1.78    0.51
   4   1   4    2.29    0.38
  -4  -1  -4    4.16    0.55
   4   1   4    1.08    1.38
   5   1   4   41.98    3.32
  -5  -1  -4   41.06    1.74
   5   1   4   40.74    1.84
  -6  -1  -4    0.44    0.56
   6   1   4   -0.18    0.54
   6   1   4   -1.88    1.23
  -7  -1  -4    0.90    0.76
   7   1   4   -0.23    0.55
   7  -2  -4   10.93    1.38
  -7   2   4   10.08    1.23
   6  -2  -4   46.08    2.26
  -6   2   4   45.55    2.14
  -5   2   4   17.12    1.04
   5  -2  -4   16.61    1.33
  -5   2   4   18.10    1.22
   4  -2  -4   54.88    2.12
  -4   2   4   59.90    1.86
  -4   2   4   58.00    1.97
  -3   2   4   10.99    0.74
   3  -2  -4   10.87    0.89
   2  -2  -4  425.59    8.45
  -2   2   4  437.76    8.48
   2  -2  -4  435.77    8.63
   1  -2  -4   42.87    1.12
   1  -2  -4   41.78    1.41
  -1   2   4   45.47    2.15
  -1   2   4   42.46    1.27
   0   2   4  165.88    3.54
   0  -2  -4  171.71    3.70
   0   2   4  170.97    6.39
   0  -2  -4  168.72    3.32
  -1  -2  -4  479.32    9.08
   1   2   4  478.65   16.77
  -1  -2  -4  493.07    9.31
   1   2   4  484.74    9.21
  -2  -2  -4  527.99   10.07
   2   2   4  518.56   18.17
  -2  -2  -4  512.11    9.76
   2   2   4  517.86    9.87
   3   2   4    1.45    1.16
   3   2   4    1.66    0.46
   3   2   4    0.40    0.28
  -3  -2  -4   -0.11    0.29
  -4  -2  -4   73.61    2.13
   4   2   4   73.15    1.96
   4   2   4   70.17    2.35
   4   2   4   71.17    4.20
   5   2   4   52.49    2.11
   5   2   4   54.17    3.75
  -5  -2  -4   49.54    1.93
   6   2   4    0.23    1.48
  -6  -2  -4    0.56    0.63
   6   2   4    0.65    0.61
  -7  -2  -4   -0.32    0.67
   7   2   4   -0.25    0.55
   7  -3  -4    0.52    0.72
  -7   3   4    0.30    0.59
   6  -3  -4    7.17    1.08
  -6   3   4    6.26    0.94
  -6   3   4    8.10    0.86
   5  -3  -4   52.19    2.22
  -5   3   4   51.26    2.01
  -5   3   4   48.07    1.84
   4  -3  -4    0.06    0.46
  -4   3   4    0.84    0.39
   3  -3  -4   15.44    1.02
  -3   3   4   16.65    0.89
   3  -3  -4   15.93    0.94
  -2   3   4    1.15    0.32
   2  -3  -4    1.22    0.41
   2  -3  -4    1.36    0.32
   1  -3  -4  202.08    4.06
  -1   3   4  199.12    4.23
  -1   3   4  205.55    7.27
   1  -3  -4  202.58    4.41
   0   3   4  160.77    3.41
   0  -3  -4  157.69    3.13
   0   3   4  162.87    6.10
   1   3   4  148.25    6.04
  -1  -3  -4  153.69    3.40
   1   3   4  153.66    3.22
   2   3   4  180.98    3.70
  -2  -3  -4  177.72    3.97
  -2  -3  -4  179.37    3.64
   2   3   4  170.73    7.07
   3   3   4  158.17    6.89
  -3  -3  -4  162.21    3.58
   3   3   4  164.14    3.89
   3   3   4  162.86    3.47
   4   3   4    2.61    1.67
  -4  -3  -4    4.34    0.57
   4   3   4    4.76    0.73
   5   3   4   11.62    2.32
  -5  -3  -4    7.32    0.86
   5   3   4    7.51    0.98
  -6  -3  -4    0.35    0.59
   6   3   4   -1.17    1.37
   6   3   4   -0.11    0.54
  -7  -3  -4    2.21    0.89
   7   3   4    2.21    0.84
  -7   4   4    4.02    0.92
   7  -4  -4    5.34    1.07
   6  -4  -4    2.19    0.80
  -6   4   4    2.40    0.63
  -6   4   4    2.50    0.66
  -5   4   4   15.85    1.06
   5  -4  -4   16.34    1.34
   4  -4  -4    2.77    0.68
   4  -4  -4    2.87    0.61
  -4   4   4    3.05    0.51
  -3   4   4  151.41    3.56
   3  -4  -4  148.88    3.63
   3  -4  -4  149.89    3.77
   2  -4  -4  274.18    5.67
   2  -4  -4  268.96    5.83
  -2   4   4  282.39    5.76
  -1   4   4  925.52   30.36
   1  -4  -4  908.49   17.14
  -1   4   4  909.80   17.06
   1  -4  -4  903.53   16.91
   0  -4  -4  103.56    2.19
   0  -4  -4  107.80    2.63
   0   4   4  103.52    4.32
   0   4   4  102.73    2.40
   1   4   4   18.17    0.72
  -1  -4  -4   18.23    0.65
   1   4   4   15.48    1.70
  -1  -4  -4   15.83    0.83
  -2  -4  -4    1.23    0.26
   2   4   4    1.21    0.24
  -2  -4  -4    1.01    0.35
   2   4   4    1.20    0.91
  -3  -4  -4   65.26    2.10
  -3  -4  -4   67.78    1.86
   3   4   4   63.94    3.82
   3   4   4   67.60    1.68
   4   4   4  103.66    3.01
  -4  -4  -4  107.96    2.78
   4   4   4   94.24    5.31
  -5  -4  -4   10.37    0.97
   5   4   4   10.20    1.09
   5   4   4   11.30    2.42
   6   4   4    5.50    2.07
  -6  -4  -4    4.73    0.85
   6   4   4    1.80    0.75
  -7  -4  -4    1.39    0.79
   7   4   4    1.22    0.72
   7  -5  -4    4.75    1.05
  -7   5   4    5.06    0.94
  -6   5   4    0.20    0.47
  -6   5   4    0.45    0.52
   6  -5  -4    0.64    0.65
   5  -5  -4    3.51    0.81
   5  -5  -4    5.94    0.90
  -5   5   4    4.60    0.71
   4  -5  -4    0.27    0.47
   4  -5  -4    0.60    0.50
  -4   5   4    4.51    0.61
   3  -5  -4   10.51    0.81
   3  -5  -4    7.61    0.81
  -3   5   4    8.90    0.74
   2  -5  -4  230.47    5.15
   2  -5  -4  233.77    4.97
  -2   5   4  239.32    5.07
   1  -5  -4  394.93    8.03
   1  -5  -4  395.50    7.72
  -1   5   4  409.47    7.90
  -1   5   4  396.35   13.68
   0  -5  -4   12.00    0.82
   0   5   4   11.54    1.46
   0   5   4   12.08    0.65
   0  -5  -4   12.66    0.58
   1   5   4    7.87    1.30
  -1  -5  -4    5.28    0.46
  -1  -5  -4    5.48    0.55
   1   5   4    3.71    0.37
   2   5   4   -0.10    0.17
   2   5   4    2.94    1.15
  -2  -5  -4   -0.03    0.26
  -2  -5  -4   -0.11    0.24
   3   5   4    7.37    1.79
  -3  -5  -4    5.43    0.66
  -3  -5  -4    6.66    0.60
   3   5   4    6.13    0.45
   4   5   4   40.64    1.78
   4   5   4   39.62    3.39
  -4  -5  -4   42.02    1.61
  -5  -5  -4   16.15    1.16
   5   5   4   14.69    1.23
   5   5   4   19.40    2.76
   6   5   4    0.40    1.68
   6   5   4   -0.35    0.54
  -6  -5  -4   -0.14    0.54
  -7  -5  -4    0.99    0.90
   7   5   4    1.15    0.74
   7  -6  -4    1.27    0.79
  -7   6   4    0.89    0.59
  -6   6   4   37.16    1.78
   6  -6  -4   40.86    2.15
  -5   6   4    6.44    0.79
   5  -6  -4    6.72    0.97
   5  -6  -4    7.92    0.98
  -4   6   4   48.12    1.83
   4  -6  -4   48.84    1.94
   4  -6  -4   49.28    2.01
  -3   6   4   31.26    1.35
   3  -6  -4   30.95    1.47
   3  -6  -4   31.23    1.35
   2  -6  -4  129.21    3.14
   2  -6  -4  126.78    3.30
  -2   6   4  138.82    3.26
   1  -6  -4   -0.19    0.24
  -1   6   4   -0.43    0.59
  -1   6   4   -0.05    0.23
   1  -6  -4    0.53    0.40
   0   6   4  876.57   16.33
   0  -6  -4  883.16   16.50
   0  -6  -4  899.06   16.25
   0   6   4  828.39   29.29
   1   6   4    2.17    0.29
  -1  -6  -4    2.31    0.42
   1   6   4    2.15    0.98
  -1  -6  -4    1.72    0.32
  -2  -6  -4  387.74    7.45
  -2  -6  -4  370.36    7.69
   2   6   4  371.06    7.26
   2   6   4  373.89   13.83
   3   6   4   76.85    4.49
  -3  -6  -4   79.44    2.19
  -3  -6  -4   81.09    2.48
  -4  -6  -4   20.94    1.15
   4   6   4   19.09    2.91
   5   6   4   17.06    2.88
  -5  -6  -4   12.84    1.12
   5   6   4   11.71    1.13
   6   6   4    9.89    2.74
  -6  -6  -4    7.61    1.05
   6   6   4    7.32    1.07
   7   6   4    0.66    0.67
  -7  -6  -4    0.42    0.84
   7  -7  -4    2.70    0.91
  -7   7   4    1.97    0.76
   6  -7  -4    1.49    0.78
   6  -7  -4    3.47    0.90
  -6   7   4    1.39    0.61
   5  -7  -4    5.55    0.86
  -5   7   4    6.00    0.79
   5  -7  -4    5.49    0.90
   4  -7  -4   51.63    2.07
  -4   7   4   49.97    1.90
   4  -7  -4   53.14    2.06
   3  -7  -4   10.72    0.97
   3  -7  -4   10.99    0.92
  -3   7   4   11.37    0.83
   2  -7  -4    1.92    0.45
   2  -7  -4    4.88    0.69
  -2   7   4    1.42    0.44
  -1   7   4  138.26    5.51
   1  -7  -4  141.10    3.48
  -1   7   4  141.66    3.33
   1  -7  -4  140.72    3.20
   0   7   4   58.98    1.68
   0  -7  -4   57.94    1.88
   0   7   4   56.11    3.17
   0  -7  -4   59.76    1.64
   1   7   4   19.08    2.10
   1   7   4   19.06    0.79
  -1  -7  -4   20.14    1.01
  -1  -7  -4   21.12    0.90
   2   7   4   72.79    1.81
   2   7   4   77.17    4.15
  -2  -7  -4   75.71    2.06
  -2  -7  -4   74.54    2.25
  -3  -7  -4    1.25    0.48
  -3  -7  -4    1.72    0.47
   3   7   4    1.11    1.41
  -4  -7  -4    0.55    0.49
   4   7   4    0.87    1.84
  -4  -7  -4    0.51    0.45
   5   7   4    0.53    0.64
  -5  -7  -4    0.19    0.51
   5   7   4   -0.46    1.76
  -6  -7  -4    1.31    0.72
   6   7   4    0.48    0.73
   6   7   4    3.13    2.39
   7   7   4    2.41    2.17
   7   7   4    1.18    0.76
  -7   8   4   10.33    1.16
   7  -8  -4   12.24    1.41
   6  -8  -4    0.20    0.62
  -6   8   4    0.39    0.54
   6  -8  -4    0.15    0.68
   5  -8  -4    5.03    0.87
   5  -8  -4    3.85    0.82
  -5   8   4    3.53    0.71
  -4   8   4    1.89    0.52
   4  -8  -4    1.80    0.61
   4  -8  -4    1.45    0.60
   3  -8  -4    1.21    0.55
   3  -8  -4   -0.29    0.37
  -3   8   4    0.49    0.40
  -2   8   4  151.80    3.78
   2  -8  -4  156.28    3.73
   2  -8  -4  160.27    3.92
  -1   8   4  800.26   26.45
   1  -8  -4  778.94   15.06
   1  -8  -4  771.98   14.86
  -1   8   4  778.20   14.94
   0  -8  -4    8.36    0.68
   0   8   4    9.64    0.65
   0   8   4   10.99    1.53
   0  -8  -4    7.62    0.78
  -1  -8  -4    3.59    0.55
   1   8   4    3.21    0.39
  -1  -8  -4    3.55    0.49
   1   8   4    2.81    1.33
  -2  -8  -4   52.77    1.86
  -2  -8  -4   52.71    1.71
   2   8   4   52.48    3.52
   2   8   4   50.97    1.41
  -3  -8  -4    0.39    0.41
   3   8   4    0.09    1.40
  -3  -8  -4   -0.17    0.39
  -4  -8  -4   94.12    2.82
  -4  -8  -4   92.79    3.06
   4   8   4   99.31    5.60
  -5  -8  -4    0.55    0.49
   5   8   4    1.92    2.24
  -5  -8  -4    1.53    0.67
   6   8   4   -0.74    1.99
  -6  -8  -4   -0.12    0.66
   7   8   4    3.02    2.20
  -7   9   4   -0.14    0.63
   7  -9  -4    1.23    0.69
   7  -9  -4    0.65    0.90
  -6   9   4    1.89    0.66
   6  -9  -4    2.01    0.79
   6  -9  -4    2.93    0.91
   5  -9  -4    5.61    0.87
   5  -9  -4    5.60    0.93
  -5   9   4    5.04    0.81
  -4   9   4    1.11    0.54
   4  -9  -4    1.26    0.60
   4  -9  -4    1.46    0.59
   3  -9  -4  150.95    3.95
   3  -9  -4  157.05    4.00
   2  -9  -4  167.84    4.03
  -2   9   4  169.93    4.09
   2  -9  -4  167.81    4.14
  -1   9   4   26.29    2.29
   1  -9  -4   27.66    1.35
   1  -9  -4   24.86    1.16
  -1   9   4   25.60    1.17
   0   9   4  156.20    3.58
   0  -9  -4  152.71    3.80
   0   9   4  149.41    6.42
   0  -9  -4  157.62    3.60
  -1  -9  -4   46.25    1.56
   1   9   4   40.36    3.16
   1   9   4   45.70    1.41
  -1  -9  -4   43.32    1.66
   2   9   4   14.95    2.40
  -2  -9  -4   13.82    0.98
   2   9   4   13.11    0.68
  -2  -9  -4   15.31    1.02
   3   9   4   14.67    2.69
  -3  -9  -4   16.60    1.11
  -3  -9  -4   19.83    1.22
  -4  -9  -4   10.39    1.10
   4   9   4   14.22    2.86
  -4  -9  -4   11.24    1.06
   5   9   4   20.75    3.21
  -5  -9  -4   12.65    1.16
  -5  -9  -4   12.01    1.17
  -6  -9  -4    0.79    0.70
  -6  -9  -4    0.79    0.50
   6   9   4    0.71    2.40
   7   9   4    3.54    2.34
  -7  -9  -4    1.25    0.56
  -7  10   4    8.31    1.15
   7 -10  -4    9.29    1.27
   6 -10  -4    9.26    1.27
   6 -10  -4   11.36    1.31
  -6  10   4    7.69    1.03
   5 -10  -4    1.81    0.63
   5 -10  -4    3.42    0.83
  -5  10   4    2.77    0.67
   4 -10  -4   44.86    1.93
   4 -10  -4   40.70    1.90
  -4  10   4   39.99    1.82
  -3  10   4  164.09    4.19
   3 -10  -4  164.05    4.24
   3 -10  -4  169.85    4.26
   2 -10  -4    8.65    0.91
   2 -10  -4    7.98    0.81
  -2  10   4    8.20    0.77
  -1  10   4   22.40    1.10
  -1  10   4   21.72    2.17
   1 -10  -4   20.28    1.23
   1 -10  -4   22.07    1.14
   0  10   4   67.67    3.87
   0  10   4   69.13    2.02
   0 -10  -4   67.10    2.23
   0 -10  -4   69.71    2.09
  -1 -10  -4   23.99    1.16
   1  10   4   22.35    2.61
  -1 -10  -4   22.49    1.25
   1  10   4   23.02    0.98
  -2 -10  -4    0.31    0.40
   2  10   4    1.47    1.52
  -2 -10  -4   -0.32    0.49
  -3 -10  -4   29.26    1.51
  -3 -10  -4   29.07    1.51
   3  10   4   30.13    3.50
  -4 -10  -4   -0.35    0.53
   4  10   4   -0.68    1.85
  -4 -10  -4   -0.25    0.44
   5  10   4   32.54    3.66
  -5 -10  -4   21.59    1.55
  -5 -10  -4   23.21    1.59
   6  10   4    5.97    2.75
  -6 -10  -4    3.52    0.83
   6 -11  -4    0.22    0.74
   6 -11  -4    1.08    0.61
  -6  11   4   -0.43    0.58
  -5  11   4   12.91    1.14
   5 -11  -4   17.74    1.33
   5 -11  -4   16.55    1.38
   4 -11  -4   10.24    1.09
  -4  11   4   10.48    1.04
   4 -11  -4    9.68    1.01
   3 -11  -4    5.90    0.86
  -3  11   4    5.51    0.74
   3 -11  -4    5.77    0.84
  -2  11   4    2.95    0.57
   2 -11  -4    3.24    0.66
   2 -11  -4    1.97    0.63
   1 -11  -4   30.58    1.51
   1 -11  -4   28.69    1.37
  -1  11   4   30.15    1.33
  -1  11   4   29.85    2.51
   0 -11  -4   83.36    2.46
   0 -11  -4   83.52    2.60
   0  11   4   83.76    2.36
   0  11   4   79.32    4.41
   1  11   4   -0.53    1.32
   1  11   4    0.65    0.33
  -1 -11  -4    0.78    0.51
  -1 -11  -4    0.27    0.51
  -2 -11  -4   39.06    1.73
  -2 -11  -4   40.51    1.71
   2  11   4   43.54    3.64
   3  11   4   -0.46    1.93
  -3 -11  -4   -0.86    0.56
  -3 -11  -4   -0.01    0.47
   4  11   4   16.50    3.01
  -4 -11  -4   11.41    1.19
  -4 -11  -4   12.87    1.19
  -5 -11  -4   -0.26    0.65
   5  11   4    3.40    2.47
  -5 -11  -4    0.74    0.57
   6  11   4   -2.03    2.19
  -6 -11  -4    0.32    0.51
  -6  12   4    2.15    0.81
   6 -12  -4    1.84    0.95
  -5  12   4    0.84    0.63
   5 -12  -4    2.04    0.79
   5 -12  -4    2.10    0.70
   4 -12  -4    0.01    0.59
   4 -12  -4   -0.07    0.44
  -4  12   4    0.26    0.48
  -3  12   4   23.34    1.33
   3 -12  -4   23.37    1.42
   3 -12  -4   23.08    1.37
   2 -12  -4  189.19    4.66
   2 -12  -4  187.09    4.61
  -2  12   4  185.96    4.60
  -1  12   4   96.37    2.89
   1 -12  -4  107.79    3.13
   1 -12  -4  111.20    3.08
  -1  12   4  114.41    5.16
   0  12   4   -0.15    0.32
   0  12   4   -1.49    1.22
   0 -12  -4   -0.35    0.50
   0 -12  -4   -0.09    0.47
  -1 -12  -4    3.72    0.72
   1  12   4    3.55    0.49
  -1 -12  -4    2.66    0.67
   1  12   4    3.23    1.81
   2  12   4   10.60    2.49
  -2 -12  -4    8.30    0.94
  -2 -12  -4    7.81    0.93
  -3 -12  -4   43.43    1.99
   3  12   4   47.23    4.29
  -3 -12  -4   43.18    1.99
  -4 -12  -4   33.00    1.82
   4  12   4   41.64    4.03
  -4 -12  -4   31.12    1.81
  -5 -12  -4    3.09    0.93
  -5 -12  -4    5.54    0.96
   5  12   4    6.21    2.57
   6  12   4    3.67    2.54
  -6 -12  -4    2.22    0.71
  -6  13   4    0.07    0.64
   6 -13  -4    0.27    0.78
  -5  13   4   -0.07    0.58
   5 -13  -4    0.38    0.69
   4 -13  -4    2.04    0.74
  -4  13   4    1.34    0.57
   4 -13  -4    2.21    0.63
   3 -13  -4  169.42    4.35
   3 -13  -4  168.83    4.52
  -3  13   4  160.08    4.36
  -2  13   4   20.73    1.23
   2 -13  -4   23.97    1.39
   2 -13  -4   22.82    1.38
  -1  13   4   14.08    2.12
  -1  13   4   10.66    0.90
   1 -13  -4   11.12    1.13
   1 -13  -4   11.16    1.03
   0 -13  -4   67.76    2.42
   0  13   4   63.21    2.09
   0 -13  -4   65.09    2.25
   0  13   4   64.03    4.09
   1  13   4   11.19    0.79
   1  13   4   15.50    2.64
  -1 -13  -4   10.58    1.05
  -1 -13  -4   10.13    1.05
   2  13   4    2.87    2.04
  -2 -13  -4    1.42    0.60
  -2 -13  -4    1.72    0.69
   3  13   4  113.53    6.40
  -3 -13  -4   99.37    3.27
  -3 -13  -4   96.85    3.20
  -4 -13  -4   13.39    1.39
  -4 -13  -4   13.87    1.26
   4  13   4   19.23    3.31
  -5 -13  -4    0.15    0.52
   5  13   4    0.23    2.16
  -6 -13  -4    0.98    0.63
   6  13   4    1.94    2.35
  -6  14   4    0.54    0.73
   5 -14  -4    1.54    0.81
  -5  14   4    0.18    0.58
  -4  14   4    0.40    0.50
   4 -14  -4    0.52    0.66
  -3  14   4   11.40    1.08
   3 -14  -4   11.85    1.19
   2 -14  -4   22.13    1.42
   2 -14  -4   24.42    1.45
  -2  14   4   24.66    1.39
  -1  14   4   27.78    2.75
  -1  14   4   25.67    1.34
   1 -14  -4   29.04    1.55
   1 -14  -4   25.05    1.50
   0 -14  -4   16.77    1.36
   0 -14  -4   17.11    1.26
   0  14   4   16.78    2.72
   0  14   4   17.03    1.04
  -1 -14  -4    0.98    0.62
  -1 -14  -4    1.35    0.71
   1  14   4    0.75    1.87
   2  14   4    0.84    2.10
  -2 -14  -4    0.86    0.72
  -2 -14  -4   -0.13    0.46
  -3 -14  -4    8.73    1.09
  -3 -14  -4    8.24    1.15
   3  14   4   12.21    3.14
   4  14   4    8.39    2.78
  -4 -14  -4    6.75    1.18
  -4 -14  -4    7.95    1.09
   5  14   4   -0.74    1.91
  -5 -14  -4   -0.09    0.48
  -5  15   4    0.18    0.68
   5 -15  -4   -0.59    0.68
  -4  15   4    7.70    0.97
   4 -15  -4    6.64    1.06
  -3  15   4   -0.08    0.43
   3 -15  -4   -0.09    0.60
  -2  15   4   10.12    0.97
   2 -15  -4   10.39    1.07
   1 -15  -4    0.85    0.64
   1 -15  -4    1.54    0.64
  -1  15   4    1.37    0.48
   0 -15  -4    0.50    0.61
   0  15   4    0.13    1.62
   0 -15  -4    0.44    0.61
   0  15   4    0.33    0.35
   1  15   4   10.84    2.66
  -1 -15  -4   10.42    1.07
  -1 -15  -4   10.94    1.11
  -2 -15  -4   10.06    1.12
  -2 -15  -4    8.95    1.08
   2  15   4   14.08    3.19
   3  15   4    8.99    2.85
  -3 -15  -4    5.42    0.94
  -3 -15  -4    6.02    1.05
   4  15   4    3.25    2.63
  -4 -15  -4    0.24    0.59
  -4 -15  -4    0.30    0.78
  -5 -15  -4    2.26    0.76
   5  15   4    1.31    2.29
  -5  16   4   -0.08    0.70
   5 -16  -4    0.76    0.87
  -4  16   4    0.38    0.48
   4 -16  -4    0.71    0.79
  -3  16   4    0.38    0.48
   3 -16  -4    0.78    0.65
  -2  16   4   39.41    1.85
   2 -16  -4   44.87    2.04
   1 -16  -4    1.13    0.66
  -1  16   4    0.86    0.47
   0  16   4    3.97    0.65
   0  16   4    6.25    2.21
   0 -16  -4    3.99    0.87
   1  16   4    5.78    2.47
  -1 -16  -4    4.86    0.93
  -1 -16  -4    5.34    0.93
  -2 -16  -4    0.93    0.68
   2  16   4    1.72    2.43
  -2 -16  -4    0.79    0.78
  -3 -16  -4    5.65    1.15
  -3 -16  -4    8.69    1.13
   3  16   4   10.36    3.08
   4  16   4    4.74    2.84
  -4 -16  -4    5.02    1.00
  -5 -16  -4   -0.26    0.53
   5  16   4    0.55    2.11
   4 -17  -4   12.01    1.37
  -4  17   4   10.39    1.15
   3 -17  -4    1.21    0.74
  -3  17   4    0.59    0.51
   2 -17  -4    2.53    0.79
  -2  17   4    1.77    0.61
   1 -17  -4    1.28    0.76
  -1  17   4    1.59    0.54
   0  17   4    3.52    2.21
   0 -17  -4    1.86    0.77
   1  17   4   13.62    3.09
  -1 -17  -4    9.10    1.17
  -2 -17  -4    8.79    1.25
   2  17   4   10.72    3.12
  -3 -17  -4   -0.05    0.65
   3  17   4    2.82    2.64
  -3 -17  -4    0.79    0.86
   4  17   4    2.79    3.10
   4 -18  -4    0.24    0.74
  -4  18   4   -0.03    0.53
   3 -18  -4    3.90    0.93
  -3  18   4    4.17    0.79
  -2  18   4    2.37    0.66
   2 -18  -4    2.58    0.84
   1 -18  -4   11.07    1.24
  -1  18   4    9.29    0.96
   0 -18  -4    0.61    0.72
   0  18   4    1.91    2.25
  -1 -18  -4    0.48    0.81
   1  18   4   -0.12    2.24
  -2 -18  -4    2.21    0.90
   2  18   4    6.18    3.04
   3  18   4    6.13    3.06
   4  18   4    3.33    3.07
   3 -19  -4   -0.11    0.70
  -3  19   4   -0.16    0.45
  -2  19   4   -0.36    0.42
   2 -19  -4   -0.28    0.63
   1 -19  -4    0.29    0.71
  -1  19   4   -0.36    0.40
   0 -19  -4    1.14    0.82
   1  19   4    8.87    3.02
  -1 -19  -4    1.90    0.92
   2  19   4    3.27    2.99
  -2 -19  -4    3.24    1.04
   3  19   4    3.01    2.88
   2 -20  -4    0.68    0.76
  -2  20   4    0.88    0.47
   1 -20  -4    5.51    1.08
   0 -20  -4    1.16    0.81
  -1 -20  -4    2.21    0.99
   1  20   4    4.90    3.02
   2  20   4   11.15    3.62
   1 -21  -4    0.79    0.83
   0 -21  -4    0.34    0.89
   1  21   4   23.48    4.34
  -1 -21  -4   11.95    1.55
   0 -21   5    0.88    0.92
  -2 -20   5    0.09    0.88
   2  20  -5   -1.20    2.49
   1  20  -5    1.38    3.14
  -1 -20   5    0.12    0.75
   0  20  -5    0.45    3.39
   0 -20   5   -0.34    0.74
   1 -20   5    5.72    1.16
  -1  20  -5    6.02    0.97
  -1  20  -5    9.77    3.84
   2 -20   5   -1.00    0.69
  -2  20  -5    1.28    0.65
   3  19  -5    1.21    2.38
  -3 -19   5   -0.10    0.87
   2  19  -5    0.58    2.80
  -2 -19   5    0.60    0.86
  -1 -19   5    0.71    0.84
   1  19  -5    0.07    2.87
   0  19  -5    3.80    3.63
   0 -19   5    5.17    1.09
  -1  19  -5   -0.38    2.80
   1 -19   5    0.81    0.78
  -1  19  -5    0.70    0.64
   2 -19   5    0.86    0.77
  -2  19  -5    1.78    0.71
  -3  19  -5    1.56    0.78
   3 -19   5    1.68    0.88
  -4 -18   5    4.55    1.27
   4  18  -5    6.84    2.81
  -3 -18   5    1.87    1.03
   3  18  -5    3.24    2.45
  -2 -18   5    0.72    0.87
   2  18  -5    0.58    2.80
   1  18  -5    3.14    3.07
  -1 -18   5    1.34    0.88
   0  18  -5   24.12    4.58
   0 -18   5   18.96    1.64
  -1  18  -5   -0.34    2.66
  -1  18  -5   -0.50    0.42
   1 -18   5   -0.06    0.66
   2 -18   5   -0.01    0.65
  -2  18  -5    0.59    0.49
  -2  18  -5   -0.27    2.75
   3 -18   5    1.41    0.78
  -3  18  -5    2.49    0.76
   4  17  -5    1.22    1.94
  -4 -17   5    0.24    0.92
   3  17  -5   19.88    3.21
  -3 -17   5   15.94    1.68
   2  17  -5    7.89    2.98
  -2 -17   5    4.60    1.12
  -1 -17   5    1.28    0.83
   1  17  -5    3.13    2.78
   0 -17   5    8.83    1.22
   0  17  -5    9.52    1.00
   0  17  -5   12.30    3.59
  -1  17  -5   15.33    3.90
   1 -17   5   10.73    1.31
  -1  17  -5   10.60    1.07
  -2  17  -5   -0.74    1.91
  -2  17  -5    0.93    0.62
   2 -17   5    0.23    0.69
  -3  17  -5    4.77    0.93
   3 -17   5    4.92    1.02
   4 -17   5    0.45    0.68
  -4  17  -5   -0.40    0.56
  -5 -16   5    1.59    1.05
   5  16  -5    2.69    1.96
  -4 -16   5    3.97    1.07
   4  16  -5    6.12    2.54
  -3 -16   5    8.67    1.36
   3  16  -5   11.56    3.11
   2  16  -5    0.74    2.58
  -2 -16   5    2.47    0.98
  -1 -16   5    0.97    0.73
   1  16  -5    0.92    2.27
   0 -16   5    2.07    0.82
   0  16  -5    3.28    3.05
   0  16  -5    2.45    0.59
  -1  16  -5   10.74    1.02
   1 -16   5   11.27    1.27
  -1  16  -5   10.93    2.88
   2 -16   5    2.08    0.80
  -2  16  -5    1.68    0.66
  -2  16  -5    0.40    1.88
  -3  16  -5    1.26    0.64
   3 -16   5    2.02    0.79
   4 -16   5    0.06    0.59
  -4  16  -5   -0.14    0.49
  -5 -15   5    2.14    0.96
   5  15  -5    1.89    1.86
   4  15  -5   11.37    2.95
  -4 -15   5    9.62    1.39
  -3 -15   5    2.30    0.88
   3  15  -5    4.40    2.42
   2  15  -5   22.18    3.50
  -2 -15   5   20.90    1.70
  -1 -15   5   24.73    1.70
   1  15  -5   24.32    4.11
   0 -15   5    2.12    0.74
   0 -15   5    2.43    0.64
   0  15  -5    3.23    3.07
  -1  15  -5   -0.28    2.44
   1 -15   5    0.81    0.69
   2 -15   5    8.42    1.08
  -2  15  -5    6.71    0.88
  -2  15  -5    2.43    2.62
  -3  15  -5    2.98    0.80
   3 -15   5    1.53    0.76
  -4  15  -5    7.90    1.09
   4 -15   5    6.23    1.06
  -5  15  -5    2.79    1.00
   5 -15   5    2.52    0.88
  -5 -14   5    0.61    0.83
   5  14  -5    1.07    1.95
  -4 -14   5   -0.41    0.67
   4  14  -5    1.55    1.95
   3  14  -5   24.83    4.06
  -3 -14   5   16.24    1.55
  -2 -14   5    1.45    0.83
   2  14  -5    1.53    1.77
  -1 -14   5   20.26    1.20
   1  14  -5   22.52    4.24
  -1 -14   5   20.39    1.58
   0  14  -5   21.72    3.53
   0 -14   5   19.67    1.45
   0 -14   5   19.14    1.25
  -1  14  -5    0.53    2.62
   1 -14   5    6.07    0.85
   1 -14   5    4.66    0.84
   2 -14   5    0.36    0.56
  -2  14  -5   -0.31    1.86
  -3  14  -5    2.02    0.68
   3 -14   5    3.42    0.85
  -3  14  -5    1.48    2.64
   4 -14   5    2.61    0.84
  -4  14  -5    2.53    0.77
   5 -14   5    2.89    0.85
  -5  14  -5    3.08    0.98
   6  13  -5    4.15    2.00
  -6 -13   5    1.66    1.02
  -5 -13   5    6.46    1.12
   5  13  -5    4.59    2.04
  -4 -13   5   -0.03    0.71
   4  13  -5    1.21    1.99
   3  13  -5    2.76    1.82
  -3 -13   5    0.95    0.73
  -2 -13   5   44.51    2.25
   2  13  -5   47.59    4.35
  -1 -13   5    3.45    0.59
  -1 -13   5    1.09    0.78
   1  13  -5    1.65    2.35
   0  13  -5   22.12    4.96
   0 -13   5   17.15    1.16
   0 -13   5   18.53    1.40
   1 -13   5   12.25    1.17
   1 -13   5   12.18    1.06
   2 -13   5   11.13    1.11
   2 -13   5   11.95    1.14
   3 -13   5   21.17    1.46
  -3  13  -5   20.52    1.36
   4 -13   5   11.84    1.27
  -4  13  -5   11.40    1.27
   5 -13   5    1.69    0.72
  -5  13  -5    0.79    0.73
  -6 -12   5    0.04    0.78
   6  12  -5    0.95    0.83
   6  12  -5    2.45    1.89
  -5 -12   5    4.25    1.03
   5  12  -5    4.94    2.22
   4  12  -5    2.17    1.80
  -4 -12   5    0.17    0.69
   3  12  -5   40.24    3.87
  -3 -12   5   33.94    1.98
  -2 -12   5  104.70    3.42
   2  12  -5  108.06    6.46
   1  12  -5   13.17    2.85
  -1 -12   5   12.65    1.27
  -1 -12   5   13.15    0.92
   0 -12   5    7.87    0.78
   0 -12   5    6.95    0.90
   0  12  -5    1.22    3.75
   1 -12   5    0.66    0.49
   1 -12   5    0.15    0.55
  -1  12  -5   -0.48    3.07
   2 -12   5    1.01    0.56
  -2  12  -5   -1.65    2.56
   2 -12   5    1.30    0.60
  -3  12  -5    1.97    3.44
   3 -12   5    0.39    0.60
   3 -12   5    1.17    0.67
   4 -12   5    1.77    0.74
  -4  12  -5    2.49    0.74
  -5  12  -5    3.21    0.91
   5 -12   5    3.63    0.89
   6 -12   5    1.32    0.62
  -6  12  -5    0.16    0.77
  -6 -11   5    0.67    0.76
   6  11  -5    0.51    0.79
   5  11  -5    1.74    1.58
   5  11  -5    1.85    0.76
  -5 -11   5    1.04    0.76
   4  11  -5   17.22    1.22
   4  11  -5   19.69    2.79
  -4 -11   5   17.00    1.45
  -3 -11   5  143.01    4.17
   3  11  -5  147.33    7.60
  -2 -11   5    0.25    0.67
  -2 -11   5    0.69    0.35
   2  11  -5   -0.55    1.89
  -1 -11   5   61.60    1.96
   1  11  -5   56.96    4.56
  -1 -11   5   67.11    2.42
   0 -11   5   59.14    2.26
   0 -11   5   64.39    2.08
   1 -11   5    5.26    0.81
  -1  11  -5   -1.21    2.83
   1 -11   5    5.38    0.72
   2 -11   5    1.74    0.61
  -2  11  -5   -1.86    3.05
   2 -11   5    2.25    0.63
   3 -11   5   47.11    2.06
   3 -11   5   48.84    2.08
   4 -11   5    7.92    1.05
  -4  11  -5    8.22    1.00
   5 -11   5    0.44    0.60
  -5  11  -5    0.97    0.70
   6 -11   5    0.44    0.63
  -6  11  -5    0.21    0.67
  -6 -10   5    2.83    0.95
   6  10  -5    2.20    0.88
  -5 -10   5    2.36    0.82
   5  10  -5    1.86    0.74
   5  10  -5    0.69    1.65
   4  10  -5   22.40    1.39
   4  10  -5   22.47    2.89
  -4 -10   5   20.42    1.49
   3  10  -5    1.27    0.53
  -3 -10   5    0.37    0.65
   3  10  -5    1.03    1.76
   2  10  -5   50.25    4.44
   2  10  -5   47.14    1.52
  -2 -10   5   49.56    2.08
  -2 -10   5   49.90    1.62
  -1 -10   5   73.20    2.47
  -1 -10   5   71.10    2.12
   0 -10   5   66.23    2.09
   0 -10   5   63.54    2.24
   1 -10   5   12.00    1.01
   1 -10   5   12.31    0.90
   2 -10   5   24.03    1.35
   2 -10   5   22.15    1.35
  -3  10  -5    0.57    2.36
   3 -10   5    1.90    0.65
   3 -10   5    1.77    0.58
   4 -10   5    7.75    0.97
  -4  10  -5    6.37    2.65
  -5  10  -5    0.19    0.58
   5 -10   5    0.52    0.60
  -6  10  -5   -0.63    0.60
   6 -10   5    0.68    0.63
   7   9  -5    2.08    1.04
  -7  -9   5    2.49    1.01
  -6  -9   5    0.06    0.56
   6   9  -5   -0.23    0.68
  -5  -9   5    3.40    0.84
   5   9  -5    2.08    1.62
   5   9  -5    2.84    0.80
  -4  -9   5  101.15    3.28
   4   9  -5  102.26    5.89
   4   9  -5   98.22    3.04
  -3  -9   5    1.14    0.63
   3   9  -5    1.33    0.52
   3   9  -5    0.78    1.73
  -2  -9   5  159.47    4.20
   2   9  -5  164.43    3.67
  -2  -9   5  166.44    3.71
   2   9  -5  161.00    8.07
  -1  -9   5   19.93    1.29
   1   9  -5   23.38    0.82
  -1  -9   5   24.50    1.10
   0  -9   5   26.27    1.32
   0  -9   5   27.03    1.21
   1  -9   5  120.26    3.19
   1  -9   5  118.68    3.22
   2  -9   5  504.59   10.11
   2  -9   5  475.87   10.08
   3  -9   5    6.07    0.83
   3  -9   5    6.76    0.85
   4  -9   5   31.20    1.66
   4  -9   5   29.33    1.62
   5  -9   5    1.30    0.62
  -5   9  -5    1.51    0.62
   6  -9   5    0.02    0.55
  -6   9  -5   -0.39    0.59
   7   8  -5   -0.05    0.81
  -7  -8   5    0.38    0.74
   6   8  -5    3.86    0.96
  -6  -8   5    5.77    1.04
  -5  -8   5    2.97    0.79
   5   8  -5    2.71    1.57
   5   8  -5    2.48    0.78
  -4  -8   5   19.99    1.38
   4   8  -5   21.83    1.37
   4   8  -5   20.78    2.86
  -3  -8   5   35.66    1.67
   3   8  -5   37.89    1.53
   3   8  -5   32.55    3.15
   2   8  -5   34.41    1.27
  -2  -8   5   32.46    1.51
  -2  -8   5   35.59    1.25
   2   8  -5   34.30    3.13
  -1  -8   5    5.72    0.58
   1   8  -5    4.72    0.44
  -1  -8   5    5.36    0.69
   0  -8   5   28.79    1.32
   0  -8   5   31.51    1.26
   2  -8   5  163.72    4.03
   2  -8   5  163.35    4.09
   3  -8   5    2.83    0.60
  -3   8  -5   -0.45    2.15
   3  -8   5    2.57    0.59
   4  -8   5    2.02    0.67
  -4   8  -5   -0.75    1.31
   4  -8   5    1.97    0.57
  -5   8  -5   17.12    1.31
   5  -8   5   18.07    1.36
  -6   8  -5   -0.13    0.57
   6  -8   5   -0.02    0.56
  -7   8  -5   -0.37    0.75
   7  -8   5    0.22    0.64
   7   7  -5    6.04    1.26
  -7  -7   5    5.04    1.12
   6   7  -5    0.40    0.71
  -6  -7   5    1.53    0.72
  -5  -7   5   22.30    1.53
   5   7  -5   21.42    1.54
   4   7  -5   13.54    2.45
   4   7  -5   13.47    1.13
  -4  -7   5   12.90    1.08
  -3  -7   5   72.22    2.45
  -3  -7   5   77.91    1.99
   3   7  -5   77.72    2.33
   3   7  -5   74.34    4.52
   2   7  -5    0.07    1.50
  -2  -7   5    0.28    0.44
   2   7  -5    0.13    0.31
  -2  -7   5    0.11    0.25
   1   7  -5  245.72    5.01
  -1  -7   5  254.78    5.33
  -1  -7   5  257.43    5.59
   0  -7   5   27.76    1.21
   0  -7   5   27.04    1.14
   1  -7   5   97.93    2.65
   1  -7   5  100.05    2.71
   2  -7   5    3.89    0.58
   2  -7   5    0.94    0.43
  -2   7  -5   -0.03    1.83
  -2   7  -5    1.95    0.29
   3  -7   5  225.04    5.24
   3  -7   5  226.58    5.31
   4  -7   5    3.94    0.68
   4  -7   5    3.82    0.73
  -5   7  -5    0.90    0.54
   5  -7   5    1.00    0.56
   6  -7   5    1.95    0.72
  -6   7  -5    1.00    0.64
   7  -7   5    5.51    1.02
  -7  -6   5    0.73    0.73
   7   6  -5    1.20    0.91
   6   6  -5    5.74    1.09
  -6  -6   5    7.70    1.12
  -5  -6   5   10.40    1.11
   5   6  -5   15.36    1.32
   4   6  -5   98.69    5.39
  -4  -6   5  102.37    3.12
   4   6  -5   98.47    3.04
  -3  -6   5   18.88    1.12
  -3  -6   5   17.67    0.84
   3   6  -5   17.56    1.06
   3   6  -5   16.52    2.48
  -2  -6   5    6.21    0.65
   2   6  -5    5.86    0.61
  -2  -6   5    6.82    0.56
  -1  -6   5   55.22    1.78
   1   6  -5   57.27    1.49
  -1  -6   5   53.84    1.62
   0  -6   5  125.45    3.00
   0  -6   5  120.81    3.00
   0   6  -5  125.09    2.54
   1  -6   5   82.33    2.27
   1  -6   5   84.80    2.36
  -1   6  -5   85.52    1.87
   2  -6   5   14.74    0.99
   2  -6   5   14.37    0.90
  -2   6  -5   14.16    0.68
   3  -6   5   31.66    1.42
   3  -6   5   29.89    1.40
   3  -6   5   31.65    1.16
   4  -6   5    0.22    0.45
  -4   6  -5    0.10    0.75
   4  -6   5   -0.24    0.39
   4  -6   5   -0.46    0.32
   5  -6   5    4.52    0.79
   6  -6   5    1.87    0.71
  -6   6  -5    1.72    0.68
   7   5  -5    0.98    0.91
  -7  -5   5   -0.06    0.60
  -6  -5   5    8.67    1.14
   6   5  -5    7.02    1.16
   5   5  -5    0.75    0.62
  -5  -5   5    0.14    0.53
  -4  -5   5  275.90    6.37
   4   5  -5  283.95   11.14
   4   5  -5  277.20    6.39
  -3  -5   5    7.80    0.77
   3   5  -5    7.64    0.78
  -3  -5   5    7.22    0.58
   3   5  -5    9.67    1.90
  -2  -5   5  361.09    7.34
  -2  -5   5  351.33    7.04
   2   5  -5  349.63    7.14
  -1  -5   5   89.17    2.21
   1   5  -5   85.89    2.08
  -1  -5   5   85.95    2.29
   0   5  -5  169.14    3.45
   0  -5   5  172.11    3.81
   0  -5   5  170.06    3.77
  -1   5  -5  132.68    2.80
   1  -5   5  134.23    3.11
   1  -5   5  130.95    3.19
   2  -5   5 1126.50   20.90
  -2   5  -5 1080.25   20.20
   2  -5   5 1102.92   20.70
   3  -5   5   14.33    0.80
   3  -5   5   17.04    1.00
   3  -5   5   14.42    0.93
   4  -5   5   43.15    1.77
   4  -5   5   45.26    1.65
   4  -5   5   46.37    1.83
  -5   5  -5   -0.36    0.91
   5  -5   5   -0.36    0.40
   5  -5   5    0.25    0.40
   5  -5   5    0.42    0.47
   6  -5   5    0.21    0.55
  -6   5  -5    0.18    0.54
   6  -5   5   -0.27    0.54
  -7   5  -5    3.12    1.03
  -7  -4   5    0.87    0.73
   7   4  -5    1.95    1.01
   6   4  -5    0.76    0.75
  -6  -4   5   -0.43    0.53
   5   4  -5   27.91    1.68
  -5  -4   5   26.24    1.55
   4   4  -5   59.24    3.73
  -4  -4   5   59.22    2.18
  -4  -4   5   62.76    1.81
   4   4  -5   58.86    2.23
   3   4  -5   39.33    3.04
  -3  -4   5   40.55    1.35
  -3  -4   5   37.16    1.52
   3   4  -5   40.39    1.60
   2   4  -5    5.61    0.59
  -2  -4   5    6.00    0.56
  -2  -4   5    5.96    0.61
   1   4  -5  694.23   13.06
  -1  -4   5  701.33   13.23
   0  -4   5  376.32    7.61
   0  -4   5  395.25    7.74
   0   4  -5  397.18    7.46
  -1   4  -5  214.21    4.28
   1  -4   5  211.19    4.62
   1  -4   5  212.06    4.44
   2  -4   5  392.57    7.99
   2  -4   5  388.03    7.80
  -2   4  -5  394.84    7.58
   3  -4   5   29.64    1.26
   3  -4   5   28.98    1.29
   3  -4   5   30.12    1.16
   4  -4   5    5.75    1.76
   4  -4   5    2.85    0.59
   4  -4   5    2.89    0.62
   4  -4   5    2.18    0.52
   5  -4   5   12.06    0.97
   5  -4   5   14.21    2.33
   5  -4   5   12.08    1.09
   5  -4   5   12.80    1.02
   6  -4   5    1.86    0.66
  -6   4  -5    2.04    0.65
   6  -4   5    2.56    0.75
   7  -4   5    2.15    0.78
  -7   4  -5    3.54    1.07
   7   3  -5    5.64    1.22
  -7  -3   5    5.91    1.07
  -6  -3   5    2.46    0.77
   6   3  -5    1.88    0.85
   5   3  -5   10.69    1.19
  -5  -3   5   11.89    1.09
   4   3  -5  121.05    5.61
  -4  -3   5  124.97    3.40
   4   3  -5  123.06    3.51
  -4  -3   5  126.02    3.02
  -3  -3   5  673.90   12.70
   3   3  -5  670.34   13.02
   3   3  -5  659.70   23.12
  -3  -3   5  655.73   12.98
  -2  -3   5  324.66    6.40
   2   3  -5  314.70    6.52
  -2  -3   5  314.58    6.48
  -1  -3   5  186.80    4.03
  -1  -3   5  188.00    3.98
   1   3  -5  190.88    4.01
   0  -3   5  704.32   13.16
   0  -3   5  697.56   13.30
   0   3  -5  700.73   13.08
   1  -3   5  585.41   11.42
   1  -3   5  604.80   11.22
  -1   3  -5  589.22   11.12
   2  -3   5   18.81    0.96
  -2   3  -5   19.00    0.84
   2  -3   5   19.39    0.86
   3  -3   5  123.18    2.97
   3  -3   5  120.42    3.12
   3  -3   5  126.27    3.06
   3  -3   5  122.85    5.70
   4  -3   5    2.06    0.47
   4  -3   5    3.22    1.50
   4  -3   5    2.13    0.51
   4  -3   5    2.42    0.58
   5  -3   5    0.44    0.39
   5  -3   5    0.05    0.44
   5  -3   5    0.53    0.49
   5  -3   5   -0.17    1.39
   6  -3   5    1.87    0.67
  -6   3  -5    2.27    0.74
   7  -3   5    3.91    0.87
  -7   3  -5    4.70    1.14
  -7  -2   5    0.36    0.66
   7   2  -5    1.00    0.89
   6   2  -5    1.49    0.81
  -6  -2   5    1.14    0.62
   5   2  -5    2.88    0.81
  -5  -2   5    2.81    0.65
  -4  -2   5    0.94    0.44
   4   2  -5    2.39    1.16
  -4  -2   5    1.02    0.39
   4   2  -5    1.29    0.59
   3   2  -5   56.28    1.93
   3   2  -5   51.89    3.19
  -3  -2   5   53.98    1.78
  -3  -2   5   53.53    1.62
  -2  -2   5   82.08    2.10
   2   2  -5   81.38    2.24
  -2  -2   5   83.71    2.14
  -1  -2   5  434.19    8.15
  -1  -2   5  422.20    8.24
   1   2  -5  411.36    8.20
   0   2  -5  120.21    2.76
   0  -2   5  118.54    2.56
   0  -2   5  121.42    2.80
   1  -2   5  183.85    3.64
  -1   2  -5  176.75    3.74
   1  -2   5  175.08    3.89
   2  -2   5  148.80    6.39
   2  -2   5  153.40    3.50
  -2   2  -5  149.66    3.33
   2  -2   5  149.24    3.27
   3  -2   5    5.89    0.62
   3  -2   5    4.68    0.55
   3  -2   5    5.02    0.56
   3  -2   5    5.97    1.78
   4  -2   5    2.36    0.48
   4  -2   5    3.79    1.56
   4  -2   5    3.02    0.53
   4  -2   5    2.47    0.56
   5  -2   5    1.73    0.50
   5  -2   5    1.44    0.57
   5  -2   5    0.28    1.49
  -6   2  -5    0.71    0.67
   6  -2   5    1.46    0.65
   7  -2   5    0.19    0.66
  -7   2  -5    0.18    0.88
   7   1  -5    0.44    0.80
  -7  -1   5    0.48    0.62
   6   1  -5    0.50    0.70
  -6  -1   5    0.15    0.53
   5   1  -5   23.37    1.56
  -5  -1   5   23.77    1.17
  -5  -1   5   20.69    1.32
  -4  -1   5    9.78    0.73
  -4  -1   5    9.65    0.85
   4   1  -5    8.46    0.98
  -3  -1   5  262.62    5.50
  -3  -1   5  263.38    5.62
   3   1  -5  255.37    9.66
   3   1  -5  267.61    5.84
   2   1  -5   10.10    0.78
  -2  -1   5   10.32    0.64
  -2  -1   5    9.92    0.62
   1   1  -5    0.09    1.27
  -1  -1   5    0.70    0.26
   1   1  -5    0.34    0.35
  -1  -1   5    0.56    0.20
   0   1  -5   11.91    0.79
   0  -1   5   12.75    0.66
   0  -1   5   13.48    0.52
   1  -1   5  259.44    9.98
   1  -1   5  274.91    5.55
   1  -1   5  277.99    5.20
  -1   1  -5  266.11    5.41
   2  -1   5  337.41   12.79
  -2   1  -5  350.90    6.98
   2  -1   5  359.71    7.11
   2  -1   5  356.83    6.87
   3  -1   5  265.28   10.56
   3  -1   5  278.89    5.76
   3  -1   5  281.01    5.84
   4  -1   5   12.06    0.94
   4  -1   5   11.12    0.79
   5  -1   5    1.88    0.65
   5  -1   5    2.99    0.56
   5  -1   5    2.70    1.62
  -5   1  -5    2.52    0.61
  -6   1  -5   17.54    1.37
   6  -1   5   14.20    1.24
  -7   1  -5    0.83    0.84
   7  -1   5    0.04    0.60
   7   0  -5    0.40    0.73
  -7   0   5   -0.46    0.50
  -6   0   5    0.14    0.46
   6   0  -5   -0.08    0.61
   5   0  -5    0.39    0.61
  -5   0   5   -0.27    0.37
  -5   0   5   -0.19    0.36
  -4   0   5   -0.13    0.33
   4   0  -5   -0.14    0.47
  -4   0   5    0.20    0.34
   3   0  -5    0.08    0.37
   3   0  -5    0.04    0.69
  -3   0   5   -0.19    0.26
  -3   0   5   -0.25    0.28
   2   0  -5   -0.33    0.29
   2   0  -5    0.32    0.79
  -2   0   5    0.86    0.27
  -2   0   5   -0.29    0.19
   1   0  -5   -0.22    0.29
  -1   0   5    0.09    0.15
   1   0  -5   -0.55    0.71
  -1   0   5    0.26    0.22
   0   0  -5    0.32    0.31
   0   0   5    0.30    0.71
   0   0   5   -0.07    0.13
   0   0   5   -0.25    0.16
   1   0   5   -0.31    0.74
   1   0   5   -0.27    0.18
  -1   0  -5   -0.36    0.22
   1   0   5   -0.19    0.11
   2   0   5    0.07    0.98
   2   0   5   -0.04    0.22
   2   0   5    0.06    0.20
  -2   0  -5   -0.05    0.23
   3   0   5   -0.11    1.20
  -3   0  -5    0.43    0.29
   3   0   5    0.27    0.29
   4   0   5    0.07    0.25
   4   0   5    0.44    1.26
  -4   0  -5   -0.05    0.28
   4   0   5   -0.43    0.36
   5   0   5   -0.57    1.37
  -5   0  -5   -0.29    0.42
   5   0   5   -0.76    0.44
  -6   0  -5   -0.39    0.60
   6   0   5    0.45    1.50
   6   0   5    0.12    0.58
   7   0   5   -0.17    0.54
  -7   0  -5    0.17    0.74
   7  -1  -5   -0.32    0.64
  -7   1   5   -0.65    0.53
   6  -1  -5    1.52    0.77
  -6   1   5    0.73    0.56
   5  -1  -5   22.71    1.51
  -5   1   5   23.46    1.19
  -5   1   5   20.58    1.27
  -4   1   5    7.61    0.75
   4  -1  -5    8.37    0.96
  -4   1   5    8.60    0.81
   3  -1  -5  260.34    5.76
  -3   1   5  250.28    5.42
  -3   1   5  257.46    5.50
  -2   1   5   10.36    0.60
  -2   1   5   10.67    0.67
   2  -1  -5   10.66    0.84
   2  -1  -5   10.61    1.77
  -1   1   5    0.17    0.23
   1  -1  -5    0.40    0.36
  -1   1   5    0.59    0.18
   1  -1  -5    0.12    0.81
   0   1   5   11.98    1.60
   0   1   5   11.88    0.63
   0  -1  -5   11.86    0.82
   1   1   5  269.39    5.40
   1   1   5  266.67    9.87
  -1  -1  -5  258.37    5.42
   2   1   5  341.72    6.83
  -2  -1  -5  346.03    6.93
   2   1   5  340.42   12.58
  -2  -1  -5  338.03    6.53
   3   1   5  280.84   10.83
   3   1   5  277.95    5.80
  -3  -1  -5  276.57    5.68
  -3  -1  -5  284.02    6.03
   4   1   5   14.92    2.31
   4   1   5   13.63    0.81
   4   1   5   13.02    1.01
  -4  -1  -5   13.53    0.83
   5   1   5    1.99    0.67
   5   1   5    1.53    1.66
  -5  -1  -5    2.19    0.57
  -6  -1  -5   17.34    1.32
   6   1   5   13.72    2.42
   6   1   5   17.20    1.35
   7   1   5    0.53    0.64
  -7   2   5    1.53    0.73
   7  -2  -5    1.23    0.78
   6  -2  -5    2.46    0.87
  -6   2   5    1.29    0.63
   5  -2  -5    2.56    0.76
  -5   2   5    2.78    0.63
  -5   2   5    2.95    0.59
  -4   2   5    0.96    0.44
   4  -2  -5    0.70    0.53
  -4   2   5    0.80    0.42
   3  -2  -5   51.02    1.88
  -3   2   5   50.17    1.63
  -3   2   5   50.00    1.61
  -2   2   5   80.55    2.13
   2  -2  -5   79.52    2.32
  -2   2   5   80.06    2.00
  -1   2   5  403.66    7.77
  -1   2   5  403.08    8.08
   1  -2  -5  418.30    8.25
  -1   2   5  419.94   14.24
   0   2   5  115.15    2.68
   0   2   5  115.60    4.86
   0  -2  -5  115.16    2.84
   1   2   5  170.80    6.88
   1   2   5  175.78    3.72
  -1  -2  -5  171.62    3.82
  -2  -2  -5  147.62    3.09
  -2  -2  -5  147.98    3.52
   2   2   5  153.20    6.46
   2   2   5  156.13    3.38
  -3  -2  -5    4.70    0.47
  -3  -2  -5    5.55    0.65
   3   2   5    5.24    0.55
   3   2   5    6.70    1.65
   4   2   5    2.68    1.60
   4   2   5    2.45    0.39
   4   2   5    2.19    0.61
  -4  -2  -5    3.19    0.47
   5   2   5    2.18    0.65
  -5  -2  -5    1.34    0.54
   5   2   5    0.36    1.53
  -6  -2  -5    0.97    0.68
   6   2   5    1.59    0.71
   6   2   5    1.73    1.77
   7   2   5   -0.44    0.57
  -7   3   5    7.38    1.07
   7  -3  -5    7.40    1.21
   6  -3  -5    3.24    0.88
  -6   3   5    1.90    0.67
  -6   3   5    2.40    0.63
  -5   3   5   10.24    0.97
   5  -3  -5   11.33    1.21
  -5   3   5   11.58    0.96
  -4   3   5  116.83    3.10
   4  -3  -5  116.93    3.44
   3  -3  -5  643.18   12.70
  -3   3   5  639.22   12.48
   3  -3  -5  640.48   12.55
  -2   3   5  304.00    6.26
   2  -3  -5  299.38    6.42
   2  -3  -5  306.53    6.15
   1  -3  -5  181.72    3.66
  -1   3   5  180.82    6.72
  -1   3   5  182.69    3.94
   1  -3  -5  172.62    4.10
   0   3   5  669.59   22.55
   0  -3  -5  653.42   12.34
   0  -3  -5  665.08   12.70
   0   3   5  658.67   12.55
   1   3   5  572.59   10.67
  -1  -3  -5  548.89   10.45
  -1  -3  -5  554.94   10.78
   1   3   5  555.42   19.38
  -2  -3  -5   17.93    0.98
  -2  -3  -5   18.79    0.69
   2   3   5   18.17    2.20
   2   3   5   19.34    0.83
   3   3   5  123.15    5.82
  -3  -3  -5  122.85    2.85
  -3  -3  -5  125.91    3.27
   3   3   5  122.41    2.88
  -4  -3  -5    2.56    0.44
   4   3   5    0.65    1.52
   5   3   5   -0.34    1.37
  -5  -3  -5    0.33    0.43
   5   3   5   -0.20    0.49
   6   3   5    4.09    1.88
  -6  -3  -5    1.44    0.68
   6   3   5    1.95    0.73
   7   3   5    2.76    0.89
   7  -4  -5    0.05    0.67
  -7   4   5    0.89    0.62
  -6   4   5    0.02    0.49
  -6   4   5   -0.01    0.43
   6  -4  -5    0.12    0.61
  -5   4   5   26.22    1.39
   5  -4  -5   25.82    1.63
   4  -4  -5   53.68    2.05
   4  -4  -5   57.15    2.20
  -4   4   5   53.65    1.91
   3  -4  -5   38.12    1.47
  -3   4   5   39.51    1.47
   3  -4  -5   37.14    1.65
   2  -4  -5    7.42    0.78
  -2   4   5    6.19    0.59
   2  -4  -5    5.47    0.57
   1  -4  -5  675.54   13.10
  -1   4   5  680.68   22.84
  -1   4   5  677.97   12.94
   1  -4  -5  674.89   12.67
   0   4   5  360.05   13.00
   0   4   5  370.74    7.30
   0  -4  -5  371.58    7.51
   0  -4  -5  370.73    6.96
   1   4   5  208.25    4.27
   1   4   5  203.58    7.92
  -1  -4  -5  195.78    3.94
  -1  -4  -5  201.86    4.47
  -2  -4  -5  393.94    8.02
   2   4   5  384.37   14.35
  -2  -4  -5  385.87    7.54
   2   4   5  408.32    7.73
  -3  -4  -5   30.93    1.39
   3   4   5   29.83    2.74
   3   4   5   28.85    1.04
  -3  -4  -5   29.67    1.11
  -4  -4  -5    2.77    0.48
   4   4   5    3.43    1.80
  -4  -4  -5    2.41    0.60
   5   4   5   12.79    2.42
  -5  -4  -5   11.37    0.97
   5   4   5   10.59    1.08
   6   4   5    2.92    1.81
   6   4   5    1.07    0.67
  -6  -4  -5    2.04    0.71
   7   4   5    1.82    0.79
   7  -5  -5    2.23    0.84
  -7   5   5    1.72    0.69
   6  -5  -5    7.52    1.11
  -6   5   5    5.21    0.82
  -6   5   5    5.24    0.82
  -5   5   5    0.94    0.50
   5  -5  -5    0.20    0.59
   4  -5  -5  254.81    5.92
   4  -5  -5  263.97    6.11
  -4   5   5  253.70    5.81
   3  -5  -5    6.90    0.80
   3  -5  -5    7.66    0.76
  -3   5   5    7.07    0.72
  -2   5   5  331.61    6.87
   2  -5  -5  329.67    6.72
   2  -5  -5  331.85    7.04
   1  -5  -5   83.97    2.46
   1  -5  -5   83.75    2.03
  -1   5   5   86.56    2.25
  -1   5   5   85.18    3.69
   0  -5  -5  160.70    3.24
   0  -5  -5  157.17    3.77
   0   5   5  157.53    3.52
   0   5   5  159.67    6.33
   1   5   5  123.59    2.84
   1   5   5  123.54    5.41
  -1  -5  -5  124.81    2.63
  -1  -5  -5  123.61    3.10
  -2  -5  -5 1048.81   19.85
   2   5   5 1068.05   35.84
   2   5   5 1076.43   19.56
  -2  -5  -5 1015.14   19.44
   3   5   5   15.30    0.73
  -3  -5  -5   15.02    1.04
   3   5   5   13.78    2.28
  -3  -5  -5   15.05    0.83
   4   5   5   49.55    3.78
  -4  -5  -5   45.14    1.95
  -4  -5  -5   47.30    1.66
  -5  -5  -5   -0.40    0.41
   5   5   5   -0.98    1.53
   6   5   5    1.22    1.83
   6   5   5   -0.38    0.61
   7   5   5    2.98    0.91
  -7   6   5    0.70    0.55
   7  -6  -5    0.21    0.59
  -6   6   5    3.70    0.75
   6  -6  -5    6.50    1.07
   5  -6  -5   11.42    1.13
   5  -6  -5   10.89    1.18
  -5   6   5   12.70    1.06
  -4   6   5   90.67    2.77
   4  -6  -5   92.83    2.86
   4  -6  -5   92.05    2.96
   3  -6  -5   16.54    1.15
   3  -6  -5   15.92    0.99
  -3   6   5   15.73    0.97
   2  -6  -5    5.96    0.62
  -2   6   5    4.97    0.55
   2  -6  -5    5.65    0.75
   1  -6  -5   54.04    1.89
  -1   6   5   52.55    1.66
   1  -6  -5   55.32    1.53
  -1   6   5   51.90    2.72
   0  -6  -5  114.98    3.05
   0  -6  -5  117.80    2.57
   0   6   5  117.38    2.81
   0   6   5  116.78    4.97
  -1  -6  -5   82.24    2.35
   1   6   5   80.80    4.05
  -1  -6  -5   79.91    1.92
   1   6   5   80.53    2.06
  -2  -6  -5   16.02    1.01
  -2  -6  -5   14.58    0.84
   2   6   5   18.96    2.34
   2   6   5   15.31    0.77
   3   6   5   29.57    2.96
  -3  -6  -5   29.68    1.45
  -3  -6  -5   30.01    1.22
   3   6   5   30.15    1.05
  -4  -6  -5   -0.07    0.47
   4   6   5   -1.48    1.54
  -4  -6  -5    0.19    0.38
  -5  -6  -5    4.35    0.73
   5   6   5    4.74    2.15
  -5  -6  -5    3.48    0.76
   6   6   5    1.13    1.99
   7   6   5    2.65    1.97
   7  -7  -5    4.90    1.06
  -7   7   5    4.28    0.88
  -6   7   5    1.93    0.68
   6  -7  -5    0.53    0.75
   6  -7  -5    0.77    0.71
   5  -7  -5   21.69    1.45
  -5   7   5   19.79    1.30
   5  -7  -5   23.75    1.54
   4  -7  -5   12.52    1.11
  -4   7   5   11.92    0.94
   4  -7  -5   11.73    1.10
  -3   7   5   72.38    2.28
   3  -7  -5   69.08    2.38
   3  -7  -5   69.82    2.22
   2  -7  -5    0.12    0.33
   2  -7  -5    0.02    0.44
  -2   7   5   -0.14    0.32
   1  -7  -5  228.07    4.78
  -1   7   5  219.93    8.37
   1  -7  -5  229.86    5.21
  -1   7   5  233.20    5.01
   0   7   5   23.81    2.04
   0  -7  -5   25.03    0.93
   0  -7  -5   24.64    1.26
   0   7   5   24.65    1.03
   1   7   5   92.42    2.30
  -1  -7  -5   90.94    2.61
  -1  -7  -5   93.35    2.24
   1   7   5   90.71    4.53
   2   7   5    1.86    0.35
  -2  -7  -5    1.84    0.51
  -2  -7  -5    0.97    0.42
   2   7   5    2.50    1.38
  -3  -7  -5  231.74    5.13
  -3  -7  -5  235.22    5.55
   3   7   5  243.33    9.91
  -4  -7  -5    3.59    0.61
   4   7   5    2.95    2.06
  -4  -7  -5    4.05    0.74
   5   7   5    0.88    2.09
  -5  -7  -5    0.69    0.51
  -5  -7  -5    0.63    0.54
   6   7   5    1.32    2.15
  -6  -7  -5    1.47    0.69
   7   7   5   10.73    2.82
  -7  -7  -5    6.22    1.15
   7  -8  -5   -0.16    0.58
  -7   8   5    0.02    0.68
  -7   8   5   -0.05    0.41
  -6   8   5    3.81    0.77
   6  -8  -5    3.83    0.95
   6  -8  -5    5.16    1.02
   5  -8  -5    3.01    0.77
   5  -8  -5    2.99    0.75
  -5   8   5    1.80    0.57
  -4   8   5   18.11    1.14
   4  -8  -5   17.35    1.23
   4  -8  -5   17.81    1.28
   3  -8  -5   32.71    1.47
   3  -8  -5   26.26    1.49
  -3   8   5   35.62    1.52
   2  -8  -5   32.66    1.35
   2  -8  -5   34.39    1.58
  -2   8   5   31.60    1.42
   1  -8  -5    3.94    0.50
  -1   8   5    3.77    0.50
  -1   8   5    5.89    1.21
   1  -8  -5    4.24    0.72
   0   8   5   25.98    2.28
   0   8   5   27.42    1.12
   0  -8  -5   26.03    1.03
   0  -8  -5   27.32    1.36
   1   8   5   13.91    2.20
  -1  -8  -5   15.27    1.05
   1   8   5   14.22    0.76
  -1  -8  -5   14.85    0.81
   2   8   5  165.31    7.23
  -2  -8  -5  157.93    4.05
   2   8   5  155.03    3.51
  -2  -8  -5  164.95    3.75
  -3  -8  -5    1.84    0.55
   3   8   5    3.40    1.76
  -3  -8  -5    1.65    0.56
  -4  -8  -5    2.05    0.58
   4   8   5    1.33    2.01
  -4  -8  -5    1.73    0.62
   5   8   5   19.40    3.05
  -6  -8  -5   -0.53    0.38
   6   8   5   -2.05    2.07
   7   8   5    2.91    2.12
  -7  -8  -5    0.03    0.69
  -7   9   5    3.00    0.85
   7  -9  -5    4.68    1.06
  -6   9   5    0.10    0.56
   6  -9  -5   -0.02    0.67
   6  -9  -5    0.10    0.59
  -5   9   5    3.07    0.69
   5  -9  -5    2.74    0.71
   5  -9  -5    2.58    0.73
   4  -9  -5   85.45    2.82
   4  -9  -5   86.62    2.87
  -4   9   5   80.02    2.68
  -3   9   5    0.93    0.48
   3  -9  -5    1.65    0.64
   3  -9  -5    1.20    0.53
   2  -9  -5  154.24    3.64
  -2   9   5  131.54    3.62
   2  -9  -5  151.25    3.88
  -1   9   5   22.01    2.10
   1  -9  -5   25.62    1.40
   1  -9  -5   23.16    1.07
  -1   9   5   21.85    1.12
   0  -9  -5   26.73    1.39
   0   9   5   25.91    1.13
   0   9   5   23.61    2.36
   0  -9  -5   26.76    1.11
   1   9   5  115.61    2.86
  -1  -9  -5  117.86    2.91
   1   9   5  119.69    5.68
  -1  -9  -5  122.45    3.27
   2   9   5  482.03    9.21
  -2  -9  -5  493.78    9.49
  -2  -9  -5  425.42    9.70
   2   9   5  492.10   17.52
  -3  -9  -5    6.52    0.75
  -3  -9  -5    6.16    0.84
   3   9   5    7.46    2.32
  -4  -9  -5   29.87    1.51
   4   9   5   34.25    3.60
  -4  -9  -5   32.09    1.71
  -5  -9  -5    1.38    0.65
   5   9   5    2.75    2.33
  -6  -9  -5   -0.03    0.43
   6   9   5    0.90    2.36
   6 -10  -5    2.48    0.89
  -6  10   5    1.48    0.69
   6 -10  -5    2.56    0.85
   5 -10  -5    1.68    0.64
  -5  10   5    1.01    0.55
   5 -10  -5    1.62    0.71
  -4  10   5   18.93    1.24
   4 -10  -5   18.79    1.33
   4 -10  -5   18.49    1.32
   3 -10  -5    0.39    0.57
   3 -10  -5    0.19    0.54
  -3  10   5    1.04    0.50
  -2  10   5   41.47    1.66
   2 -10  -5   41.15    1.82
   2 -10  -5   44.08    1.67
   1 -10  -5   68.63    2.06
  -1  10   5   65.66    2.12
  -1  10   5   69.11    3.63
   1 -10  -5   65.79    2.33
   0 -10  -5   65.43    1.97
   0  10   5   62.59    3.73
   0  10   5   62.57    1.97
   0 -10  -5   64.15    2.28
   1  10   5   13.32    2.30
   1  10   5   11.59    0.76
  -1 -10  -5   12.48    1.04
  -1 -10  -5   12.82    0.96
  -2 -10  -5   21.79    1.27
  -2 -10  -5   22.42    1.34
   2  10   5   28.63    3.15
   3  10   5    3.36    2.25
  -3 -10  -5    1.99    0.67
  -3 -10  -5    1.86    0.66
  -4 -10  -5    8.58    1.05
   4  10   5   11.08    2.79
  -5 -10  -5   -0.01    0.54
   5  10   5    0.81    2.23
   6  10   5    0.20    2.33
  -6 -10  -5    0.13    0.48
  -6  11   5    0.32    0.62
   6 -11  -5    0.28    0.76
   6 -11  -5    1.86    0.71
  -5  11   5    1.83    0.67
   5 -11  -5    2.28    0.68
   5 -11  -5    2.80    0.79
  -4  11   5   15.70    1.21
   4 -11  -5   15.21    1.23
   4 -11  -5   15.29    1.23
  -3  11   5  130.45    3.62
   3 -11  -5  134.72    3.71
   3 -11  -5  129.00    3.64
   2 -11  -5    0.00    0.47
   2 -11  -5    0.25    0.59
  -2  11   5   -0.31    0.33
  -1  11   5   59.94    3.49
   1 -11  -5   55.10    1.90
  -1  11   5   49.54    1.88
   1 -11  -5   58.95    2.20
   0  11   5   62.24    2.01
   0 -11  -5   62.26    2.31
   0  11   5   64.90    3.91
   0 -11  -5   64.14    2.06
  -1 -11  -5    4.84    0.71
  -1 -11  -5    4.56    0.79
   1  11   5    6.21    0.62
   1  11   5    5.54    1.83
  -2 -11  -5    1.68    0.63
   2  11   5    2.57    1.85
  -2 -11  -5    2.54    0.64
  -3 -11  -5   55.51    2.26
   3  11   5   55.62    4.61
  -3 -11  -5   52.99    2.10
  -4 -11  -5    8.63    1.08
   4  11   5   13.06    3.00
  -5 -11  -5    0.99    0.66
   5  11   5    2.19    2.36
  -6 -11  -5    0.88    0.60
   6  11   5    0.99    2.23
   6 -12  -5    2.26    0.76
  -6  12   5    0.62    0.69
   6 -12  -5    0.39    0.75
   5 -12  -5    7.32    1.03
  -5  12   5    5.22    0.88
   5 -12  -5    5.40    0.98
  -4  12   5    0.12    0.52
   4 -12  -5    0.19    0.58
   4 -12  -5    0.27    0.45
   3 -12  -5   31.25    1.61
   3 -12  -5   28.74    1.57
  -3  12   5   30.80    1.55
  -2  12   5   97.75    2.93
   2 -12  -5  100.36    3.08
   2 -12  -5   97.22    2.92
  -1  12   5   11.43    0.91
   1 -12  -5   10.90    0.97
  -1  12   5   12.60    2.20
   1 -12  -5   11.15    1.15
   0 -12  -5    6.57    0.80
   0 -12  -5    6.36    0.95
   0  12   5    6.43    0.69
   0  12   5    9.66    1.95
  -1 -12  -5    1.37    0.58
   1  12   5    0.68    0.36
   1  12   5   -0.02    1.52
  -1 -12  -5    0.30    0.54
   2  12   5    1.55    1.89
  -2 -12  -5    0.47    0.56
  -2 -12  -5    0.61    0.61
   3  12   5    0.41    2.37
  -3 -12  -5    0.33    0.58
  -3 -12  -5    1.03    0.67
   4  12   5    4.20    2.46
  -4 -12  -5    1.35    0.71
   5  12   5    3.80    2.46
  -5 -12  -5    4.05    0.90
   6  12   5   -1.25    2.06
  -6 -12  -5    0.34    0.50
   6 -13  -5    1.35    0.86
  -6  13   5    0.37    0.64
   5 -13  -5    8.51    1.11
   5 -13  -5   10.26    1.25
  -5  13   5    7.09    1.03
   4 -13  -5    0.07    0.60
   4 -13  -5    0.23    0.50
  -4  13   5    0.24    0.44
   3 -13  -5   -0.07    0.51
  -3  13   5   -0.20    0.47
   3 -13  -5    0.38    0.62
  -2  13   5   37.59    1.69
   2 -13  -5   40.99    1.80
   2 -13  -5   41.44    1.90
   1 -13  -5    0.89    0.71
   1 -13  -5    1.83    0.58
  -1  13   5    1.22    0.45
   0 -13  -5   18.52    1.42
   0 -13  -5   17.81    1.22
   0  13   5   14.44    0.99
   0  13   5   14.55    2.57
   1  13   5   13.66    2.51
  -1 -13  -5   11.34    1.06
  -1 -13  -5   12.46    1.18
   1  13   5   12.11    0.86
  -2 -13  -5   11.16    1.12
   2  13   5   17.82    3.08
  -2 -13  -5   11.97    1.16
  -3 -13  -5   18.97    1.46
   3  13   5   26.60    3.81
  -3 -13  -5   20.19    1.50
   4  13   5   19.64    3.34
  -4 -13  -5   13.17    1.33
  -5 -13  -5    2.03    0.74
   5  13   5    2.33    2.46
   6  13   5    1.51    2.67
   5 -14  -5    0.49    0.77
  -5  14   5    0.08    0.61
   4 -14  -5    0.68    0.66
  -4  14   5    1.02    0.54
   3 -14  -5   13.62    1.13
  -3  14   5   12.01    1.08
   3 -14  -5   13.16    1.22
  -2  14   5    2.32    0.59
   2 -14  -5    2.45    0.70
   2 -14  -5    2.58    0.73
   1 -14  -5   19.27    1.41
   1 -14  -5   20.13    1.27
  -1  14   5   19.01    1.18
   0  14   5   19.87    1.15
   0  14   5   20.92    2.90
   0 -14  -5   20.77    1.48
   0 -14  -5   21.32    1.34
  -1 -14  -5    3.82    0.85
   1  14   5    8.31    2.25
  -1 -14  -5    6.02    0.84
   2  14   5   -0.01    1.98
  -2 -14  -5   -0.12    0.55
  -2 -14  -5   -0.34    0.60
  -3 -14  -5    3.79    0.88
   3  14   5    8.63    3.03
   4  14   5    6.46    3.13
  -4 -14  -5    2.78    0.82
   5  14   5    4.48    2.61
  -5 -14  -5    4.74    0.97
  -5  15   5    1.75    0.79
   5 -15  -5    2.00    0.89
  -4  15   5    6.87    0.94
   4 -15  -5    9.00    1.17
   3 -15  -5    3.22    0.80
  -3  15   5    2.29    0.62
   2 -15  -5   21.14    1.39
   2 -15  -5   18.56    1.34
  -2  15   5   17.73    1.20
   1 -15  -5   23.59    1.46
  -1  15   5   24.22    1.37
   1 -15  -5   26.76    1.60
   0  15   5    1.77    0.50
   0 -15  -5    2.19    0.81
   0 -15  -5    1.78    0.67
   0  15   5    3.86    1.88
   1  15   5    0.70    1.90
  -1 -15  -5    1.13    0.68
  -1 -15  -5    0.56    0.59
  -2 -15  -5    9.67    1.12
  -2 -15  -5    8.64    1.13
   2  15   5   11.48    2.97
   3  15   5    7.16    2.90
  -4 -15  -5    5.92    1.07
   4  15   5    9.11    3.51
  -5 -15  -5    4.23    0.94
   5  15   5    3.28    2.73
   5 -16  -5    0.69    0.85
  -5  16   5   -0.01    0.68
   4 -16  -5    3.88    0.98
  -4  16   5    4.34    0.82
  -3  16   5    6.89    0.91
   3 -16  -5    8.76    1.09
  -2  16   5    0.79    0.55
   2 -16  -5    0.92    0.64
   1 -16  -5    1.08    0.68
  -1  16   5    0.96    0.50
   0 -16  -5    1.99    0.70
   0 -16  -5    2.59    0.81
   0  16   5    2.08    0.53
   0  16   5    3.63    2.03
  -1 -16  -5   11.06    1.24
  -1 -16  -5   10.83    1.17
   1  16   5   15.45    3.02
   2  16   5    2.83    2.56
  -2 -16  -5    1.75    0.80
   3  16   5    2.54    2.74
  -3 -16  -5    1.33    0.76
  -4 -16  -5   -0.81    0.59
   4  16   5    0.32    2.88
  -4  17   5    1.01    0.59
   4 -17  -5    0.04    0.77
  -3  17   5   15.07    1.20
   3 -17  -5   13.83    1.33
  -2  17   5    4.55    0.74
   2 -17  -5    4.50    0.93
   1 -17  -5    3.17    0.80
  -1  17   5    2.57    0.64
   0 -17  -5   10.75    1.20
   0  17   5   15.44    2.94
  -1 -17  -5   12.28    1.33
   1  17   5   16.84    3.18
  -1 -17  -5   10.67    1.22
   2  17   5    1.83    2.45
  -2 -17  -5   -0.39    0.59
   3  17   5   10.34    3.54
  -3 -17  -5    4.94    1.01
   4  17   5    2.42    3.22
  -4  18   5    3.93    0.87
   4 -18  -5    5.14    1.15
  -3  18   5    0.81    0.55
   3 -18  -5    1.73    0.80
  -2  18   5    0.30    0.43
   2 -18  -5    0.25    0.62
  -1  18   5    0.78    0.50
   1 -18  -5    2.19    0.78
   0 -18  -5   17.68    1.48
   1  18   5    3.02    2.39
   2  18   5    0.04    2.46
   3  18   5    7.41    3.35
   3 -19  -5    0.72    0.74
  -3  19   5   -0.20    0.41
  -2  19   5    0.34    0.49
   2 -19  -5   -0.12    0.70
   1 -19  -5   -0.12    0.72
  -1  19   5   -0.32    0.44
   0 -19  -5    3.95    0.98
   1  19   5    1.86    2.48
   2  19   5    3.87    2.92
   3  19   5    3.73    3.29
   2 -20  -5    0.63    0.79
  -2  20   5    0.22    0.42
   1 -20  -5    1.19    0.84
   1  20   5    9.22    3.40
   2  20   5    3.34    3.08
  -1 -20   6   -0.35    0.71
   1  20  -6    1.28    3.01
   0  20  -6    1.97    3.48
   0 -20   6    1.06    0.87
  -1  20  -6    6.74    3.89
   1 -20   6    6.20    1.18
  -1  20  -6    5.05    0.93
   2  19  -6    3.56    2.94
  -2 -19   6    2.06    0.96
  -1 -19   6    1.15    0.91
   1  19  -6    2.15    3.33
   0 -19   6    4.80    1.08
   0  19  -6    7.34    3.58
  -1  19  -6    0.06    3.17
  -1  19  -6    0.81    0.62
   1 -19   6   -0.12    0.67
  -2  19  -6    1.62    3.39
  -2  19  -6    0.55    0.57
   2 -19   6    0.41    0.75
   3  18  -6   -1.58    1.55
  -3 -18   6    0.20    0.87
  -2 -18   6   -0.98    0.74
   2  18  -6    0.03    2.17
   1  18  -6   -0.83    2.35
  -1 -18   6   -0.40    0.71
   0  18  -6   30.29    5.20
   0 -18   6   23.11    1.78
  -1  18  -6   -1.09    2.62
   1 -18   6   -0.70    0.69
  -1  18  -6   -0.37    0.46
   2 -18   6    1.91    0.83
  -2  18  -6    1.85    2.61
  -2  18  -6    0.62    0.59
  -3  18  -6    1.36    0.67
   3 -18   6    0.43    0.76
  -4 -17   6    3.58    1.13
   4  17  -6    5.69    2.42
   3  17  -6   17.12    3.24
  -3 -17   6   16.72    1.73
  -2 -17   6    0.09    0.79
   2  17  -6    0.44    2.33
   1  17  -6   -1.38    2.37
  -1 -17   6   -0.94    0.70
   0 -17   6   21.28    1.68
   0  17  -6   28.81    4.84
   1 -17   6    1.26    0.78
  -1  17  -6    0.80    2.53
  -1  17  -6    1.65    0.63
  -2  17  -6    2.31    0.73
  -2  17  -6    0.50    2.11
   2 -17   6    1.43    0.76
  -3  17  -6   11.29    1.20
   3 -17   6   12.15    1.32
   4 -17   6    0.69    0.65
  -4  17  -6    0.46    0.65
  -4 -16   6    0.54    0.89
   4  16  -6    0.32    1.69
   3  16  -6   11.62    3.30
  -3 -16   6    6.80    1.25
  -2 -16   6   -0.30    0.74
   2  16  -6    1.30    1.97
   1  16  -6   11.01    3.58
  -1 -16   6    8.78    1.25
   0  16  -6   30.50    5.01
   0 -16   6   21.49    1.63
   0 -16   6   20.60    1.43
   1 -16   6    3.43    0.92
  -1  16  -6    6.42    3.33
   1 -16   6    4.98    0.92
  -2  16  -6    9.18    1.06
   2 -16   6    8.41    1.15
  -3  16  -6    1.23    0.58
   3 -16   6    0.43    0.68
   4 -16   6    0.38    0.62
  -4  16  -6    0.48    0.64
  -5 -15   6   -0.25    0.81
  -4 -15   6   13.84    1.62
   4  15  -6   16.97    3.12
  -3 -15   6    0.67    0.81
   3  15  -6    0.84    1.68
  -2 -15   6   10.86    1.36
   2  15  -6   14.42    3.33
   1  15  -6    6.56    3.29
  -1 -15   6    5.16    1.02
   0 -15   6    1.23    0.63
   0 -15   6    0.36    0.70
  -1  15  -6    0.25    3.06
   1 -15   6    4.06    0.83
   1 -15   6    2.83    0.87
   2 -15   6    4.79    0.93
   2 -15   6    3.84    0.86
  -2  15  -6    0.63    2.60
  -3  15  -6    1.90    0.68
   3 -15   6    0.70    0.72
  -3  15  -6    0.00    2.37
   4 -15   6    4.62    0.97
  -4  15  -6    5.71    0.97
  -5  15  -6    2.95    1.04
   5 -15   6    3.81    0.92
   5  14  -6    3.33    2.22
  -5 -14   6    7.38    1.25
  -4 -14   6    1.49    0.87
   4  14  -6    1.89    1.90
   3  14  -6    8.31    2.68
  -3 -14   6    5.50    1.12
  -2 -14   6    7.13    1.11
   2  14  -6    8.64    2.87
   1  14  -6   32.18    4.85
  -1 -14   6   24.03    1.36
  -1 -14   6   26.70    1.71
   0 -14   6   15.27    1.31
   0  14  -6   20.63    4.99
   0 -14   6   14.73    1.15
   1 -14   6   -0.01    0.59
   1 -14   6    0.16    0.53
  -1  14  -6   -1.31    2.37
   2 -14   6    0.68    0.62
   2 -14   6    1.02    0.67
  -2  14  -6    0.37    2.86
  -3  14  -6    1.50    2.90
   3 -14   6   -0.06    0.59
  -4  14  -6    0.31    0.67
   4 -14   6    0.62    0.63
   5 -14   6    8.41    1.16
  -5  14  -6    7.28    1.24
   5  13  -6   -0.23    1.79
  -5 -13   6    0.37    0.79
  -4 -13   6    8.53    1.23
   4  13  -6    8.63    2.45
  -3 -13   6    4.94    1.05
   3  13  -6    6.17    2.21
   2  13  -6    2.19    2.26
  -2 -13   6    0.68    0.71
  -1 -13   6   37.01    1.93
   1  13  -6   24.13    3.60
  -1 -13   6   34.31    1.54
   0 -13   6   -0.15    0.62
   0  13  -6   -0.05    3.01
   0 -13   6    0.22    0.50
   1 -13   6   18.43    1.29
   1 -13   6   18.54    1.37
   2 -13   6    4.45    0.81
   2 -13   6    6.27    0.93
  -2  13  -6   -0.26    2.89
   3 -13   6   25.82    1.69
   3 -13   6   23.35    1.53
  -4  13  -6    0.03    0.62
   4 -13   6    0.76    0.66
   5 -13   6    4.68    0.98
  -5  13  -6    5.16    1.08
  -6 -12   6    3.23    1.06
  -5 -12   6    4.79    1.03
   5  12  -6    4.16    1.88
   4  12  -6   -0.42    1.73
  -4 -12   6   -0.36    0.66
  -3 -12   6   31.68    1.86
   3  12  -6   29.81    3.46
   2  12  -6   11.14    3.21
  -2 -12   6    6.98    1.07
  -1 -12   6   25.37    1.27
   1  12  -6   20.93    4.43
  -1 -12   6   27.27    1.66
   0 -12   6   56.49    2.28
   0 -12   6   55.54    2.06
  -1  12  -6   -0.90    3.20
   1 -12   6    7.54    0.96
   1 -12   6    6.23    0.82
   2 -12   6   12.60    1.13
   2 -12   6   13.64    1.15
  -3  12  -6    2.97    3.81
   3 -12   6    7.56    0.97
   3 -12   6   10.29    1.15
   4 -12   6    1.01    0.67
  -5  12  -6    4.01    0.98
   5 -12   6    3.56    0.87
  -6  12  -6    0.60    0.82
  -6 -11   6    0.26    0.74
   6  11  -6    0.67    0.79
  -5 -11   6    0.28    0.71
   5  11  -6    0.72    0.68
   5  11  -6    1.25    1.73
   4  11  -6   16.56    3.00
  -4 -11   6   13.53    1.28
  -3 -11   6    3.37    0.88
   3  11  -6    5.08    1.99
  -2 -11   6   72.72    2.21
  -2 -11   6   71.05    2.69
   2  11  -6   72.83    5.56
  -1 -11   6   37.09    1.84
  -1 -11   6   37.75    1.53
   0  11  -6    1.83    4.09
   0 -11   6    1.09    0.63
   0 -11   6   -0.22    0.38
   1 -11   6    4.91    0.73
  -1  11  -6   -2.68    3.74
   1 -11   6    4.24    0.78
   2 -11   6   29.18    1.59
   2 -11   6   28.80    1.55
   3 -11   6    8.40    0.97
   3 -11   6    8.26    0.99
  -3  11  -6   -0.06    4.00
   4 -11   6    4.44    0.83
   4 -11   6    4.85    0.85
  -4  11  -6   -0.72    2.54
  -5  11  -6    0.30    0.66
   5 -11   6    0.28    0.59
   6 -11   6    1.28    0.63
  -6  11  -6    0.26    0.77
  -6 -10   6    8.99    1.30
   6  10  -6    7.22    1.21
   5  10  -6    8.81    1.13
  -5 -10   6    8.40    1.14
   5  10  -6    7.87    2.18
  -4 -10   6    9.14    1.10
   4  10  -6   12.77    2.71
   4  10  -6    9.88    1.00
   3  10  -6    7.75    0.82
  -3 -10   6    7.65    1.04
   3  10  -6   10.13    2.51
  -2 -10   6   68.13    2.04
   2  10  -6   67.85    4.86
  -2 -10   6   66.41    2.47
  -1 -10   6    0.46    0.54
   1  10  -6   -1.74    2.99
  -1 -10   6    0.37    0.34
   0 -10   6  129.32    3.42
   0 -10   6  130.41    3.56
   1 -10   6   42.36    1.82
   1 -10   6   44.51    1.81
   2 -10   6   13.19    1.12
   2 -10   6   14.16    1.17
   3 -10   6    0.45    0.48
   3 -10   6    0.29    0.53
  -3  10  -6   -1.40    3.08
   4 -10   6   14.48    1.22
   4 -10   6   14.42    1.21
   5 -10   6    0.40    0.58
  -5  10  -6    0.47    0.57
  -6  10  -6    1.40    0.81
   6 -10   6    1.22    0.75
   6   9  -6    5.38    1.10
  -6  -9   6    6.37    1.14
  -5  -9   6    2.63    0.84
   5   9  -6    3.72    0.89
   5   9  -6    3.69    1.84
   4   9  -6   29.18    1.59
   4   9  -6   40.76    4.47
  -4  -9   6   30.19    1.76
   3   9  -6   21.66    3.37
   3   9  -6   16.67    1.11
  -3  -9   6   16.14    1.32
  -2  -9   6   35.49    1.39
   2   9  -6   39.73    1.37
  -2  -9   6   36.99    1.75
  -1  -9   6   42.76    1.82
  -1  -9   6   45.09    1.60
   0  -9   6    1.31    0.57
   0  -9   6    1.80    0.46
   0   9  -6    2.19    3.50
   1  -9   6   88.34    2.67
   1  -9   6   89.95    2.67
   2  -9   6   50.65    1.97
   2  -9   6   49.98    1.91
   3  -9   6   28.95    1.51
   3  -9   6   27.53    1.53
   4  -9   6   19.07    1.37
   4  -9   6   19.77    1.36
  -5   9  -6    0.53    0.56
   5  -9   6   -0.28    0.50
   6  -9   6    0.60    0.60
  -6   9  -6    0.03    0.66
  -7  -8   6    1.36    0.85
   7   8  -6    3.07    1.09
  -6  -8   6   -0.51    0.61
   6   8  -6    0.47    0.77
   5   8  -6   17.07    2.61
  -5  -8   6   13.93    1.31
   5   8  -6   15.55    1.38
   4   8  -6   90.30    5.28
  -4  -8   6   87.58    3.03
   4   8  -6   89.14    2.89
   3   8  -6    4.91    0.73
  -3  -8   6    3.11    0.66
   3   8  -6    4.00    2.03
   2   8  -6   35.31    4.47
  -2  -8   6   35.63    1.33
  -2  -8   6   34.27    1.60
   2   8  -6   34.16    1.30
  -1  -8   6  422.86    8.74
  -1  -8   6  417.45    8.49
   1   8  -6  418.47    8.05
   0  -8   6   14.79    1.03
   0  -8   6   13.45    0.86
   1  -8   6   81.27    2.48
   1  -8   6   80.33    2.41
   2  -8   6   36.15    1.64
   2  -8   6   37.21    1.60
   3  -8   6    1.76    0.54
   3  -8   6    2.63    0.58
  -3   8  -6    1.49    2.56
   4  -8   6   13.25    1.13
   4  -8   6   11.48    1.03
   5  -8   6   24.58    1.57
   6  -8   6    1.01    0.65
  -6   8  -6    0.51    0.69
   7   7  -6    1.82    1.00
  -7  -7   6    0.45    0.76
   6   7  -6    5.39    1.09
  -6  -7   6    5.75    1.01
   5   7  -6    4.44    0.92
  -5  -7   6    3.93    0.88
   5   7  -6    4.94    1.73
   4   7  -6    2.53    1.68
   4   7  -6    2.29    0.72
  -4  -7   6    3.55    0.74
   3   7  -6    4.11    1.97
  -3  -7   6    2.27    0.44
   3   7  -6    2.55    0.57
  -3  -7   6    1.81    0.60
   2   7  -6    7.22    0.70
  -2  -7   6    6.98    0.64
  -2  -7   6    5.74    0.73
  -1  -7   6    0.63    0.33
   1   7  -6    1.44    2.32
   1   7  -6    0.36    0.26
  -1  -7   6    0.51    0.44
   0   7  -6   -2.42    2.70
   0  -7   6    0.26    0.35
   0  -7   6   -0.06    0.28
   0   7  -6    0.15    0.18
  -1   7  -6   -2.83    2.73
   1  -7   6    2.14    0.50
   1  -7   6    1.63    0.46
   2  -7   6    9.67    0.92
   2  -7   6   13.45    0.94
   3  -7   6    9.91    0.91
   3  -7   6    7.69    0.80
   4  -7   6    2.53    0.64
  -4   7  -6    0.18    1.75
   4  -7   6    1.35    0.52
   5  -7   6    3.49    0.75
   5  -7   6    3.65    0.79
  -6   7  -6    1.58    0.72
   6  -7   6    1.41    0.73
  -7  -6   6    3.75    0.99
   7   6  -6    1.72    0.99
   6   6  -6   20.88    1.67
  -6  -6   6   18.78    1.54
  -5  -6   6   85.63    3.03
   5   6  -6   86.98    3.09
  -4  -6   6   30.07    1.59
   4   6  -6   31.06    1.63
   4   6  -6   29.14    2.90
  -3  -6   6    0.06    0.28
   3   6  -6   -0.34    0.37
   3   6  -6    0.03    1.26
  -3  -6   6    0.57    0.44
   2   6  -6   61.18    1.89
  -2  -6   6   62.47    1.84
  -2  -6   6   63.62    2.04
   1   6  -6   75.85    1.94
  -1  -6   6   74.79    2.21
  -1  -6   6   76.02    2.12
   0  -6   6    9.16    0.73
   0   6  -6    8.77    0.55
   0  -6   6    6.98    0.68
  -1   6  -6  177.33    3.67
   1  -6   6  177.10    4.04
   1  -6   6  175.47    4.18
  -2   6  -6   36.54    1.18
   2  -6   6   35.05    1.52
   2  -6   6   34.37    1.38
  -3   6  -6   -0.17    0.24
   3  -6   6   -0.10    0.31
  -3   6  -6   -1.31    1.25
   3  -6   6   -0.06    0.36
  -4   6  -6   -1.17    1.63
   4  -6   6    3.93    0.68
   4  -6   6    4.28    0.70
   5  -6   6    2.70    0.72
   5  -6   6    2.99    0.69
   6  -6   6    8.46    1.08
  -6   6  -6    7.93    1.03
   7   5  -6    0.05    0.88
  -7  -5   6   -0.36    0.61
   6   5  -6    2.58    0.89
  -6  -5   6    1.84    0.75
   5   5  -6   24.99    1.64
  -5  -5   6   26.08    1.60
  -4  -5   6    1.55    0.55
   4   5  -6    0.92    1.39
   4   5  -6    1.05    0.62
   3   5  -6    4.46    0.67
   3   5  -6    5.62    1.79
  -3  -5   6    5.89    0.62
  -3  -5   6    4.70    0.66
  -2  -5   6  289.72    6.09
  -2  -5   6  284.89    5.90
   2   5  -6  275.68    5.93
  -1  -5   6   86.92    2.37
   1   5  -6   92.08    2.27
  -1  -5   6   92.85    2.40
   0   5  -6    0.97    0.32
   0  -5   6    0.35    0.27
   0   5  -6    0.49    2.40
   0  -5   6    0.50    0.33
   1  -5   6  573.38   11.28
  -1   5  -6  573.25   10.77
   1  -5   6  567.01   11.05
   2  -5   6  324.50    7.03
   2  -5   6  334.34    6.82
  -2   5  -6  331.14    6.52
   3  -5   6    0.27    0.37
  -3   5  -6    0.06    0.26
   3  -5   6    0.58    0.38
   4  -5   6   14.32    1.07
   4  -5   6   15.62    1.12
   5  -5   6   16.01    1.27
   5  -5   6   17.01    1.14
   5  -5   6   17.18    1.24
   6  -5   6    1.39    0.71
  -6   5  -6    0.83    0.59
  -7  -4   6    1.03    0.77
   7   4  -6    2.03    1.04
   6   4  -6   -0.32    0.67
  -6  -4   6   -0.65    0.54
  -5  -4   6   -0.23    0.47
   5   4  -6    0.38    0.61
   4   4  -6  204.38    8.79
  -4  -4   6  221.52    5.21
  -4  -4   6  222.58    4.80
   4   4  -6  210.81    5.26
  -3  -4   6    7.99    0.70
  -3  -4   6    6.90    0.72
   3   4  -6    7.74    0.81
   3   4  -6    8.83    2.06
   2   4  -6    0.71    1.64
  -2  -4   6    1.54    0.37
  -2  -4   6    1.46    0.41
   2   4  -6    1.34    0.41
   1   4  -6  123.71    2.91
  -1  -4   6  127.71    3.02
  -1  -4   6  123.81    2.95
   0  -4   6  342.70    6.84
   0  -4   6  349.16    7.03
   0   4  -6  339.54    6.75
  -1   4  -6  686.31   12.87
   1  -4   6  690.64   13.01
   1  -4   6  680.23   13.28
  -2   4  -6  195.38    4.18
   2  -4   6  197.80    4.30
   2  -4   6  199.78    4.57
   3  -4   6    0.02    0.28
  -3   4  -6    0.23    0.26
   3  -4   6   -0.15    0.30
   4  -4   6   90.27    2.82
   4  -4   6  101.06    2.88
   5  -4   6    7.47    0.87
   5  -4   6    6.66    0.82
   5  -4   6    7.99    0.95
   6  -4   6    1.12    0.63
  -6   4  -6    1.41    0.60
   7   3  -6   14.07    1.71
  -7  -3   6   15.30    1.54
   6   3  -6    1.05    0.77
  -6  -3   6    0.25    0.63
  -5  -3   6   -0.23    0.49
   5   3  -6    0.38    0.63
  -4  -3   6    3.25    0.61
   4   3  -6    2.99    1.24
   4   3  -6    3.15    0.73
  -4  -3   6    4.01    0.57
  -3  -3   6   11.62    0.86
  -3  -3   6   13.16    0.83
   3   3  -6   10.97    1.73
   3   3  -6   11.07    0.95
  -2  -3   6  289.34    6.04
   2   3  -6  288.90    6.10
  -2  -3   6  292.67    6.02
  -1  -3   6   66.75    1.87
  -1  -3   6   65.20    1.76
   1   3  -6   62.48    1.83
   0  -3   6  165.06    3.49
   0   3  -6  161.77    3.61
   0  -3   6  164.66    3.74
   1  -3   6   50.93    1.65
  -1   3  -6   50.40    1.52
   1  -3   6   46.96    1.37
   2  -3   6   40.00    1.28
  -2   3  -6   38.19    1.31
   2  -3   6   38.32    1.45
   3  -3   6   -0.01    1.14
   3  -3   6   -0.10    0.26
  -3   3  -6    0.00    0.25
   3  -3   6    0.92    0.39
   4  -3   6    2.16    0.55
   4  -3   6    3.22    0.59
   4  -3   6    4.15    1.77
   5  -3   6   -0.57    0.43
   5  -3   6   -0.33    0.33
   5  -3   6   -0.17    0.45
   5  -3   6    1.60    1.56
   6  -3   6    5.65    0.90
   7  -3   6    0.67    0.69
  -7  -2   6    0.80    0.69
   7   2  -6    1.13    0.89
   6   2  -6   50.90    2.52
  -6  -2   6   53.41    2.45
  -5  -2   6  131.71    3.83
   5   2  -6  129.34    3.97
   4   2  -6    0.92    0.61
  -4  -2   6    0.88    0.40
  -4  -2   6    0.65    0.46
   3   2  -6    8.61    0.88
  -3  -2   6    9.15    0.72
  -3  -2   6    9.91    0.75
   2   2  -6   43.78    1.59
  -2  -2   6   44.01    1.47
  -2  -2   6   42.80    1.42
   1   2  -6  314.84    6.38
  -1  -2   6  311.19    6.18
  -1  -2   6  310.63    6.37
   0   2  -6  286.47    5.85
   0  -2   6  288.98    5.60
   0  -2   6  280.09    5.90
   1  -2   6  839.42   15.56
   1  -2   6  847.89   15.94
  -1   2  -6  828.24   15.68
   2  -2   6   10.97    0.75
   2  -2   6   11.82    0.64
  -2   2  -6   11.27    0.75
   2  -2   6   12.84    1.94
   3  -2   6    6.31    0.59
  -3   2  -6    5.55    0.60
   3  -2   6    6.94    1.75
   3  -2   6    6.22    0.65
   4  -2   6   24.67    2.87
   4  -2   6   23.53    1.23
   4  -2   6   22.55    1.20
   5  -2   6   26.64    1.36
   5  -2   6   29.53    2.99
   5  -2   6   27.29    1.46
   6  -2   6   12.34    1.16
  -6   2  -6   13.70    1.25
   7  -2   6    0.14    0.63
  -7  -1   6    7.79    1.15
   7   1  -6    4.35    1.18
  -6  -1   6    1.35    0.64
   6   1  -6    1.46    0.79
  -5  -1   6   24.74    1.25
   5   1  -6   23.14    1.58
  -5  -1   6   22.46    1.41
  -4  -1   6   14.02    0.91
   4   1  -6   14.01    1.21
  -4  -1   6   13.28    0.99
   3   1  -6    2.67    0.59
  -3  -1   6    2.12    0.41
  -3  -1   6    1.94    0.43
  -2  -1   6  362.10    7.35
   2   1  -6  369.87    7.60
  -2  -1   6  378.29    7.49
   1   1  -6  501.14    9.92
  -1  -1   6  503.62    9.90
  -1  -1   6  516.96    9.64
   0  -1   6   16.33    0.86
   0  -1   6   16.68    0.62
   0   1  -6   17.28    0.97
  -1   1  -6  940.17   17.64
   1  -1   6  980.69   17.47
   1  -1   6  945.93   17.83
   1  -1   6  916.20   32.08
  -2   1  -6  345.45    7.02
   2  -1   6  338.79   12.93
   2  -1   6  350.24    6.78
   2  -1   6  352.84    7.13
   3  -1   6   51.36    1.59
   3  -1   6   50.63    3.38
  -3   1  -6   53.30    1.75
   3  -1   6   51.28    1.72
  -4   1  -6    6.35    0.78
   4  -1   6    7.91    0.81
   4  -1   6    9.76    2.12
   5  -1   6    3.51    0.57
  -5   1  -6    3.47    0.66
   5  -1   6    4.03    1.73
   5  -1   6    2.58    0.66
   6  -1   6    0.80    0.64
   6  -1   6    0.89    1.77
  -6   1  -6    0.14    0.64
   7  -1   6    1.46    0.75
  -7   0   6   -0.25    0.52
   7   0  -6    0.54    0.90
   6   0  -6    1.63    0.81
  -6   0   6    1.50    0.65
  -5   0   6   12.37    1.08
   5   0  -6   14.21    1.32
  -5   0   6   13.21    0.98
  -4   0   6  215.28    5.22
  -4   0   6  237.18    5.13
  -3   0   6  130.12    3.17
   3   0  -6  125.23    3.43
  -3   0   6  127.85    3.17
  -2   0   6  341.09    6.76
  -2   0   6  337.28    6.92
   2   0  -6  338.82    7.09
   1   0  -6  185.12    4.20
  -1   0   6  184.26    4.07
  -1   0   6  184.95    3.75
   0   0   6  829.50   14.60
   0   0   6  755.47   14.82
   0   0   6  777.22   26.75
   0   0  -6  770.40   14.86
   1   0   6   55.02    3.59
  -1   0  -6   58.03    1.77
   1   0   6   56.02    1.72
   1   0   6   57.14    1.24
   2   0   6  130.08    2.82
  -2   0  -6  131.97    3.20
   2   0   6  134.14    5.97
   2   0   6  132.60    3.18
  -3   0  -6    1.86    0.44
   3   0   6    1.86    0.38
   3   0   6    1.25    1.33
  -4   0  -6  141.53    3.43
   4   0   6  139.18    3.52
   4   0   6  144.17    6.67
   5   0   6    1.27    0.59
   5   0   6    1.94    1.57
  -5   0  -6    0.60    0.50
   6   0   6   36.93    1.95
   6   0   6   41.40    3.53
   7   0   6    0.83    0.70
  -7   1   6    5.54    1.03
   7  -1  -6    4.16    1.04
  -6   1   6    0.67    0.59
   6  -1  -6    0.61    0.70
  -5   1   6   22.69    1.39
  -5   1   6   23.06    1.29
   5  -1  -6   22.31    1.59
  -4   1   6   12.15    0.91
  -4   1   6   14.30    0.95
   4  -1  -6   13.96    1.22
  -3   1   6    1.52    0.40
   3  -1  -6    1.60    0.55
  -3   1   6    2.18    0.40
  -2   1   6  361.54    7.37
  -2   1   6  361.91    7.16
   2  -1  -6  365.04    7.56
   1  -1  -6  488.71    9.88
  -1   1   6  521.29    9.82
  -1   1   6  490.48    9.39
   0  -1  -6   15.45    0.97
   0   1   6   15.70    0.80
   0   1   6   16.23    1.94
   1   1   6  946.48   17.49
  -1  -1  -6  929.26   17.46
   1   1   6  911.88   31.55
  -2  -1  -6  338.15    6.47
   2   1   6  331.40   12.63
   2   1   6  341.37    6.90
  -2  -1  -6  344.35    6.99
   3   1   6   54.05    3.48
  -3  -1  -6   54.90    1.87
   3   1   6   54.79    1.71
  -3  -1  -6   49.73    1.47
  -4  -1  -6    7.73    0.89
   4   1   6   10.91    2.22
   4   1   6    8.74    0.76
  -4  -1  -6    6.37    0.66
  -5  -1  -6    2.46    0.57
   5   1   6    3.88    1.77
   6   1   6    0.01    0.62
   6   1   6    0.73    1.76
   7   1   6    2.29    0.83
  -7   2   6    0.17    0.55
   7  -2  -6    1.40    0.79
  -6   2   6   48.43    2.20
   6  -2  -6   46.88    2.39
  -5   2   6  128.40    3.50
  -5   2   6  129.19    3.70
   5  -2  -6  126.50    3.92
   4  -2  -6    0.94    0.61
  -4   2   6    0.87    0.42
  -4   2   6    0.40    0.39
  -3   2   6    8.03    0.74
   3  -2  -6    9.18    0.92
  -3   2   6    9.29    0.68
  -2   2   6   43.35    1.33
   2  -2  -6   43.84    1.70
   2  -2  -6   47.17    3.08
  -2   2   6   42.65    1.49
   1  -2  -6  298.54    6.36
  -1   2   6  304.70    6.18
  -1   2   6  293.24    5.76
   0   2   6  265.13    9.93
   0  -2  -6  269.17    5.74
   0   2   6  269.59    5.57
   1   2   6  808.00   27.98
  -1  -2  -6  819.31   15.55
   1   2   6  829.27   15.49
  -2  -2  -6    9.59    0.47
   2   2   6   11.03    0.70
   2   2   6   12.05    1.94
  -2  -2  -6    9.96    0.79
   3   2   6    6.25    0.57
  -3  -2  -6    6.29    0.71
   3   2   6    6.91    1.74
  -3  -2  -6    5.46    0.47
  -4  -2  -6   25.02    1.12
   4   2   6   25.21    2.79
  -4  -2  -6   24.53    1.42
   4   2   6   23.23    1.13
   5   2   6   29.20    2.96
  -5  -2  -6   26.29    1.34
   6   2   6   16.20    2.58
   7  -3  -6   14.30    1.57
  -7   3   6   13.89    1.32
  -6   3   6    1.04    0.52
   6  -3  -6    0.45    0.67
  -6   3   6    0.59    0.58
   5  -3  -6    0.86    0.63
  -5   3   6   -0.19    0.37
  -5   3   6   -0.16    0.42
   4  -3  -6    3.13    0.73
  -4   3   6    2.44    0.54
  -4   3   6    2.60    0.54
   3  -3  -6   10.34    1.01
  -3   3   6   10.67    0.83
  -3   3   6    9.51    0.68
  -2   3   6  279.32    5.99
   2  -3  -6  286.33    6.20
  -1   3   6   63.59    3.21
   1  -3  -6   62.66    2.06
  -1   3   6   63.38    1.85
   1  -3  -6   63.18    1.54
   0  -3  -6  153.81    3.72
   0   3   6  154.52    3.49
   0   3   6  150.56    6.20
   1   3   6   44.34    1.45
   1   3   6   44.92    3.04
   2   3   6   38.98    1.30
   2   3   6   29.32    2.96
  -2  -3  -6   39.23    1.50
  -2  -3  -6   36.25    1.00
  -3  -3  -6    0.07    0.34
  -3  -3  -6    0.00    0.21
   3   3   6    0.62    0.27
   3   3   6   -0.48    1.09
  -4  -3  -6    2.57    0.49
   4   3   6    3.26    1.85
  -4  -3  -6    3.40    0.71
  -5  -3  -6    0.10    0.46
   5   3   6    0.71    1.56
   6   3   6    6.96    2.32
  -6  -3  -6    4.49    0.91
  -7   4   6    1.85    0.67
   7  -4  -6    2.10    0.89
   6  -4  -6    0.53    0.65
  -6   4   6    0.28    0.48
  -6   4   6   -0.18    0.50
   5  -4  -6    0.57    0.58
  -5   4   6    0.22    0.45
  -5   4   6    0.38    0.43
  -4   4   6  201.82    4.83
   4  -4  -6  204.42    5.16
  -3   4   6    5.30    0.60
   3  -4  -6    6.13    0.65
   3  -4  -6    5.98    0.85
  -2   4   6    1.55    0.40
   2  -4  -6    1.91    0.37
   2  -4  -6    1.31    0.52
  -1   4   6  118.27    2.92
   1  -4  -6  119.99    3.18
  -1   4   6  117.40    4.93
   1  -4  -6  118.96    2.60
   0   4   6  330.77    6.75
   0  -4  -6  337.75    7.02
   0   4   6  329.33   12.03
   0  -4  -6  330.16    6.27
   1   4   6  643.52   22.58
   1   4   6  648.09   12.45
  -1  -4  -6  656.70   12.14
  -1  -4  -6  654.84   12.68
  -2  -4  -6  202.17    4.61
  -2  -4  -6  194.36    3.95
   2   4   6  195.93    4.28
   2   4   6  191.60    8.19
  -3  -4  -6    0.00    0.37
   3   4   6   -0.09    0.22
   3   4   6   -0.93    1.13
  -3  -4  -6    0.44    0.24
  -4  -4  -6   91.45    2.53
  -4  -4  -6   94.10    2.98
   4   4   6   97.35    5.33
   5   4   6   11.07    2.45
  -5  -4  -6    7.09    0.99
  -6  -4  -6    1.43    0.71
   6   4   6    1.67    1.86
  -7  -4  -6    3.04    0.92
  -7   5   6    1.69    0.63
   7  -5  -6    0.62    0.69
  -6   5   6    1.89    0.64
  -6   5   6    1.52    0.63
   6  -5  -6    1.53    0.74
  -5   5   6   20.77    1.33
   5  -5  -6   23.94    1.59
  -4   5   6    0.34    0.43
   4  -5  -6    0.81    0.63
   4  -5  -6    0.49    0.54
   3  -5  -6    4.31    0.76
  -3   5   6    5.74    0.67
   3  -5  -6    5.23    0.64
  -2   5   6  258.99    5.65
   2  -5  -6  265.22    5.45
   2  -5  -6  253.62    5.84
   1  -5  -6   86.72    2.60
   1  -5  -6   87.38    2.05
  -1   5   6   83.45    3.84
  -1   5   6   86.82    2.36
   0  -5  -6    0.51    0.43
   0   5   6    0.13    0.23
   0  -5  -6    0.10    0.17
   0   5   6    0.02    0.76
  -1  -5  -6  532.80   10.73
   1   5   6  544.77   10.46
   1   5   6  533.70   19.01
  -1  -5  -6  543.71   10.09
   2   5   6  326.91    6.61
   2   5   6  326.85   12.40
  -2  -5  -6  322.57    6.98
   3   5   6    0.77    0.30
   3   5   6   -0.85    1.22
  -3  -5  -6   -0.04    0.26
  -3  -5  -6   -0.06    0.40
  -4  -5  -6   13.20    1.16
   4   5   6   15.52    2.63
  -5  -5  -6   16.69    1.37
   5   5   6   19.33    2.73
   6   5   6    1.32    1.89
  -6  -5  -6    0.60    0.61
  -7  -5  -6    0.40    0.71
   7   5   6    4.36    2.09
   7  -6  -6    1.85    0.83
  -7   6   6    3.90    0.82
   6  -6  -6   18.18    1.54
  -6   6   6   17.08    1.36
   5  -6  -6   76.70    2.92
   5  -6  -6   76.80    2.80
  -5   6   6   77.35    2.61
  -4   6   6   28.38    1.44
   4  -6  -6   25.81    1.55
   4  -6  -6   26.81    1.43
  -3   6   6   -0.13    0.38
   3  -6  -6    0.08    0.37
   3  -6  -6    0.70    0.54
  -2   6   6   55.11    1.86
   2  -6  -6   57.29    1.74
   2  -6  -6   56.73    2.09
   1  -6  -6   71.09    1.83
  -1   6   6   72.80    2.11
   1  -6  -6   67.38    2.30
  -1   6   6   71.75    3.44
   0   6   6    7.00    0.62
   0  -6  -6    6.65    0.79
   0  -6  -6    6.88    0.48
   0   6   6    9.19    1.44
  -1  -6  -6  162.60    4.05
   1   6   6  165.60    3.74
  -1  -6  -6  166.59    3.42
   1   6   6  166.04    6.97
   2   6   6   37.23    3.06
   2   6   6   35.42    1.27
  -2  -6  -6   35.84    1.20
  -2  -6  -6   34.73    1.56
   3   6   6    0.27    0.26
  -3  -6  -6    0.01    0.30
  -3  -6  -6   -0.06    0.43
   3   6   6   -1.50    1.31
   4   6   6    5.38    2.10
  -4  -6  -6    3.67    0.78
   5   6   6    3.77    2.19
  -5  -6  -6    3.04    0.79
  -6  -6  -6    7.30    1.14
   6   6   6   10.78    2.76
   7   6   6    8.29    2.50
   7  -7  -6    1.90    0.78
  -7   7   6    1.66    0.61
  -7   7   6    2.13    0.79
  -6   7   6    5.74    0.89
   6  -7  -6    7.17    1.14
   5  -7  -6    3.30    0.79
  -5   7   6    3.56    0.73
   5  -7  -6    4.15    0.84
  -4   7   6    2.28    0.61
   4  -7  -6    2.69    0.70
   4  -7  -6    2.36    0.73
   3  -7  -6    1.29    0.61
  -3   7   6    1.74    0.48
   3  -7  -6    2.32    0.56
   2  -7  -6    6.65    0.69
  -2   7   6    6.55    0.69
   2  -7  -6    6.67    0.87
   1  -7  -6    0.27    0.53
   1  -7  -6    0.39    0.29
  -1   7   6    1.08    0.88
  -1   7   6    0.36    0.31
   0  -7  -6    0.14    0.25
   0   7   6    0.14    0.25
   0  -7  -6    0.24    0.46
   0   7   6    0.41    0.89
   1   7   6    2.08    0.39
  -1  -7  -6    2.68    0.42
  -1  -7  -6    1.93    0.58
   1   7   6    2.75    1.30
  -2  -7  -6   11.73    1.01
   2   7   6   12.32    0.77
   2   7   6   15.73    2.38
  -2  -7  -6   12.54    0.83
  -3  -7  -6    8.51    0.77
  -3  -7  -6    8.44    0.92
   3   7   6   12.21    2.42
  -4  -7  -6    0.94    0.57
   4   7   6    0.16    1.84
   5   7   6    5.25    2.41
  -5  -7  -6    3.28    0.81
  -6  -7  -6    0.57    0.69
   6   7   6    3.31    2.29
   7   7   6    4.44    2.16
  -7   8   6    0.87    0.48
  -7   8   6    0.14    0.64
   7  -8  -6    1.25    0.68
  -6   8   6    0.73    0.62
   6  -8  -6    0.92    0.80
   6  -8  -6    1.43    0.74
  -5   8   6   14.88    1.18
   5  -8  -6   12.51    1.22
   5  -8  -6   13.52    1.25
  -4   8   6   77.55    2.62
   4  -8  -6   78.57    2.82
   4  -8  -6   77.86    2.66
  -3   8   6    3.19    0.61
   3  -8  -6    3.48    0.62
   3  -8  -6    2.82    0.74
   2  -8  -6   33.01    1.63
   2  -8  -6   31.73    1.32
  -2   8   6   28.74    1.39
  -1   8   6  395.12   13.80
   1  -8  -6  378.96    8.27
   1  -8  -6  385.76    7.71
  -1   8   6  387.40    8.00
   0  -8  -6   14.36    0.76
   0  -8  -6   14.08    1.13
   0   8   6   13.02    1.77
   0   8   6   13.61    0.85
  -1  -8  -6   79.96    2.07
   1   8   6   82.64    4.39
   1   8   6   76.08    2.17
  -1  -8  -6   79.93    2.56
   2   8   6   37.11    1.30
   2   8   6   32.60    3.35
  -2  -8  -6   36.29    1.35
  -2  -8  -6   34.64    1.64
   3   8   6    1.32    1.89
  -3  -8  -6    2.14    0.63
  -4  -8  -6   12.21    1.15
   4   8   6   18.29    3.14
   5   8   6   28.69    3.53
  -5  -8  -6   22.80    1.60
  -6  -8  -6    0.90    0.74
   6   8   6    0.83    2.19
   6  -9  -6    6.04    1.06
   6  -9  -6    4.32    1.01
  -6   9   6    4.33    0.86
  -5   9   6    3.95    0.76
   5  -9  -6    4.57    0.90
   5  -9  -6    3.02    0.81
   4  -9  -6   27.77    1.61
  -4   9   6   26.14    1.46
   4  -9  -6   27.17    1.55
  -3   9   6   15.00    1.13
   3  -9  -6   16.46    1.28
   3  -9  -6   12.79    1.07
  -2   9   6   31.93    1.42
   2  -9  -6   28.38    1.60
   2  -9  -6   35.54    1.40
   1  -9  -6   40.55    1.86
  -1   9   6   42.58    1.63
  -1   9   6   40.85    2.62
   1  -9  -6   41.16    1.45
   0   9   6    1.13    1.19
   0  -9  -6    1.34    0.61
   0   9   6    1.63    0.41
   0  -9  -6    1.14    0.39
  -1  -9  -6   90.49    2.37
   1   9   6   95.48    4.89
   1   9   6   90.14    2.46
  -1  -9  -6   89.20    2.84
  -2  -9  -6   52.93    1.75
   2   9   6   54.63    4.06
   2   9   6   53.51    1.66
  -2  -9  -6   52.17    2.08
  -3  -9  -6   26.23    1.55
   3   9   6   31.74    3.61
  -4  -9  -6   20.41    1.42
   4   9   6   20.33    3.11
   5   9   6    1.15    2.25
  -5  -9  -6    0.82    0.58
   6   9   6   -0.25    2.13
  -6  -9  -6   -0.44    0.42
   6 -10  -6    8.80    1.20
   6 -10  -6    6.30    1.11
  -6  10   6    7.81    1.01
  -5  10   6    7.97    0.96
   5 -10  -6    8.36    1.10
   5 -10  -6    7.94    1.05
   4 -10  -6    9.90    1.02
  -4  10   6    8.66    0.94
   4 -10  -6   10.23    1.09
  -3  10   6    5.97    0.78
   3 -10  -6    6.50    0.94
   3 -10  -6    7.72    0.86
   2 -10  -6   64.81    2.40
  -2  10   6   62.59    2.16
   2 -10  -6   62.85    2.07
   1 -10  -6    0.06    0.37
  -1  10   6   -0.37    0.97
  -1  10   6   -0.19    0.34
   1 -10  -6    0.26    0.62
   0 -10  -6  121.83    3.03
   0  10   6  127.48    5.75
   0 -10  -6  121.12    3.56
   0  10   6  126.01    3.23
   1  10   6   44.73    3.43
   1  10   6   45.54    1.59
  -1 -10  -6   44.23    1.93
  -1 -10  -6   43.34    1.57
  -2 -10  -6   13.85    1.03
  -2 -10  -6   12.37    1.12
   2  10   6   16.54    2.86
   3  10   6   -0.11    2.09
  -3 -10  -6    0.12    0.56
  -4 -10  -6   15.51    1.31
   4  10   6   16.83    2.99
   5  10   6   -1.00    2.10
  -5 -10  -6   -0.13    0.48
  -6 -10  -6    1.43    0.67
   6  10   6    3.33    2.44
  -6  11   6    0.82    0.62
   6 -11  -6    1.48    0.71
   6 -11  -6    1.00    0.82
   5 -11  -6    0.12    0.52
   5 -11  -6    0.36    0.61
  -5  11   6    0.62    0.59
   4 -11  -6   15.96    1.23
  -4  11   6   12.99    1.12
   4 -11  -6   12.94    1.18
  -3  11   6    3.27    0.65
   3 -11  -6    4.39    0.75
   3 -11  -6    5.58    0.87
   2 -11  -6   61.68    2.12
   2 -11  -6   63.19    2.42
  -2  11   6   58.97    2.17
   1 -11  -6   35.34    1.44
  -1  11   6   34.27    1.49
   1 -11  -6   36.06    1.81
  -1  11   6   35.64    2.71
   0 -11  -6    0.60    0.48
   0  11   6    0.15    1.23
   0  11   6    0.06    0.36
   0 -11  -6    1.14    0.68
  -1 -11  -6    4.72    0.66
   1  11   6    6.52    1.98
  -1 -11  -6    6.32    0.92
   1  11   6    4.70    0.56
  -2 -11  -6   30.11    1.66
   2  11   6   30.51    3.40
  -3 -11  -6    8.01    1.03
   3  11   6    8.95    3.01
   4  11   6    5.15    2.61
  -4 -11  -6    4.71    0.92
   5  11   6   -0.24    2.10
  -5 -11  -6    0.72    0.61
   6  11   6   -1.27    2.24
  -6 -11  -6    0.23    0.56
   6 -12  -6    5.29    1.10
   6 -12  -6    5.49    1.00
   5 -12  -6    6.92    1.06
  -5  12   6    6.74    1.02
   5 -12  -6    7.16    1.03
  -4  12   6    0.80    0.57
   4 -12  -6    0.26    0.57
   4 -12  -6   -0.23    0.47
   3 -12  -6   25.29    1.53
   3 -12  -6   25.28    1.47
  -3  12   6   26.69    1.51
  -2  12   6    5.35    0.77
   2 -12  -6    7.45    0.83
   2 -12  -6    9.29    1.12
   1 -12  -6   24.31    1.26
   1 -12  -6   25.53    1.59
  -1  12   6   23.19    1.28
   0 -12  -6   55.44    1.89
   0 -12  -6   54.92    2.29
   0  12   6   48.02    1.84
   0  12   6   57.06    3.78
   1  12   6   11.64    2.37
  -1 -12  -6    8.15    1.05
  -1 -12  -6    8.10    0.83
   1  12   6    8.30    0.75
   2  12   6   19.08    3.12
  -2 -12  -6   11.74    1.18
  -3 -12  -6    9.35    1.14
   3  12   6   10.75    3.14
   4  12   6    1.02    2.37
  -4 -12  -6    0.91    0.69
   5  12   6    5.23    2.76
  -5 -12  -6    3.90    0.92
  -6 -12  -6    0.57    0.61
   6  12   6    1.20    2.59
   5 -13  -6    0.31    0.58
  -5  13   6   -0.52    0.51
   5 -13  -6    0.15    0.71
  -4  13   6    6.04    0.84
   4 -13  -6    7.25    1.05
   4 -13  -6    7.39    1.00
  -3  13   6    4.39    0.77
   3 -13  -6    5.82    0.92
   3 -13  -6    5.33    0.87
  -2  13   6    0.50    0.45
   2 -13  -6    0.45    0.60
   2 -13  -6    1.39    0.59
   1 -13  -6   28.65    1.45
  -1  13   6   33.66    1.56
   1 -13  -6   35.37    1.85
   0  13   6    0.23    1.56
   0 -13  -6    0.98    0.54
   0 -13  -6    0.49    0.68
   0  13   6    0.17    0.39
   1  13   6   21.40    3.08
   1  13   6   20.15    1.10
  -1 -13  -6   21.04    1.48
  -1 -13  -6   22.41    1.28
  -2 -13  -6    4.87    0.95
   2  13   6    9.35    2.63
   3  13   6   30.88    4.00
  -3 -13  -6   25.70    1.68
   4  13   6    0.08    2.72
  -4 -13  -6   -0.14    0.57
  -5 -13  -6    3.46    0.91
   5  13   6    6.15    2.75
  -5  14   6    5.02    1.00
   5 -14  -6    5.12    1.07
   4 -14  -6    1.81    0.74
   4 -14  -6    1.23    0.64
  -4  14   6    2.12    0.67
  -3  14   6    5.43    0.84
   3 -14  -6    6.04    0.89
   3 -14  -6    4.80    0.85
   2 -14  -6    7.66    0.92
   2 -14  -6    8.19    1.04
  -2  14   6    6.83    0.84
  -1  14   6   22.85    1.32
   1 -14  -6   23.95    1.59
   1 -14  -6   24.24    1.38
   0 -14  -6   17.05    1.40
   0  14   6   15.26    1.07
   0 -14  -6   15.16    1.15
   0  14   6   15.61    2.83
  -1 -14  -6   -0.45    0.54
   1  14   6    0.88    1.82
  -2 -14  -6    2.30    0.81
   2  14   6    2.20    2.32
  -3 -14  -6   -0.16    0.62
   3  14   6    0.38    2.51
   4  14   6   -0.17    2.85
  -4 -14  -6   -0.34    0.52
  -5 -14  -6    7.94    1.20
   5  14   6    9.32    3.14
  -5  15   6    0.35    0.70
   5 -15  -6   -0.84    0.67
  -4  15   6   11.36    1.16
   4 -15  -6   11.81    1.25
   3 -15  -6    0.19    0.63
  -3  15   6    0.44    0.52
   3 -15  -6   -0.03    0.52
   2 -15  -6    9.70    1.14
  -2  15   6    9.74    0.94
   2 -15  -6   10.62    1.05
   1 -15  -6    4.61    0.96
   1 -15  -6    5.19    0.85
  -1  15   6    5.32    0.72
   0 -15  -6    0.81    0.73
   0 -15  -6    1.17    0.62
   0  15   6    1.48    1.80
   0  15   6    0.70    0.47
  -1 -15  -6    3.14    0.87
   1  15   6    5.79    2.38
  -2 -15  -6    3.30    0.91
   2  15   6    4.94    2.74
   3  15   6    1.55    2.70
  -3 -15  -6    1.18    0.74
  -4 -15  -6    5.10    1.03
   4  15   6    7.27    3.45
   5  15   6    7.20    3.12
  -5 -15  -6    3.43    0.94
  -4  16   6   -0.05    0.50
   4 -16  -6   -0.57    0.64
  -3  16   6    6.16    0.94
   3 -16  -6    8.18    1.08
  -2  16   6   -0.12    0.43
   2 -16  -6    0.02    0.58
  -1  16   6    7.70    0.87
   1 -16  -6    8.88    1.00
   1 -16  -6    8.67    1.18
   0  16   6   26.94    3.46
   0  16   6   21.74    1.32
   0 -16  -6   21.83    1.70
   1  16   6    8.57    2.68
  -1 -16  -6    3.40    0.94
   2  16   6   12.90    3.24
  -2 -16  -6    9.06    1.24
   3  16   6    3.67    2.96
   4  16   6    2.11    2.98
  -4 -16  -6    0.35    0.69
   4 -17  -6    4.88    1.06
  -4  17   6    3.58    0.82
   3 -17  -6   15.25    1.39
  -3  17   6   14.54    1.23
  -2  17   6    1.04    0.51
   2 -17  -6    0.30    0.67
   1 -17  -6   -0.21    0.56
  -1  17   6   -0.22    0.43
   0 -17  -6   21.04    1.74
  -1 -17  -6    2.45    0.89
   1  17   6    6.37    2.68
   2  17   6    2.04    2.62
  -2 -17  -6    2.59    0.93
  -3 -17  -6   11.88    1.47
   3  17   6   18.39    3.98
  -4 -17  -6   -0.97    0.56
   4  17   6   -1.52    3.08
   3 -18  -6   -0.24    0.66
  -3  18   6    0.06    0.46
  -2  18   6   -0.02    0.45
   2 -18  -6    0.22    0.63
  -1  18   6    0.14    0.48
   1  18   6    1.17    2.33
   2  18   6    1.15    2.75
  -2 -18  -6    0.92    0.75
   3  18   6   12.31    3.99
  -3  19   6    1.39    0.61
  -2  19   6    2.02    0.63
  -1  19   6    0.75    0.57
   1  19   6    0.74    2.60
   2  19  -7    8.29    3.38
  -2 -19   7    5.44    1.21
  -1 -19   7    0.74    0.87
   1  19  -7   -0.55    2.56
   0 -19   7   -0.76    0.64
   0  19  -7    0.88    3.29
   1 -19   7    0.23    0.72
  -1  19  -7    0.66    0.57
  -1  19  -7    0.80    3.52
  -2  19  -7    3.54    0.88
   2 -19   7    4.62    1.06
   3  18  -7    4.05    2.32
  -3 -18   7    1.25    1.01
  -2 -18   7    4.57    1.11
   2  18  -7    4.41    2.89
  -1 -18   7    1.06    0.85
   1  18  -7    0.37    2.60
   0 -18   7    2.22    0.87
   0  18  -7    2.68    3.64
   1 -18   7    9.09    1.25
  -1  18  -7    7.85    1.04
  -1  18  -7   11.79    3.68
  -2  18  -7    4.58    2.66
   2 -18   7    3.24    0.94
  -2  18  -7    4.17    0.84
  -3  18  -7    1.82    0.76
   3 -18   7    0.26    0.65
  -4 -17   7   -0.42    0.85
  -3 -17   7    0.48    0.86
   3  17  -7    0.94    1.81
   2  17  -7    0.85    1.88
  -2 -17   7    0.46    0.76
  -1 -17   7    3.32    0.99
   1  17  -7    3.12    3.00
   0  17  -7   33.93    5.96
   0 -17   7   30.15    1.82
   0 -17   7   28.58    1.94
   1 -17   7   11.06    1.26
   1 -17   7   11.35    1.36
  -1  17  -7   22.23    4.72
   2 -17   7    0.49    0.70
  -2  17  -7   -0.07    2.18
  -3  17  -7    2.65    0.80
   3 -17   7    4.49    0.99
   4  16  -7    5.75    2.30
  -4 -16   7    5.31    1.24
  -3 -16   7   11.76    1.49
   3  16  -7   15.07    3.46
  -2 -16   7   -0.68    0.65
   2  16  -7   -1.06    1.70
  -1 -16   7    5.22    1.06
   1  16  -7    6.28    3.34
   0 -16   7   10.91    1.15
   0 -16   7    9.81    1.26
   1 -16   7   10.69    1.19
   1 -16   7   10.20    1.26
   2 -16   7    2.92    0.84
   2 -16   7    1.39    0.77
  -2  16  -7   -1.27    2.22
  -3  16  -7   -1.29    2.12
  -3  16  -7    0.09    0.51
   3 -16   7    1.00    0.68
  -4  16  -7   -0.58    0.44
   4 -16   7    0.48    0.60
  -5 -15   7    0.93    0.94
   4  15  -7   -0.21    1.56
  -4 -15   7    0.28    0.81
   3  15  -7   17.33    3.61
  -3 -15   7   13.20    1.52
  -2 -15   7    1.64    0.86
   2  15  -7    1.06    1.95
   1  15  -7   30.55    4.88
  -1 -15   7   24.68    1.72
   0 -15   7    1.41    0.66
   0 -15   7    2.08    0.81
   0  15  -7    0.48    4.77
  -1  15  -7   -1.94    3.38
   1 -15   7   -0.62    0.59
   1 -15   7   -0.04    0.52
   2 -15   7    0.56    0.72
   2 -15   7    1.70    0.75
  -2  15  -7   -0.32    2.30
   3 -15   7    3.29    0.85
   3 -15   7    3.84    1.01
  -3  15  -7   -0.26    2.52
   4 -15   7    0.79    0.67
  -4  15  -7   -0.08    0.51
   5  14  -7    3.38    1.83
  -5 -14   7   -0.64    0.69
   4  14  -7   11.33    2.99
  -4 -14   7    6.69    1.22
  -3 -14   7    0.93    0.80
   3  14  -7    0.89    1.85
   2  14  -7    4.82    2.37
  -2 -14   7    5.61    1.05
  -1 -14   7   21.60    1.34
  -1 -14   7   20.87    1.58
   1  14  -7   23.47    4.11
   0 -14   7   36.52    1.79
   0 -14   7   36.44    1.97
   1 -14   7   10.56    1.13
   1 -14   7   11.88    1.22
   2 -14   7    1.00    0.70
   2 -14   7    0.86    0.66
  -2  14  -7   -0.52    2.96
   3 -14   7   -0.49    0.50
  -3  14  -7   -0.35    3.29
   3 -14   7   -0.16    0.63
  -4  14  -7   -0.54    0.67
   4 -14   7   -0.88    0.43
  -5  14  -7   -0.01    0.77
   5 -14   7    2.00    0.73
   5  13  -7    0.13    1.60
  -5 -13   7    0.83    0.78
  -4 -13   7    3.35    0.99
   4  13  -7    4.94    2.65
   3  13  -7   -0.26    1.88
  -3 -13   7    0.44    0.73
   2  13  -7   14.83    3.52
  -2 -13   7   13.27    1.33
  -1 -13   7  109.59    3.56
  -1 -13   7  109.82    3.22
   0 -13   7   13.56    1.30
   0 -13   7   12.40    1.10
   1 -13   7    8.44    0.98
   1 -13   7   10.59    1.15
   2 -13   7   13.88    1.30
   2 -13   7   13.80    1.21
  -3  13  -7   -1.52    3.19
   3 -13   7    0.60    0.58
   3 -13   7    0.51    0.63
   4 -13   7    1.31    0.60
   4 -13   7    1.72    0.70
  -5  13  -7    2.66    0.92
   5 -13   7    3.25    0.84
  -6 -12   7   -0.28    0.89
   5  12  -7    4.19    2.10
  -5 -12   7    2.98    1.00
   4  12  -7    0.99    1.62
  -4 -12   7    0.97    0.77
   3  12  -7   16.15    2.91
  -3 -12   7   15.89    1.43
  -2 -12   7    4.40    0.91
   2  12  -7    3.47    2.45
  -1 -12   7   36.96    1.92
  -1 -12   7   36.23    1.63
   0 -12   7    1.08    0.54
   0  12  -7    1.02    3.61
   0 -12   7    1.74    0.77
   1 -12   7    1.07    0.57
  -1  12  -7   -0.46    3.82
   1 -12   7    0.29    0.58
   2 -12   7   18.91    1.39
   2 -12   7   19.32    1.34
  -3  12  -7   -2.81    4.35
   3 -12   7    4.43    0.85
   3 -12   7    3.51    0.78
  -4  12  -7   -0.33    4.42
   4 -12   7   -0.08    0.55
   4 -12   7    0.50    0.57
  -5  12  -7    0.18    0.69
   5 -12   7    0.57    0.65
  -6 -11   7    3.30    0.99
   5  11  -7    0.39    1.81
  -5 -11   7    0.05    0.65
   4  11  -7   -0.06    1.28
  -4 -11   7   -0.47    0.58
  -3 -11   7   16.10    1.39
   3  11  -7   16.57    2.95
  -2 -11   7   38.98    1.95
   2  11  -7   36.51    4.04
  -2 -11   7   41.53    1.63
  -1 -11   7   15.21    1.31
   1  11  -7    2.19    4.05
  -1 -11   7   11.80    0.94
   0 -11   7   13.66    1.21
   0 -11   7   15.33    1.11
   1 -11   7   -0.15    0.52
   1 -11   7   -0.27    0.45
  -1  11  -7   -1.11    3.76
   2 -11   7    2.59    0.66
  -2  11  -7   -1.99    4.27
   2 -11   7    1.86    0.62
   3 -11   7   18.90    1.35
   3 -11   7   24.30    1.53
   4 -11   7   31.06    1.85
   4 -11   7   28.53    1.70
  -5  11  -7    1.74    0.78
   5 -11   7    1.68    0.73
  -6  11  -7    1.50    0.89
   6  10  -7    0.10    0.76
  -6 -10   7    0.99    0.77
   5  10  -7    1.51    1.65
  -5 -10   7    0.70    0.72
   5  10  -7    1.32    0.75
  -4 -10   7    2.81    0.81
   4  10  -7    2.97    1.84
  -3 -10   7    4.06    0.85
   3  10  -7    4.61    2.25
  -2 -10   7   26.85    1.28
   2  10  -7   29.79    4.62
  -2 -10   7   30.40    1.74
  -1 -10   7    8.15    0.98
  -1 -10   7    7.88    0.78
   1  10  -7   -2.00    2.76
   1 -10   7   16.72    1.18
   1 -10   7   13.02    1.10
   2 -10   7    4.97    0.77
   2 -10   7    5.79    0.84
  -2  10  -7   -3.39    3.96
   3 -10   7    6.53    0.89
  -3  10  -7   -1.68    4.29
   3 -10   7    6.53    0.84
   4 -10   7   13.05    1.21
   4 -10   7    9.76    1.13
   5 -10   7    0.53    0.60
   6 -10   7    1.17    0.62
  -6  10  -7    0.22    0.72
   6   9  -7    2.49    0.93
  -6  -9   7    2.94    0.91
  -5  -9   7   10.49    1.25
   5   9  -7   11.16    1.29
   5   9  -7    9.52    2.33
   4   9  -7    6.90    0.95
  -4  -9   7    6.68    0.96
   4   9  -7    6.45    2.15
  -3  -9   7   15.26    1.27
   3   9  -7   14.71    1.07
   3   9  -7   20.84    3.41
  -2  -9   7   70.13    2.51
  -2  -9   7   69.43    2.19
   0   9  -7    2.05    3.85
   0  -9   7    8.24    0.81
   0  -9   7    8.94    0.90
   1  -9   7  241.06    5.66
   1  -9   7  235.88    5.51
   2  -9   7   60.71    2.29
   2  -9   7   61.17    2.16
  -3   9  -7   -3.75    3.94
   3  -9   7    4.64    0.76
   3  -9   7    3.64    0.69
   4  -9   7   55.66    2.37
   4  -9   7   61.20    2.41
   5  -9   7    0.24    0.51
   5  -9   7    1.24    0.60
   6  -9   7   -0.10    0.54
  -6   9  -7    0.77    0.74
  -6  -8   7    2.90    0.92
   6   8  -7    3.79    1.03
  -5  -8   7   30.07    1.85
   5   8  -7   32.47    1.88
  -4  -8   7   -0.28    0.54
   4   8  -7    0.00    1.41
   4   8  -7    0.01    0.54
   3   8  -7   66.81    2.23
  -3  -8   7   67.51    2.08
  -3  -8   7   61.14    2.38
   3   8  -7   68.99    5.04
  -2  -8   7   46.80    1.68
   2   8  -7   47.70    1.64
  -2  -8   7   49.44    2.00
  -1  -8   7   44.62    1.67
  -1  -8   7   47.14    1.88
   0  -8   7    7.12    0.75
   0  -8   7    7.45    0.81
   0   8  -7   -0.34    3.63
  -1   8  -7    3.26    3.89
   1  -8   7    9.05    0.94
   1  -8   7    9.95    0.96
   2  -8   7   12.03    1.00
   2  -8   7   11.99    1.01
  -4   8  -7   -0.73    2.77
   4  -8   7    4.56    0.81
   4  -8   7    6.35    0.88
   5  -8   7    4.78    0.87
   5  -8   7    3.50    0.80
  -6   8  -7    0.71    0.68
  -7  -7   7    5.44    1.18
   7   7  -7    4.76    1.24
  -6  -7   7    7.38    1.15
   6   7  -7    6.60    1.20
   5   7  -7   -0.29    0.60
  -5  -7   7   -0.10    0.61
   4   7  -7   20.60    2.67
   4   7  -7   24.50    1.48
  -4  -7   7   22.21    1.44
  -3  -7   7  341.75    6.95
   3   7  -7  329.92    7.12
  -3  -7   7  321.82    7.31
   3   7  -7  321.88   13.45
   2   7  -7   78.02    2.25
  -2  -7   7   81.72    2.31
  -2  -7   7   75.96    2.45
   1   7  -7  335.18    6.61
  -1  -7   7  320.41    7.02
  -1  -7   7  336.65    7.00
   0  -7   7   67.68    2.09
   0  -7   7   63.53    2.10
   1  -7   7  115.49    3.03
   1  -7   7  116.06    3.18
   2  -7   7   44.99    1.82
   2  -7   7   44.27    1.67
   4  -7   7   13.44    1.13
   4  -7   7   11.55    1.07
   5  -7   7    0.10    0.49
   5  -7   7   -0.18    0.48
  -5   7  -7   -0.93    1.42
  -6   7  -7    5.42    0.96
  -7  -6   7   -0.10    0.63
   7   6  -7    0.09    0.90
  -6  -6   7    0.89    0.70
   6   6  -7    1.02    0.79
  -5  -6   7    1.96    0.75
   5   6  -7    2.65    0.83
   4   6  -7   -0.75    1.43
  -4  -6   7    0.00    0.52
   4   6  -7   -0.40    0.53
   3   6  -7   32.51    3.20
   3   6  -7   35.32    1.59
  -3  -6   7   32.76    1.57
  -3  -6   7   37.97    1.43
  -2  -6   7   10.53    0.80
  -2  -6   7    9.66    0.91
   2   6  -7   10.46    0.84
   1   6  -7   47.11    1.50
  -1  -6   7   49.24    1.69
  -1  -6   7   46.42    1.70
   0   6  -7   60.44    1.65
   0  -6   7   61.88    1.89
   0  -6   7   57.88    1.92
   1  -6   7    0.41    0.38
   1  -6   7   -0.35    0.36
  -1   6  -7    1.18    3.44
  -1   6  -7    0.02    0.36
   3  -6   7  105.82    3.17
   3  -6   7  113.43    3.05
   4  -6   7   18.87    1.22
   4  -6   7   14.82    1.12
   5  -6   7    0.26    0.52
   5  -6   7    0.22    0.47
  -5   6  -7   -0.85    1.30
  -7  -5   7    6.85    1.18
   7   5  -7    8.45    1.47
  -6  -5   7    2.12    0.78
   6   5  -7    3.79    0.99
  -5  -5   7   43.78    2.06
   5   5  -7   44.78    2.16
  -4  -5   7    1.99    0.63
   4   5  -7    2.54    1.72
   4   5  -7    1.03    0.67
  -3  -5   7    2.46    0.55
   3   5  -7    1.78    0.57
   3   5  -7    1.31    1.33
  -3  -5   7    1.99    0.45
  -2  -5   7  312.36    6.79
   2   5  -7  332.57    6.80
  -2  -5   7  327.19    6.79
  -1  -5   7  121.15    3.04
  -1  -5   7  117.96    2.96
   1   5  -7  115.49    2.84
   0  -5   7   50.69    1.59
   0   5  -7   48.48    1.52
   0  -5   7   49.41    1.71
   1  -5   7  407.44    8.09
   1  -5   7  413.93    8.43
  -1   5  -7  394.84    7.93
   2  -5   7  221.25    5.14
  -2   5  -7  220.90    4.68
   2  -5   7  221.16    4.85
   3  -5   7   41.87    1.76
   3  -5   7   38.09    1.58
  -3   5  -7   40.83    1.46
   4  -5   7   19.51    1.25
   4  -5   7   17.86    1.18
   5  -5   7   10.22    1.01
   5  -5   7    9.96    1.04
   7   4  -7    1.68    1.03
  -7  -4   7    1.28    0.76
   6   4  -7    2.15    0.90
  -6  -4   7    3.13    0.86
  -5  -4   7   -0.40    0.41
   5   4  -7    0.43    0.68
  -4  -4   7    5.54    0.67
   4   4  -7    4.88    0.88
  -4  -4   7    4.11    0.70
   4   4  -7    4.83    1.59
   3   4  -7   31.78    1.53
   3   4  -7   31.71    3.40
  -3  -4   7   31.46    1.31
  -3  -4   7   31.74    1.43
  -2  -4   7  323.96    6.73
  -2  -4   7  322.05    6.74
   2   4  -7  317.89    6.75
  -1  -4   7   26.28    1.18
   1   4  -7   25.54    1.13
  -1  -4   7   26.60    1.11
   0  -4   7   19.70    1.02
   0  -4   7   17.79    0.87
   0   4  -7   16.41    0.96
   1  -4   7   52.89    1.57
  -1   4  -7   55.58    1.68
   1  -4   7   51.87    1.79
   2  -4   7   61.25    2.03
  -2   4  -7   56.17    1.73
   2  -4   7   58.13    1.72
  -3   4  -7    5.42    0.63
   3  -4   7    4.87    0.62
  -3   4  -7   -0.94    2.45
   3  -4   7    4.13    0.65
   4  -4   7   57.53    2.16
  -4   4  -7   57.95    2.01
   4  -4   7   60.13    2.10
  -7  -3   7    7.28    1.17
   7   3  -7    9.40    1.49
   6   3  -7   12.59    1.46
  -6  -3   7   13.53    1.34
   5   3  -7   -0.24    0.62
  -5  -3   7    0.32    0.50
   4   3  -7   -0.09    0.55
  -4  -3   7    0.25    0.39
  -4  -3   7   -0.36    0.33
   3   3  -7   60.22    2.19
  -3  -3   7   65.12    2.00
  -3  -3   7   63.26    2.04
  -2  -3   7    3.91    0.51
  -2  -3   7    3.64    0.48
   2   3  -7    4.50    0.65
  -1  -3   7  106.06    2.73
   1   3  -7  101.97    2.66
  -1  -3   7  102.42    2.51
   0  -3   7  531.63   10.02
   0  -3   7  522.87   10.38
   0   3  -7  512.89   10.16
  -1   3  -7    2.36    0.48
  -1   3  -7   -1.98    2.01
   1  -3   7    2.48    0.44
   1  -3   7    2.26    0.36
  -2   3  -7   14.41    0.85
   2  -3   7   13.40    0.92
   2  -3   7   13.75    0.75
   3  -3   7   80.25    2.55
  -3   3  -7   87.76    2.43
   3  -3   7   88.83    2.38
   3  -3   7   87.65    4.97
  -4   3  -7   37.02    1.59
   4  -3   7   35.85    1.63
   4  -3   7   36.49    3.43
   4  -3   7   35.62    1.56
   5  -3   7   34.97    3.32
  -5   3  -7   31.49    1.62
   5  -3   7   29.68    1.55
  -6   3  -7    3.07    0.75
  -7  -2   7    0.56    0.61
   7   2  -7    0.42    0.88
   6   2  -7    0.70    0.79
  -6  -2   7   -0.03    0.51
   5   2  -7    2.98    0.85
  -5  -2   7    2.80    0.69
   4   2  -7    5.75    0.92
  -4  -2   7    5.40    0.67
  -4  -2   7    5.29    0.71
   3   2  -7   69.97    2.36
  -3  -2   7   70.34    2.17
  -3  -2   7   70.12    2.12
  -2  -2   7    3.44    0.46
   2   2  -7    3.63    0.60
  -2  -2   7    3.10    0.49
  -1  -2   7   44.47    1.54
   1   2  -7   43.98    1.59
  -1  -2   7   44.08    1.31
   0  -2   7   89.41    2.06
   0  -2   7   86.95    2.43
   0   2  -7   89.59    2.45
   1  -2   7   34.18    1.37
   1  -2   7   37.70    1.05
  -1   2  -7   34.06    1.36
   2  -2   7    6.14    0.64
   2  -2   7    7.51    1.73
   2  -2   7    5.65    0.48
  -2   2  -7    5.65    0.60
   3  -2   7   -0.58    0.29
   3  -2   7    0.15    0.31
   3  -2   7   -1.07    1.25
  -3   2  -7    0.30    0.35
   4  -2   7    4.06    0.61
   4  -2   7    3.52    0.64
  -4   2  -7    2.77    0.62
   4  -2   7    4.92    2.05
  -5   2  -7    0.81    0.53
   5  -2   7   -0.41    1.55
   5  -2   7    0.20    0.39
  -6   2  -7    2.00    0.68
   6  -2   7    0.48    1.91
  -7   2  -7    0.29    0.64
  -7  -1   7    1.90    0.77
   7   1  -7    2.06    1.03
   6   1  -7   15.98    1.55
  -6  -1   7   19.61    1.48
   5   1  -7   23.90    1.64
  -5  -1   7   23.36    1.30
  -5  -1   7   23.95    1.47
   4   1  -7    1.77    0.72
  -4  -1   7    3.34    0.56
  -4  -1   7    3.54    0.59
  -3  -1   7   39.62    1.49
   3   1  -7   30.57    3.00
  -3  -1   7   38.27    1.42
   3   1  -7   35.69    1.65
  -2  -1   7  531.29   10.47
  -2  -1   7  527.71   10.26
   2   1  -7  529.56   10.59
  -1  -1   7   29.61    0.95
  -1  -1   7   26.55    1.14
   1   1  -7   26.40    1.27
   0   1  -7  926.16   17.61
   0  -1   7  985.38   17.27
   0  -1   7  885.70   17.64
   1  -1   7   18.49    0.98
   1  -1   7   18.45    2.35
  -1   1  -7   19.97    1.07
   1  -1   7   20.59    0.64
  -2   1  -7   10.20    0.78
   2  -1   7   10.97    0.56
   2  -1   7   11.03    1.91
   2  -1   7    9.71    0.75
   3  -1   7   67.28    2.13
   3  -1   7   60.45    4.11
   3  -1   7   68.24    1.89
  -3   1  -7   67.08    2.11
   4  -1   7    0.09    1.64
   4  -1   7    0.83    0.45
  -4   1  -7    0.72    0.51
   5  -1   7   14.11    0.99
  -5   1  -7   13.63    1.18
   5  -1   7   13.45    2.46
  -6   1  -7    2.66    0.75
   6  -1   7    4.42    2.15
  -7   1  -7    0.74    0.66
  -7   0   7   -0.32    0.41
   7   0  -7    0.16    0.88
   6   0  -7   -0.33    0.69
  -6   0   7   -0.58    0.49
  -5   0   7    0.05    0.42
  -5   0   7    0.04    0.43
   5   0  -7   -0.06    0.64
   4   0  -7    1.03    0.63
  -4   0   7    0.09    0.35
  -4   0   7    0.11    0.39
  -3   0   7    0.49    0.30
  -3   0   7   -0.09    0.31
   3   0  -7   -0.71    0.91
   3   0  -7    0.08    0.49
  -2   0   7   -0.40    0.27
  -2   0   7   -0.23    0.30
   2   0  -7    0.34    0.45
   2   0  -7   -0.65    1.04
   1   0  -7    0.08    1.02
  -1   0   7   -0.01    0.23
   1   0  -7    1.31    0.47
  -1   0   7   -0.15    0.16
   0   0   7    0.47    0.18
   0   0   7   -0.07    0.27
   0   0  -7    0.94    1.27
   0   0  -7    1.64    0.53
  -1   0  -7   -0.07    0.34
   1   0   7    0.22    0.25
   1   0   7   -0.74    0.94
   2   0   7    0.12    1.01
   2   0   7   -0.24    0.21
  -2   0  -7   -0.33    0.27
  -3   0  -7   -0.09    0.21
  -3   0  -7   -0.03    0.36
   3   0   7    0.07    1.23
   3   0   7    0.37    0.35
  -4   0  -7   -0.15    0.45
   4   0   7    0.03    1.54
   4   0   7    0.12    0.43
   5   0   7   -0.52    1.49
  -5   0  -7   -0.27    0.45
  -6   0  -7    0.07    0.53
   6   0   7   -1.01    1.65
  -7   0  -7   -0.29    0.55
  -7   1   7    2.58    0.77
   7  -1  -7    1.50    0.97
  -6   1   7   17.27    1.37
   6  -1  -7   18.73    1.64
   5  -1  -7   20.77    1.58
  -5   1   7   23.89    1.38
  -5   1   7   20.81    1.25
  -4   1   7    3.39    0.58
  -4   1   7    2.22    0.49
   4  -1  -7    3.04    0.79
  -3   1   7   35.86    1.44
   3  -1  -7   34.99    1.70
  -3   1   7   34.69    1.32
  -2   1   7  509.28   10.26
   2  -1  -7  518.41   10.44
  -2   1   7  524.69    9.99
  -1   1   7   26.39    1.16
   1  -1  -7   29.08    1.38
  -1   1   7   28.23    0.86
   0   1   7  890.98   30.99
   0  -1  -7  916.70   17.39
   0   1   7  929.53   17.31
  -1  -1  -7   20.25    1.11
   1   1   7   19.06    2.24
   1   1   7   16.87    0.90
  -2  -1  -7    9.17    0.40
   2   1   7    9.58    0.69
  -2  -1  -7    9.32    0.80
   2   1   7   12.42    1.97
   3   1   7   67.00    4.17
  -3  -1  -7   68.56    2.22
   3   1   7   68.09    2.10
   4   1   7    0.26    0.40
   4   1   7    1.21    1.65
  -4  -1  -7    1.24    0.59
   5   1   7   12.72    2.43
  -5  -1  -7   13.23    1.18
   6   1   7    2.87    2.07
  -6  -1  -7    3.41    0.83
  -7  -1  -7    0.29    0.66
  -7   2   7   -0.08    0.54
   7  -2  -7    0.11    0.70
  -6   2   7    0.57    0.55
   6  -2  -7    0.03    0.60
  -5   2   7    2.94    0.63
  -5   2   7    4.06    0.67
   5  -2  -7    3.47    0.87
   4  -2  -7    3.98    0.85
  -4   2   7    4.54    0.62
  -4   2   7    4.44    0.66
   3  -2  -7   56.57    2.23
  -3   2   7   65.28    1.93
  -3   2   7   64.47    2.06
   2  -2  -7    3.65    0.68
   2  -2  -7    5.52    1.45
  -2   2   7    3.96    0.53
  -2   2   7    4.15    0.42
  -1   2   7   43.59    1.54
  -1   2   7   43.32    1.13
   1  -2  -7   43.12    1.74
   0  -2  -7   81.77    2.48
   0   2   7   83.86    2.30
   0   2   7   85.11    4.30
   1   2   7   32.51    2.72
   1   2   7   32.63    1.28
  -1  -2  -7   34.09    1.46
  -2  -2  -7    5.81    0.68
   2   2   7    5.32    0.55
   2   2   7    6.23    1.64
   3   2   7    0.65    1.30
  -3  -2  -7    0.47    0.42
   3   2   7   -0.25    0.27
   4   2   7    5.40    2.04
  -4  -2  -7    4.26    0.80
   4   2   7    4.62    0.62
   5   2   7   -0.14    1.64
  -5  -2  -7    0.11    0.51
  -6  -2  -7    1.47    0.72
   6   2   7    1.26    1.94
  -7  -2  -7    0.47    0.71
  -7   3   7    6.37    1.03
   7  -3  -7    7.98    1.29
  -6   3   7   12.39    1.15
  -6   3   7   12.81    1.12
   6  -3  -7   15.58    1.46
  -5   3   7    0.89    0.52
  -5   3   7    1.07    0.53
   5  -3  -7    1.51    0.68
  -4   3   7   -0.25    0.41
   4  -3  -7   -0.08    0.54
  -4   3   7    0.15    0.34
  -3   3   7   57.37    1.80
   3  -3  -7   56.16    2.20
  -3   3   7   61.58    2.03
  -2   3   7    4.11    0.44
   2  -3  -7    2.76    0.67
   2  -3  -7    3.15    1.21
  -2   3   7    2.99    0.49
  -1   3   7  101.88    2.65
  -1   3   7   95.74    2.16
   1  -3  -7  101.41    2.90
  -1   3   7  101.25    4.53
   0   3   7  472.83    9.44
   0  -3  -7  476.76    9.68
   0   3   7  477.91   16.85
  -1  -3  -7    4.20    0.65
   1   3   7    2.11    1.27
   1   3   7    2.69    0.44
   2   3   7   11.48    2.20
   2   3   7   13.51    0.82
  -2  -3  -7   14.89    1.00
   3   3   7   88.40    2.44
   3   3   7   91.69    4.95
  -3  -3  -7   85.28    2.70
  -4  -3  -7   37.23    1.80
   4   3   7   37.81    3.42
   5   3   7   30.82    3.18
  -5  -3  -7   30.46    1.73
   6   3   7    5.01    2.18
  -6  -3  -7    2.85    0.87
  -7  -3  -7    0.28    0.71
   7  -4  -7    1.23    0.83
  -7   4   7    0.68    0.56
  -6   4   7    3.27    0.73
   6  -4  -7    3.22    0.91
  -6   4   7    2.66    0.68
   5  -4  -7    0.20    0.57
  -5   4   7   -0.30    0.41
  -5   4   7   -0.12    0.44
   4  -4  -7    4.17    0.87
  -4   4   7    3.72    0.58
  -4   4   7    4.72    0.73
  -3   4   7   27.67    1.32
   3  -4  -7   30.45    1.60
  -2   4   7  305.32    6.52
   2  -4  -7  293.23    6.72
   2  -4  -7  304.33    6.22
   2  -4  -7  311.33   11.06
  -1   4   7   23.88    2.17
  -1   4   7   24.94    1.13
   1  -4  -7   24.41    0.85
   1  -4  -7   25.52    1.40
   0   4   7   16.18    0.88
   0   4   7   17.57    1.96
   0  -4  -7   15.18    1.14
   1   4   7   52.33    1.67
   1   4   7   49.35    3.39
  -1  -4  -7   52.35    1.92
   2   4   7   57.71    1.81
   2   4   7   58.96    3.90
  -2  -4  -7   58.50    2.05
   3   4   7    4.11    0.53
   3   4   7    6.82    1.93
  -3  -4  -7    4.28    0.74
  -4  -4  -7   59.28    2.33
   4   4   7   60.09    4.20
   5   4   7   23.91    2.98
  -5  -4  -7   22.59    1.56
  -6  -4  -7    0.07    0.66
   6   4   7    0.24    1.83
  -7  -4  -7   -0.50    0.66
   7   4   7    0.93    1.87
  -7   5   7    4.86    0.94
   7  -5  -7    6.09    1.16
  -6   5   7    2.32    0.66
   6  -5  -7    2.56    0.87
  -6   5   7    2.36    0.70
   5  -5  -7   42.10    2.14
  -5   5   7   43.59    1.90
  -5   5   7   43.43    1.84
   4  -5  -7    1.03    0.70
  -4   5   7    0.62    0.47
   3  -5  -7    1.91    0.67
   3  -5  -7    2.69    0.52
  -3   5   7    1.67    0.49
   2  -5  -7  300.08    6.88
   2  -5  -7  316.05    6.36
  -2   5   7  312.11    6.68
  -1   5   7  114.44    2.96
   1  -5  -7  108.73    3.19
   1  -5  -7  112.74    2.53
  -1   5   7  113.30    4.93
   0   5   7   46.00    1.56
   0  -5  -7   46.03    1.10
   0   5   7   44.55    2.92
   0  -5  -7   43.34    1.83
   1   5   7  386.30    7.82
  -1  -5  -7  389.95    8.15
   1   5   7  379.51   14.19
  -2  -5  -7  213.05    5.03
   2   5   7  212.69    8.86
   2   5   7  208.98    4.66
   3   5   7   40.79    3.41
   3   5   7   39.37    1.44
  -3  -5  -7   39.98    1.84
  -4  -5  -7   19.09    1.39
   4   5   7   19.90    2.72
  -5  -5  -7    9.31    1.15
   5   5   7   14.70    2.82
   6   5   7    1.24    1.99
  -6  -5  -7    0.51    0.69
   7   5   7    2.09    1.99
  -7   6   7    0.51    0.50
   7  -6  -7    0.40    0.67
   6  -6  -7    1.32    0.75
  -6   6   7   -0.01    0.58
  -6   6   7    0.97    0.58
   5  -6  -7    2.33    0.78
  -5   6   7    1.86    0.54
  -5   6   7    2.38    0.67
   4  -6  -7    0.44    0.61
   4  -6  -7    0.11    0.51
  -4   6   7    0.07    0.49
   3  -6  -7   30.13    1.64
  -3   6   7   33.26    1.52
   3  -6  -7   31.17    1.38
   2  -6  -7    9.06    0.70
   2  -6  -7   10.20    1.07
  -2   6   7    8.41    0.80
   1  -6  -7   45.07    1.32
  -1   6   7   41.00    2.72
  -1   6   7   45.85    1.63
   1  -6  -7   43.61    1.89
   0   6   7   57.30    1.81
   0  -6  -7   56.96    2.13
   0  -6  -7   55.89    1.39
   0   6   7   56.22    3.29
  -1  -6  -7    0.12    0.48
   1   6   7    0.46    0.33
   1   6   7   -0.36    1.14
   2   6   7   13.17    2.37
  -2  -6  -7   12.68    1.11
   2   6   7   11.13    0.77
   3   6   7  112.50    5.85
  -3  -6  -7  110.07    3.31
   3   6   7  105.52    2.79
  -4  -6  -7   15.35    1.29
   4   6   7   17.59    2.77
   5   6   7    0.13    1.84
  -5  -6  -7    0.54    0.60
  -6  -6  -7    0.54    0.72
   6   6   7    1.73    1.99
  -7   7   7    3.49    0.90
   7  -7  -7    4.90    1.12
  -7   7   7    5.03    0.90
   6  -7  -7    4.69    1.03
  -6   7   7    3.34    0.68
  -6   7   7    5.40    0.92
   5  -7  -7    0.83    0.66
   5  -7  -7    0.83    0.63
  -5   7   7   -0.17    0.46
   4  -7  -7   21.18    1.32
  -4   7   7   18.14    1.24
   4  -7  -7   18.38    1.37
  -3   7   7  299.12    6.67
   3  -7  -7  294.91    6.88
   3  -7  -7  299.14    6.50
   2  -7  -7   72.26    2.11
  -2   7   7   72.42    2.34
   2  -7  -7   77.32    2.62
   1  -7  -7  304.68    6.96
  -1   7   7  304.58   11.32
   1  -7  -7  313.79    6.23
  -1   7   7  312.22    6.67
   0   7   7   60.70    1.92
   0  -7  -7   61.04    1.54
   0   7   7   57.10    3.40
   0  -7  -7   57.34    2.20
  -1  -7  -7  109.54    3.18
   1   7   7  104.39    2.77
   1   7   7  108.01    5.31
   2   7   7   40.16    1.44
  -2  -7  -7   44.90    1.85
   2   7   7   37.02    3.48
   3   7   7   52.40    4.07
  -3  -7  -7   46.61    2.08
  -4  -7  -7   13.31    1.25
   4   7   7   15.07    2.88
  -5  -7  -7   -0.23    0.58
   5   7   7    0.04    2.00
   6   7   7   10.46    2.71
  -6  -7  -7    4.51    1.05
  -6   8   7    2.71    0.80
  -6   8   7    1.49    0.57
   6  -8  -7    3.42    0.90
   5  -8  -7   25.73    1.66
   5  -8  -7   23.95    1.65
  -5   8   7   25.82    1.52
   4  -8  -7    0.95    0.57
   4  -8  -7    1.07    0.61
  -4   8   7    0.24    0.53
   3  -8  -7   58.22    2.06
   3  -8  -7   57.43    2.33
  -3   8   7   59.26    2.21
   2  -8  -7   41.89    1.95
   2  -8  -7   43.09    1.54
  -2   8   7   43.25    1.71
   1  -8  -7   42.07    1.36
  -1   8   7   41.52    2.68
   1  -8  -7   34.19    1.79
  -1   8   7   39.41    1.59
   0  -8  -7    6.14    0.92
   0  -8  -7    6.25    0.56
   0   8   7    6.82    0.69
   0   8   7    8.76    1.69
   1   8   7   11.21    2.08
   1   8   7    7.52    0.74
  -1  -8  -7    8.15    0.99
  -2  -8  -7   14.32    1.19
   2   8   7   12.05    0.81
   2   8   7   17.01    2.69
  -3  -8  -7   12.98    1.19
   3   8   7   15.50    2.91
   4   8   7    7.26    2.54
  -4  -8  -7    5.63    0.91
  -5  -8  -7    3.99    0.93
   5   8   7    5.01    2.49
   6   8   7    2.34    2.21
  -6  -8  -7    0.70    0.73
   6  -9  -7    2.63    0.94
  -6   9   7    2.67    0.81
   6  -9  -7    3.70    0.89
  -5   9   7   10.19    1.10
   5  -9  -7    8.76    1.11
   5  -9  -7   10.77    1.22
   4  -9  -7    5.75    0.92
   4  -9  -7    6.48    0.86
  -4   9   7    5.17    0.78
   3  -9  -7   13.39    1.22
   3  -9  -7   12.78    1.04
  -3   9   7   10.25    1.04
  -2   9   7   64.68    2.21
   2  -9  -7   63.63    2.46
   2  -9  -7   63.23    2.02
  -1   9   7   47.53    1.81
   1  -9  -7   50.89    1.64
   1  -9  -7   54.99    2.24
  -1   9   7   52.35    3.08
   0   9   7   10.73    1.90
   0   9   7    9.23    0.79
   0  -9  -7    8.48    0.66
   0  -9  -7    6.64    0.99
   1   9   7  205.14    9.00
  -1  -9  -7  224.47    5.41
   1   9   7  225.06    4.93
  -2  -9  -7   56.74    2.29
   2   9   7   57.56    1.83
   2   9   7   60.57    4.14
   3   9   7    4.92    2.49
  -3  -9  -7    3.68    0.82
  -4  -9  -7   56.82    2.52
   4   9   7   65.60    4.81
  -5  -9  -7    1.03    0.65
   5   9   7    0.65    2.23
  -6  -9  -7    0.52    0.77
   6   9   7    0.51    2.02
  -6  10   7   -0.57    0.55
   6 -10  -7   -0.37    0.48
   6 -10  -7   -0.60    0.69
   5 -10  -7    0.86    0.66
   5 -10  -7    0.64    0.62
  -5  10   7    1.59    0.68
   4 -10  -7    3.23    0.78
   4 -10  -7    3.58    0.74
  -4  10   7    3.40    0.73
  -3  10   7    2.66    0.61
   3 -10  -7    2.96    0.64
   3 -10  -7    2.87    0.77
   2 -10  -7   27.35    1.67
   2 -10  -7   29.21    1.36
  -2  10   7   25.81    1.39
   1 -10  -7    8.39    1.13
   1 -10  -7    8.50    0.77
  -1  10   7   11.48    1.82
  -1  10   7    7.26    0.76
   0 -10  -7   52.23    2.24
   0  10   7   48.34    1.82
   0  10   7   53.98    3.44
   1  10   7   17.50    1.01
  -1 -10  -7   16.87    1.36
   1  10   7   18.08    2.55
  -2 -10  -7    5.52    0.92
   2  10   7    7.99    2.34
   3  10   7    8.60    2.80
  -3 -10  -7    8.66    1.08
  -4 -10  -7   10.13    1.21
   4  10   7   18.31    3.38
   5  10   7   -0.58    1.94
  -5 -10  -7    0.25    0.57
   6  10   7   -0.14    2.14
  -6 -10  -7    0.88    0.66
   6 -11  -7    5.28    1.08
  -6  11   7    3.61    0.91
   6 -11  -7    3.38    0.86
  -5  11   7    0.68    0.59
   5 -11  -7    0.89    0.64
   5 -11  -7    0.94    0.71
  -4  11   7    0.48    0.54
   4 -11  -7    0.89    0.63
   4 -11  -7    0.40    0.55
   3 -11  -7   13.50    1.11
  -3  11   7   13.08    1.06
   3 -11  -7   14.29    1.22
  -2  11   7   37.86    1.72
   2 -11  -7   33.35    1.85
   2 -11  -7   38.11    1.58
   1 -11  -7   13.56    1.32
   1 -11  -7   11.97    0.95
  -1  11   7   15.87    1.04
   0  11   7   13.93    2.26
   0 -11  -7   13.32    1.36
   0  11   7   14.07    1.00
   1  11   7    0.49    0.40
  -1 -11  -7   -0.12    0.59
   1  11   7    0.17    1.55
   2  11   7    2.01    2.05
  -2 -11  -7    2.02    0.76
   3  11   7   18.51    3.35
  -3 -11  -7   22.40    1.53
  -4 -11  -7   34.61    2.00
   4  11   7   36.98    3.95
  -5 -11  -7    1.77    0.76
   5  11   7    2.51    2.58
   6  11   7    0.24    2.41
  -6 -11  -7    0.85    0.70
  -6  12   7    0.17    0.68
   6 -12  -7    1.05    0.64
   5 -12  -7    4.06    0.92
   5 -12  -7    3.20    0.84
  -5  12   7    3.57    0.85
   4 -12  -7    0.38    0.59
  -4  12   7    0.14    0.53
   4 -12  -7    0.43    0.58
   3 -12  -7   15.63    1.19
   3 -12  -7   15.73    1.29
  -3  12   7   13.89    1.10
   2 -12  -7    2.87    0.63
  -2  12   7    2.69    0.60
   2 -12  -7    4.49    0.91
  -1  12   7   34.19    1.60
   1 -12  -7   33.19    1.89
   1 -12  -7   33.84    1.48
   0 -12  -7    1.23    0.78
   0  12   7    1.74    1.67
   0  12   7    0.61    0.43
   1  12   7    0.29    1.72
  -1 -12  -7    0.20    0.63
   1  12   7    0.85    0.42
  -2 -12  -7   18.88    1.45
   2  12   7   19.86    3.15
   3  12   7    3.84    2.76
  -3 -12  -7    3.52    0.88
  -4 -12  -7    0.47    0.63
   4  12   7   -0.09    2.63
   5  12   7   -0.96    2.14
  -5 -12  -7   -0.49    0.50
   5 -13  -7    0.94    0.62
  -5  13   7   -0.01    0.65
   5 -13  -7    0.76    0.72
   4 -13  -7    2.16    0.74
  -4  13   7    2.38    0.69
   4 -13  -7    4.21    0.83
  -3  13   7    0.42    0.48
   3 -13  -7   -0.03    0.54
   3 -13  -7    0.11    0.54
  -2  13   7   11.37    1.04
   2 -13  -7   11.36    1.25
   2 -13  -7   10.98    1.00
   1 -13  -7  100.94    3.41
  -1  13   7  102.42    3.09
   0  13   7   14.66    2.65
   0 -13  -7   13.40    1.38
   0  13   7   11.72    0.98
   1  13   7   12.09    2.64
  -1 -13  -7    8.50    1.13
   1  13   7    9.64    0.88
  -2 -13  -7   11.98    1.26
   2  13   7   20.28    3.38
   3  13   7    1.15    2.49
  -3 -13  -7   -0.64    0.54
   4  13   7    0.38    2.79
  -4 -13  -7    1.37    0.73
  -5 -13  -7    2.63    0.89
   5  13   7    5.80    2.77
   5 -14  -7    1.73    0.82
   5 -14  -7    1.25    0.67
  -5  14   7    1.73    0.81
  -4  14   7    7.42    1.03
   4 -14  -7    8.05    1.06
   4 -14  -7    6.39    1.03
   3 -14  -7    1.16    0.65
  -3  14   7    0.36    0.49
   3 -14  -7    1.15    0.64
  -2  14   7    5.34    0.79
   2 -14  -7    6.16    0.85
   2 -14  -7    5.39    0.98
  -1  14   7   18.00    1.25
   1 -14  -7   21.91    1.63
   0  14   7   41.04    3.65
   0  14   7   33.78    1.62
   0 -14  -7   35.61    2.03
  -1 -14  -7   12.74    1.34
   1  14   7   20.23    3.16
   2  14   7    1.09    2.25
  -2 -14  -7   -0.34    0.66
   3  14   7   -1.22    2.49
  -3 -14  -7   -0.28    0.61
   4  14   7   -0.51    2.89
  -4 -14  -7   -0.47    0.55
  -5 -14  -7    0.46    0.67
   5  14   7    3.33    2.70
   4 -15  -7   -0.38    0.63
  -4  15   7    0.02    0.47
   4 -15  -7    0.18    0.56
   3 -15  -7   11.96    1.20
  -3  15   7   11.42    1.13
   3 -15  -7   13.43    1.27
   2 -15  -7    1.25    0.71
  -2  15   7    0.12    0.50
   1 -15  -7   24.18    1.72
  -1  15   7   22.84    1.41
   0 -15  -7    1.43    0.83
   0  15   7    3.62    2.04
   0  15   7    1.33    0.58
   1  15   7    2.09    2.16
  -1 -15  -7   -0.28    0.64
   2  15   7    0.86    2.36
  -2 -15  -7   -0.13    0.72
  -3 -15  -7    3.32    0.96
   3  15   7    4.69    2.96
   4  15   7   -0.37    3.00
  -4 -15  -7    1.06    0.78
  -4  16   7    5.00    0.91
   4 -16  -7    5.35    1.11
  -3  16   7    9.44    1.10
   3 -16  -7   11.69    1.26
   2 -16  -7   -0.31    0.59
  -2  16   7    0.82    0.51
   1 -16  -7    4.20    1.02
  -1  16   7    6.05    0.87
   0  16   7    9.92    1.05
   0 -16  -7    9.98    1.33
  -1 -16  -7   12.19    1.46
   1  16   7   18.58    3.38
   2  16   7    3.95    2.75
  -2 -16  -7    3.47    1.00
  -3 -16  -7    0.56    0.77
   3  16   7    2.83    2.99
   4  16   7   -0.50    3.07
  -4 -16  -7   -0.19    0.58
  -4  17   7    1.47    0.70
  -3  17   7    0.20    0.48
  -2  17   7   -0.54    0.48
   1 -17  -7    1.86    0.90
  -1  17   7    2.16    0.67
   0 -17  -7   29.07    2.02
  -1 -17  -7   14.27    1.56
   1  17   7   21.11    3.67
   2  17   7    0.83    2.63
  -2 -17  -7   -0.22    0.74
   3  17   7    4.84    3.16
  -3 -17  -7    3.72    1.02
  -3  18   7    1.66    0.64
  -2  18   7    3.46    0.77
  -1  18   7   -0.02    0.51
   1  18   7   14.24    3.40
  -1 -18  -7    6.63    1.25
   2  18   7    5.58    3.16
  -2 -18  -7    4.09    1.08
   3  18   7    1.29    3.21
  -3 -18  -7    0.45    0.71
  -2  19   7    7.09    0.99
  -1  19   7   -0.07    0.46
   2  19   7    6.77    3.35
  -1 -19   8    3.34    1.02
   0  19  -8   -0.41    3.77
   0 -19   8    0.29    0.74
   1 -19   8    0.73    0.75
  -1  19  -8    0.41    0.54
  -2 -18   8    0.11    0.76
   2  18  -8    0.60    2.09
   1  18  -8    0.48    2.82
  -1 -18   8    1.06    0.82
   0 -18   8    1.01    0.80
   0  18  -8   -0.94    3.15
   1 -18   8    3.50    0.97
   1 -18   8    3.43    0.94
  -1  18  -8    5.86    3.76
   2 -18   8    0.52    0.73
  -2  18  -8   -1.19    2.22
  -3 -17   8   -0.95    0.77
   3  17  -8   -0.18    1.87
  -2 -17   8    0.55    0.83
   2  17  -8   -0.57    1.71
   1  17  -8    3.71    3.19
  -1 -17   8    1.96    0.88
   0 -17   8    0.97    0.73
   0 -17   8    0.01    0.61
   0  17  -8    0.48    3.11
  -1  17  -8    1.03    3.41
   1 -17   8    7.68    1.13
   1 -17   8    6.55    1.08
   2 -17   8    4.41    0.97
   2 -17   8    3.88    1.00
  -2  17  -8   -0.03    3.06
  -3  17  -8    2.07    0.71
   3 -17   8    2.92    0.84
   4  16  -8   -0.85    1.81
  -4 -16   8    0.42    0.87
  -3 -16   8   10.79    1.43
   3  16  -8   14.44    3.28
   2  16  -8    1.23    1.93
  -2 -16   8    0.30    0.83
  -1 -16   8    0.27    0.73
   1  16  -8   -1.61    2.55
   0 -16   8    0.35    0.71
   0 -16   8   -0.36    0.54
   0  16  -8    0.79    4.11
   1 -16   8    6.92    1.11
   1 -16   8    8.49    1.13
  -1  16  -8   -0.64    3.56
   2 -16   8    2.40    0.91
  -2  16  -8    0.26    2.49
   2 -16   8    2.62    0.86
   3 -16   8    1.07    0.67
  -3  16  -8   -0.60    2.62
   3 -16   8    1.27    0.86
  -4 -15   8   -0.37    0.76
   4  15  -8    1.26    2.17
   3  15  -8    7.00    2.57
  -3 -15   8    5.74    1.15
   2  15  -8   -0.47    2.25
  -2 -15   8    0.30    0.79
  -1 -15   8    3.37    0.91
   1  15  -8    4.29    3.38
   0 -15   8    1.03    0.71
   0 -15   8    0.15    0.53
   0  15  -8    1.22    3.87
   1 -15   8   18.96    1.51
   1 -15   8   17.66    1.41
  -2  15  -8   -0.31    2.66
   2 -15   8    3.11    0.84
   2 -15   8    3.09    0.90
  -3  15  -8    0.17    2.86
   3 -15   8    1.07    0.65
   3 -15   8    0.57    0.77
  -4  15  -8   -0.44    0.45
   4 -15   8    0.40    0.61
   5  14  -8    6.73    2.44
  -5 -14   8    6.91    1.33
   4  14  -8    4.66    2.25
  -4 -14   8    2.56    0.96
   3  14  -8    7.44    2.50
  -3 -14   8    7.77    1.22
   2  14  -8   -0.77    1.97
  -2 -14   8    0.30    0.77
   1  14  -8   16.07    5.07
  -1 -14   8   17.12    1.27
  -1 -14   8   17.18    1.52
   0  14  -8    0.58    4.46
   0 -14   8    9.15    1.03
   0 -14   8    7.80    1.12
  -1  14  -8    4.03    4.71
   1 -14   8   14.17    1.30
   1 -14   8   15.07    1.35
  -2  14  -8   -1.58    3.31
   2 -14   8    0.20    0.56
   2 -14   8    0.28    0.61
  -3  14  -8    0.29    3.27
   3 -14   8    3.36    0.94
   3 -14   8    4.59    0.90
   4 -14   8    1.28    0.69
   4 -14   8    1.00    0.69
  -5 -13   8    0.68    0.84
   5  13  -8    1.27    1.82
  -4 -13   8   14.59    1.54
   4  13  -8   17.07    3.08
  -3 -13   8   -0.29    0.73
   3  13  -8   -0.42    1.80
   2  13  -8   20.85    4.20
  -2 -13   8   13.94    1.36
  -1 -13   8   28.25    1.55
  -1 -13   8   30.19    1.79
   0 -13   8  165.44    4.51
   0 -13   8  171.18    4.67
   1 -13   8   -0.72    0.53
  -1  13  -8    0.36    4.53
   1 -13   8    0.56    0.60
   2 -13   8   17.12    1.34
   2 -13   8   15.72    1.37
   3 -13   8    3.61    0.90
  -3  13  -8   -2.75    4.09
   3 -13   8    3.30    0.83
   4 -13   8    1.83    0.66
   4 -13   8    0.51    0.63
   5 -13   8    2.11    0.70
  -5  13  -8    0.16    0.76
   5  12  -8    1.61    1.64
  -5 -12   8    0.72    0.78
   4  12  -8   10.66    2.99
  -4 -12   8    9.61    1.26
  -3 -12   8    1.82    0.85
   3  12  -8    1.81    1.93
   2  12  -8   14.52    3.40
  -2 -12   8   21.28    1.60
  -1 -12   8   35.46    1.88
  -1 -12   8   32.11    1.66
   0 -12   8   21.91    1.48
   0 -12   8   23.63    1.46
   1 -12   8   10.85    1.09
   1 -12   8   11.56    1.12
   2 -12   8   42.69    2.02
   2 -12   8   43.00    2.05
   3 -12   8    1.48    0.72
   3 -12   8    1.95    0.77
  -3  12  -8   -1.70    4.33
  -4  12  -8   -2.48    4.68
   4 -12   8    2.09    0.72
   4 -12   8    2.64    0.76
   5 -12   8    0.30    0.56
  -6 -11   8    0.75    0.88
   5  11  -8    5.57    2.04
  -5 -11   8    9.97    1.34
   4  11  -8   -0.38    1.35
  -4 -11   8   -0.06    0.66
   3  11  -8    0.27    1.51
  -3 -11   8   -0.21    0.58
   2  11  -8   -1.37    2.83
  -2 -11   8    0.94    0.62
  -2 -11   8    0.90    0.52
  -1 -11   8    4.99    0.97
  -1 -11   8    5.36    0.79
   1  11  -8   -1.41    3.42
   0 -11   8   -0.61    0.59
   0  11  -8   -1.31    4.21
   0 -11   8    0.03    0.51
   1 -11   8    2.75    0.70
   1 -11   8    3.00    0.76
  -1  11  -8   -3.21    4.32
   2 -11   8    0.46    0.55
   2 -11   8    1.86    0.65
  -2  11  -8    1.55    4.15
   3 -11   8   -0.03    0.41
   3 -11   8    0.48    0.58
  -3  11  -8   -0.66    4.35
  -4  11  -8    1.02    4.13
   4 -11   8    1.43    0.66
   4 -11   8    1.03    0.64
   5 -11   8    1.51    0.66
  -6 -10   8    0.12    0.72
   5  10  -8    8.01    2.30
  -5 -10   8   10.16    1.26
  -4 -10   8   12.71    1.32
   4  10  -8   15.27    2.65
   3  10  -8   39.97    4.03
  -3 -10   8   35.97    1.92
  -1 -10   8    0.94    0.68
   1  10  -8   -4.05    3.57
  -1 -10   8    1.49    0.55
  -1  10  -8   -2.50    4.11
   1 -10   8    0.78    0.59
   1 -10   8    0.95    0.61
   2 -10   8    0.28    0.52
   2 -10   8   -0.68    0.45
  -2  10  -8   -1.18    4.56
   3 -10   8    5.57    0.85
  -3  10  -8    1.11    4.20
   3 -10   8    7.33    0.91
   4 -10   8   15.12    1.29
  -4  10  -8    3.42    5.29
   4 -10   8   13.69    1.24
   5 -10   8    2.11    0.72
  -6  -9   8    1.36    0.83
   6   9  -8    0.09    0.85
   5   9  -8    4.09    1.00
  -5  -9   8    3.94    0.91
   4   9  -8    2.70    1.86
   4   9  -8    5.43    0.88
  -4  -9   8    4.35    0.86
   3   9  -8   -0.14    1.58
  -3  -9   8   -0.35    0.56
  -2  -9   8   74.14    2.63
  -2  -9   8   74.96    2.40
   1   9  -8    1.28    4.22
  -1  -9   8    0.64    0.59
  -1  -9   8    0.23    0.43
   0  -9   8  106.82    3.13
   0  -9   8  106.52    3.12
   1  -9   8   12.64    1.09
   1  -9   8   11.08    1.00
  -2   9  -8   -2.37    5.08
   2  -9   8    0.99    0.57
   2  -9   8    0.22    0.51
   3  -9   8    6.39    0.87
  -3   9  -8   -1.14    4.59
   3  -9   8    8.18    0.89
   4  -9   8    0.84    0.58
  -4   9  -8   -0.59    3.72
   4  -9   8    0.49    0.59
   5  -9   8    1.13    0.66
  -5   9  -8   -2.10    3.97
  -6   9  -8    0.31    0.71
   6   8  -8   -0.07    0.78
  -6  -8   8   -0.11    0.62
  -5  -8   8   -0.58    0.53
   5   8  -8   -0.16    0.62
   4   8  -8   32.73    3.38
   4   8  -8   37.08    1.84
  -4  -8   8   37.35    1.90
   3   8  -8   -0.45    0.41
   3   8  -8    0.33    1.52
  -3  -8   8    0.13    0.36
  -3  -8   8   -0.27    0.53
  -2  -8   8  150.90    3.74
  -2  -8   8  138.74    3.88
  -1  -8   8   25.39    1.32
  -1  -8   8   25.16    1.44
   0  -8   8    2.26    0.63
   0   8  -8    6.38    4.19
   0  -8   8    1.53    0.55
   1  -8   8   18.87    1.18
   1  -8   8   19.69    1.26
   2  -8   8  129.42    3.43
   2  -8   8  125.89    3.69
   3  -8   8    4.75    0.78
  -3   8  -8   -5.37    3.71
   4  -8   8   33.16    1.76
   4  -8   8   36.20    1.78
  -5   8  -8   -0.86    2.66
   5  -8   8    9.54    1.10
  -6  -7   8    4.45    0.99
   6   7  -8    4.61    1.10
   5   7  -8    3.82    0.93
  -5  -7   8    3.09    0.84
   4   7  -8    0.05    1.22
   4   7  -8    1.80    0.68
  -4  -7   8    0.91    0.63
   3   7  -8   14.37    1.11
  -3  -7   8   13.94    1.16
  -3  -7   8   14.45    1.01
   3   7  -8    9.10    2.48
   2   7  -8   -0.25    0.38
  -2  -7   8   -0.27    0.47
  -2  -7   8   -0.18    0.37
   2   7  -8    1.39    2.33
   1   7  -8   94.86    2.45
  -1  -7   8   94.71    2.77
  -1  -7   8   93.76    2.71
   0  -7   8    0.99    0.51
   0  -7   8    0.71    0.44
   0   7  -8    1.20    3.75
   1  -7   8    0.27    0.43
   1  -7   8    0.67    0.46
  -1   7  -8   -2.69    4.33
   2  -7   8   -0.02    0.44
  -2   7  -8    0.57    4.17
   2  -7   8   -0.35    0.37
  -4   7  -8   -0.01    3.49
  -5   7  -8    0.67    2.26
   5  -7   8    1.00    0.61
   6  -7   8    1.37    0.60
   6   6  -8    0.09    0.74
  -6  -6   8    0.17    0.62
  -5  -6   8   13.25    1.27
   5   6  -8   16.58    1.43
  -4  -6   8    0.19    0.51
   4   6  -8    0.30    0.56
   4   6  -8   -0.21    1.43
  -3  -6   8   89.66    2.60
  -3  -6   8   87.08    2.75
   3   6  -8   87.62    2.76
   2   6  -8   62.35    2.05
  -2  -6   8   66.96    2.14
  -2  -6   8   62.17    2.15
  -1  -6   8    0.18    0.42
   1   6  -8   -0.56    2.74
   1   6  -8    0.40    0.42
  -1  -6   8    0.56    0.40
   0   6  -8   18.69    0.99
   0  -6   8   21.11    1.18
   0  -6   8   19.02    1.06
   1  -6   8   58.09    2.10
   1  -6   8   58.83    1.88
   2  -6   8   20.42    1.07
   2  -6   8   19.04    1.21
   3  -6   8   61.51    2.07
   3  -6   8   58.03    2.23
  -4   6  -8   -1.41    3.03
   5  -6   8   -0.04    0.44
  -5   6  -8   -1.21    2.12
   6  -6   8    1.82    0.66
   7   5  -8    1.11    1.01
  -7  -5   8    1.93    0.87
  -6  -5   8   -0.08    0.61
   6   5  -8    0.12    0.76
  -5  -5   8    2.90    0.74
   5   5  -8    2.50    0.84
   4   5  -8    0.23    1.21
  -4  -5   8   -0.16    0.49
   4   5  -8    0.57    0.60
  -3  -5   8    4.99    0.74
   3   5  -8    6.73    0.86
  -3  -5   8    6.07    0.73
  -2  -5   8    2.72    0.53
   2   5  -8    2.95    0.60
  -2  -5   8    3.42    0.54
   2   5  -8    0.68    1.76
   1   5  -8  139.01    3.36
  -1  -5   8  143.17    3.45
  -1  -5   8  137.73    3.54
   0  -5   8  150.76    3.54
   0   5  -8  150.41    3.54
   0  -5   8  157.40    3.86
  -1   5  -8   98.75    2.63
   1  -5   8   99.29    2.91
   1  -5   8  100.29    2.56
  -2   5  -8   51.04    1.72
   2  -5   8   49.54    1.91
   2  -5   8   52.15    1.69
  -4   5  -8   -3.56    3.48
  -5   5  -8   -1.08    2.30
   5  -5   8    1.97    0.62
   6  -5   8    1.03    0.56
   7   4  -8    1.92    1.07
  -7  -4   8    1.35    0.76
  -6  -4   8    0.25    0.58
   6   4  -8    1.77    0.88
   5   4  -8    2.11    0.79
  -5  -4   8    1.09    0.65
   4   4  -8  116.37    3.56
  -4  -4   8  120.06    3.21
  -4  -4   8  109.53    3.31
  -3  -4   8  266.16    5.80
  -3  -4   8  252.77    5.85
   3   4  -8  264.35    6.04
   2   4  -8    6.59    0.78
  -2  -4   8    4.90    0.61
  -2  -4   8    5.18    0.64
  -1  -4   8   47.54    1.72
  -1  -4   8   50.19    1.62
   1   4  -8   48.40    1.69
   0   4  -8   -1.15    3.03
   0  -4   8    3.81    0.51
   0  -4   8    3.14    0.53
   0   4  -8    2.81    0.58
  -1   4  -8    0.53    0.44
   1  -4   8    0.07    0.36
  -1   4  -8   -2.12    2.77
   1  -4   8   -0.17    0.33
   2  -4   8   25.09    1.34
   2  -4   8   27.76    1.11
  -2   4  -8   25.49    1.25
   3  -4   8  107.85    3.22
  -3   4  -8  110.47    2.94
  -4   4  -8   -1.39    3.10
  -4   4  -8    5.28    0.74
   4  -4   8    6.09    0.80
  -5   4  -8    0.16    0.79
   5  -4   8    1.01    0.50
  -7  -3   8    0.80    0.72
   7   3  -8    1.27    1.00
   6   3  -8   20.22    1.73
  -6  -3   8   23.99    1.70
   5   3  -8   12.04    1.35
  -5  -3   8   13.20    1.23
  -4  -3   8   22.47    1.25
  -4  -3   8   21.79    1.32
   4   3  -8   20.33    1.49
  -3  -3   8   21.78    1.18
  -3  -3   8   20.26    1.15
   3   3  -8   22.79    1.36
   2   3  -8  134.29    3.48
  -2  -3   8  134.12    3.27
  -2  -3   8  132.46    3.40
  -1  -3   8  137.73    3.44
   1   3  -8  136.46    3.41
  -1  -3   8  136.65    3.17
   0  -3   8  153.77    3.84
   0   3  -8  156.00    3.75
   0  -3   8  158.44    3.41
   1  -3   8  219.89    5.18
   1  -3   8  236.78    4.70
  -1   3  -8  227.86    5.04
  -3   3  -8   18.51    1.14
   3  -3   8   20.44    1.25
  -4   3  -8    4.13    0.72
   4  -3   8    4.24    2.05
   4  -3   8    3.07    0.63
   5  -3   8   -1.06    1.66
   5  -3   8    0.35    0.41
  -5   3  -8    0.08    0.53
   6  -3   8    2.18    2.14
  -7  -2   8    6.60    1.13
   7   2  -8    7.77    1.45
  -6  -2   8    0.90    0.63
   6   2  -8    1.78    0.89
  -5  -2   8   13.57    1.17
   5   2  -8   14.72    1.40
  -4  -2   8   87.66    2.70
   4   2  -8   94.55    3.13
  -4  -2   8   96.19    2.87
  -3  -2   8    7.60    0.74
  -3  -2   8    6.27    0.70
   3   2  -8    6.15    0.87
   2   2  -8  135.87    3.60
  -2  -2   8  144.85    3.53
  -2  -2   8  138.75    3.31
   1   2  -8   25.71    1.27
  -1  -2   8   24.02    1.16
  -1  -2   8   24.43    0.98
   0  -2   8    1.23    0.30
   0   2  -8    1.11    0.54
   0  -2   8    1.17    0.42
   0   2  -8   -3.90    2.14
   1  -2   8   83.61    2.47
   1  -2   8   85.59    1.95
  -1   2  -8   83.36    2.46
  -2   2  -8  168.04    3.95
   2  -2   8  154.97    7.47
   2  -2   8  170.85    4.12
  -3   2  -8    7.47    0.82
   3  -2   8    5.88    2.26
   3  -2   8    5.98    0.74
   4  -2   8   35.79    1.64
  -4   2  -8   32.37    1.60
   4  -2   8   38.14    3.45
  -5   2  -8   10.57    1.10
   5  -2   8   11.96    2.63
   5  -2   8   10.23    0.93
   6  -2   8    5.47    2.24
  -6   2  -8    4.48    0.91
  -7  -1   8    1.54    0.71
   7   1  -8   -0.03    0.88
   6   1  -8   12.69    1.50
  -6  -1   8   13.67    1.31
  -5  -1   8    1.73    0.60
   5   1  -8    2.98    0.87
  -5  -1   8    2.79    0.68
  -4  -1   8   -0.12    0.32
   4   1  -8    0.34    0.60
  -4  -1   8   -0.21    0.41
  -3  -1   8  111.81    3.00
  -3  -1   8  104.68    2.87
   3   1  -8  106.11    3.21
  -2  -1   8    0.98    0.39
   2   1  -8   -0.08    1.05
   2   1  -8    0.76    0.51
  -2  -1   8    1.15    0.34
   1   1  -8   38.57    1.63
  -1  -1   8   38.91    1.49
  -1  -1   8   41.45    1.22
   0  -1   8  135.04    2.70
   0   1  -8  127.16    3.35
   0  -1   8  120.90    3.23
   1  -1   8  502.24   10.11
  -1   1  -8  497.00    9.99
   2  -1   8    6.74    0.71
  -2   1  -8    8.22    0.80
   2  -1   8   12.04    2.15
   3  -1   8   27.73    3.57
   3  -1   8   29.14    1.47
  -3   1  -8   34.43    1.54
  -4   1  -8   10.36    1.04
   4  -1   8    9.86    0.92
   4  -1   8   13.36    2.62
  -5   1  -8    2.99    0.74
   5  -1   8    3.06    2.09
   5  -1   8    3.66    0.63
  -6   1  -8    2.79    0.81
   6  -1   8    3.61    2.23
   7   0  -8    3.27    1.17
  -7   0   8    4.96    0.99
   6   0  -8    3.33    1.03
  -6   0   8    3.76    0.84
   5   0  -8   -0.08    0.62
  -5   0   8    0.33    0.48
  -5   0   8    0.38    0.47
  -4   0   8    9.88    0.90
  -4   0   8   10.25    0.86
   4   0  -8   10.52    1.16
  -3   0   8  519.56   10.33
  -3   0   8  511.56   10.49
   3   0  -8  520.94   10.75
   2   0  -8   16.18    1.19
  -2   0   8   15.13    0.98
  -2   0   8   14.54    0.77
  -1   0   8   46.16    1.64
  -1   0   8   46.15    1.27
   1   0  -8   44.13    1.77
   0   0   8  455.65    9.20
   0   0  -8  452.10    9.27
   1   0   8  468.52    9.36
  -1   0  -8  457.12    9.33
   1   0   8  452.07   16.78
   2   0   8  102.27    2.81
   2   0   8   98.76    5.31
  -2   0  -8  101.56    2.82
   3   0   8  483.70    9.98
   3   0   8  484.31   18.01
  -3   0  -8  490.87    9.97
   4   0   8   45.69    1.82
  -4   0  -8   46.80    1.95
   4   0   8   44.67    3.67
   5   0   8   -1.65    1.55
  -5   0  -8    0.22    0.54
  -6   0  -8    0.48    0.61
   6   0   8   -1.06    1.78
   7  -1  -8    0.16    0.88
  -7   1   8    0.56    0.58
   6  -1  -8   14.46    1.60
  -6   1   8   15.89    1.33
   5  -1  -8    1.24    0.76
  -5   1   8    1.38    0.58
  -5   1   8    1.98    0.63
  -4   1   8   -0.58    0.39
   4  -1  -8    0.04    0.61
  -4   1   8   -0.47    0.30
  -3   1   8  106.44    2.74
  -3   1   8   96.33    2.86
   3  -1  -8  104.74    3.20
  -2   1   8    0.65    0.29
   2  -1  -8    1.76    0.62
  -2   1   8    0.62    0.38
   2  -1  -8   -0.08    1.29
  -1   1   8   38.99    1.08
  -1   1   8   35.45    1.42
   1  -1  -8   38.28    1.66
   0   1   8  122.47    5.71
   0   1   8  124.97    3.16
   0  -1  -8  122.59    3.34
  -1  -1  -8  487.58    9.92
   1   1   8  489.93    9.85
   1   1   8  489.02   17.76
  -2  -1  -8    8.62    0.89
   2   1   8    7.45    0.76
   2   1   8    9.17    1.94
  -3  -1  -8   31.26    1.58
   3   1   8   36.42    3.30
   3   1   8   29.09    1.42
   4   1   8    8.97    0.84
  -4  -1  -8    9.51    1.02
   4   1   8   12.88    2.57
  -5  -1  -8    2.84    0.77
   5   1   8    2.39    2.01
   6   1   8    3.05    2.20
  -6  -1  -8    3.07    0.88
   7  -2  -8    5.43    1.17
  -7   2   8    6.69    1.06
   6  -2  -8    2.57    0.96
  -6   2   8    1.25    0.64
  -5   2   8   13.43    1.10
   5  -2  -8   15.96    1.43
  -5   2   8   13.88    1.10
  -4   2   8   85.06    2.70
   4  -2  -8   87.89    3.07
  -4   2   8   88.67    2.64
  -3   2   8    7.57    0.66
  -3   2   8    8.22    0.79
   3  -2  -8    7.86    1.00
   2  -2  -8  134.66    3.71
  -2   2   8  134.53    3.09
   2  -2  -8  139.76    6.39
  -2   2   8  136.74    3.49
   1  -2  -8   24.18    1.40
  -1   2   8   24.22    1.15
  -1   2   8   24.73    0.80
   0   2   8    1.25    1.16
   0  -2  -8    2.26    0.65
   0   2   8    1.31    0.41
  -1  -2  -8   82.57    2.58
   1   2   8   80.51    2.39
   1   2   8   84.36    4.58
   2   2   8  138.14    6.93
  -2  -2  -8  161.64    3.97
   2   2   8  165.88    3.86
   3   2   8   10.54    2.34
   3   2   8    5.90    0.69
  -3  -2  -8    6.31    0.87
  -4  -2  -8   36.09    1.77
   4   2   8   35.04    3.34
   4   2   8   33.42    1.50
  -5  -2  -8   10.03    1.16
   5   2   8   13.87    2.78
   6   2   8    5.32    2.42
  -6  -2  -8    4.39    0.98
  -7   3   8    0.36    0.53
   7  -3  -8    1.33    0.82
  -6   3   8   22.00    1.47
   6  -3  -8   20.69    1.68
  -6   3   8   21.78    1.46
  -5   3   8   12.34    1.08
  -5   3   8    9.85    0.94
   5  -3  -8   10.12    1.24
   4  -3  -8   21.57    1.56
  -4   3   8   18.56    1.13
  -4   3   8   20.24    1.26
  -3   3   8   17.50    1.13
   3  -3  -8   21.10    1.45
  -3   3   8   19.45    1.02
   2  -3  -8  136.36    6.01
  -2   3   8  124.94    2.97
  -2   3   8  129.89    3.42
   2  -3  -8  134.70    3.73
  -1   3   8  127.62    2.70
  -1   3   8  126.25    3.29
   1  -3  -8  129.52    3.58
  -1   3   8  131.88    5.72
   0   3   8  142.96    3.55
   0   3   8  146.46    6.35
   0  -3  -8  148.16    3.87
   1   3   8  209.91    4.83
   1   3   8  218.44    8.84
  -1  -3  -8  217.58    5.11
   2   3   8   37.43    3.18
  -2  -3  -8   36.88    1.65
   2   3   8   35.81    1.44
  -3  -3  -8   17.97    1.29
   3   3   8   18.51    1.08
   3   3   8   19.92    2.78
  -4  -3  -8    2.77    0.75
   4   3   8    4.90    2.04
  -5  -3  -8   -0.39    0.52
   5   3   8    0.02    1.78
  -6  -3  -8    1.46    0.79
   6   3   8    2.60    2.11
  -7   4   8    0.56    0.53
   7  -4  -8    1.53    0.86
  -6   4   8    0.57    0.52
  -6   4   8    0.69    0.61
   6  -4  -8    1.33    0.75
   5  -4  -8    2.77    0.83
  -5   4   8    2.06    0.60
  -5   4   8    2.47    0.61
  -4   4   8  110.74    3.26
   4  -4  -8  112.91    3.58
  -4   4   8  107.63    3.06
  -3   4   8  239.95    5.20
   3  -4  -8  233.91    5.78
  -3   4   8  239.11    5.53
   2  -4  -8    4.31    0.84
  -2   4   8    4.85    0.66
  -2   4   8    5.17    0.46
   1  -4  -8   47.14    2.01
  -1   4   8   44.93    1.66
  -1   4   8   46.62    3.08
   0   4   8    4.13    1.40
   0   4   8    3.19    0.50
   0  -4  -8    3.61    0.75
   1   4   8    0.26    0.33
  -1  -4  -8    0.09    0.50
   1   4   8   -0.69    1.15
   2   4   8   24.37    1.15
   2   4   8   22.80    2.79
  -2  -4  -8   23.37    1.41
   3   4   8  110.21    5.88
   3   4   8  108.03    2.94
  -3  -4  -8  109.72    3.31
  -4  -4  -8    6.04    0.95
   4   4   8    6.19    2.24
  -5  -4  -8    1.33    0.71
   5   4   8    0.75    2.01
  -6  -4  -8    1.06    0.76
   6   4   8    0.87    1.90
   7  -5  -8    1.58    0.83
  -7   5   8    1.98    0.68
   6  -5  -8    0.35    0.58
  -6   5   8    0.02    0.53
  -6   5   8    0.37    0.52
   5  -5  -8    2.15    0.78
  -5   5   8    1.45    0.57
  -5   5   8    2.26    0.62
  -4   5   8    0.09    0.37
  -4   5   8    0.51    0.49
   4  -5  -8    0.20    0.59
  -3   5   8    4.73    0.75
   3  -5  -8    5.20    0.91
   2  -5  -8    3.28    0.50
   2  -5  -8    2.45    0.73
  -2   5   8    2.32    0.54
  -1   5   8  125.30    3.31
  -1   5   8  126.96    5.60
   1  -5  -8  127.88    3.66
   1  -5  -8  129.68    2.80
   0   5   8  143.29    3.57
   0   5   8  141.57    6.21
   0  -5  -8  144.48    3.91
   1   5   8   90.41    4.84
   1   5   8   91.12    2.56
  -1  -5  -8   93.34    2.90
   2   5   8   50.06    1.73
   2   5   8   46.76    3.65
  -2  -5  -8   47.99    2.00
   3   5   8   35.56    1.47
   3   5   8   40.35    3.60
  -3  -5  -8   37.21    1.84
   4   5   8   14.54    2.78
  -4  -5  -8   12.29    1.23
  -5  -5  -8    1.38    0.72
   5   5   8    3.17    2.21
   6   5   8    1.50    2.05
  -6  -5  -8   -0.65    0.67
  -6   6   8    0.95    0.55
  -6   6   8   -0.36    0.52
   6  -6  -8    0.52    0.62
  -5   6   8   15.52    1.11
   5  -6  -8   14.88    1.37
  -5   6   8   13.86    1.15
   4  -6  -8    1.23    0.65
  -4   6   8    0.19    0.49
   3  -6  -8   81.27    2.88
  -3   6   8   79.85    2.64
   3  -6  -8   82.42    2.46
  -2   6   8   59.82    2.10
   2  -6  -8   58.22    1.78
   2  -6  -8   58.49    2.33
   1  -6  -8    1.40    0.72
  -1   6   8    0.54    0.43
  -1   6   8    0.55    1.07
   0   6   8   18.39    2.16
   0   6   8   19.18    1.07
   0  -6  -8   14.66    1.28
   1   6   8   52.45    1.80
  -1  -6  -8   51.84    2.14
   1   6   8   53.20    3.64
   2   6   8   16.78    0.98
   2   6   8   19.08    2.69
  -2  -6  -8   19.14    1.39
   3   6   8   59.14    1.96
  -3  -6  -8   64.08    2.48
   3   6   8   60.50    4.37
  -4  -6  -8    7.18    1.08
   4   6   8    9.81    2.58
  -5  -6  -8    0.49    0.63
   5   6   8   -1.17    1.80
   6   6   8    2.97    2.20
  -6  -6  -8    1.11    0.86
  -6   7   8    4.39    0.79
  -6   7   8    2.65    0.78
   6  -7  -8    3.11    0.88
   5  -7  -8    3.64    0.86
  -5   7   8    2.13    0.57
  -5   7   8    2.62    0.72
  -4   7   8    1.10    0.58
   4  -7  -8    0.97    0.63
   4  -7  -8    1.13    0.61
  -3   7   8   12.89    1.05
   3  -7  -8   13.39    1.29
   3  -7  -8   13.48    0.99
   2  -7  -8   -0.66    0.59
   2  -7  -8   -0.09    0.34
  -2   7   8    0.36    0.45
   1  -7  -8   89.30    3.03
  -1   7   8   91.98    2.70
  -1   7   8   90.81    4.40
   0   7   8    0.75    0.41
   0   7   8    0.57    1.12
   0  -7  -8    0.58    0.62
   1   7   8   -1.80    1.26
  -1  -7  -8    0.90    0.61
   1   7   8    0.06    0.33
  -2  -7  -8    0.06    0.58
   2   7   8   -0.15    1.63
   2   7   8    0.45    0.38
  -3  -7  -8   33.02    1.82
   3   7   8   32.83    3.56
   4   7   8    2.41    2.15
  -4  -7  -8    2.88    0.86
   5   7   8    1.26    2.14
  -5  -7  -8    1.49    0.80
   6   7   8    1.68    1.95
  -6  -7  -8    0.24    0.79
  -6   8   8    0.05    0.40
  -6   8   8    0.20    0.60
   6  -8  -8   -0.08    0.54
   5  -8  -8   -0.26    0.50
  -5   8   8   -0.44    0.48
   4  -8  -8   30.94    1.61
  -4   8   8   30.30    1.59
   4  -8  -8   28.46    1.72
   3  -8  -8   -0.40    0.54
  -3   8   8   -0.15    0.39
   3  -8  -8    0.00    0.40
   2  -8  -8  127.86    3.88
  -2   8   8  135.98    3.64
   2  -8  -8  128.79    3.23
  -1   8   8   25.53    1.31
  -1   8   8   21.82    2.28
   1  -8  -8   23.92    1.63
   0   8   8    1.91    0.52
   0   8   8    2.27    1.37
   0  -8  -8    2.04    0.77
   1   8   8   14.72    2.42
   1   8   8   17.60    1.03
  -1  -8  -8   19.61    1.43
   2   8   8  122.56    6.27
  -2  -8  -8  120.28    3.65
   2   8   8  121.47    3.15
  -3  -8  -8    6.00    0.95
   3   8   8    2.72    2.30
  -4  -8  -8   33.38    1.97
   4   8   8   39.19    3.89
  -5  -8  -8   10.22    1.34
   5   8   8   14.97    3.13
   6   8   8    1.60    2.13
  -6  -8  -8    0.28    0.79
  -6   9   8    0.87    0.42
   6  -9  -8    1.89    0.77
  -6   9   8    0.78    0.71
  -5   9   8    3.28    0.83
   5  -9  -8    3.54    0.84
   5  -9  -8    3.56    0.87
  -4   9   8    3.07    0.72
   4  -9  -8    3.21    0.76
   4  -9  -8    4.51    0.88
   3  -9  -8   -0.19    0.52
  -3   9   8    0.05    0.46
   3  -9  -8    0.07    0.41
   2  -9  -8   65.28    2.05
   2  -9  -8   66.10    2.63
  -2   9   8   65.21    2.33
   1  -9  -8    0.05    0.67
  -1   9   8    0.52    0.44
  -1   9   8    0.58    1.13
   0   9   8   99.07    2.89
   0   9   8  104.88    5.12
   0  -9  -8   99.39    3.28
   1   9   8   12.01    0.91
   1   9   8   13.35    2.48
  -1  -9  -8   10.06    1.17
  -2  -9  -8   -0.05    0.61
   2   9   8    0.86    0.39
   2   9   8    0.94    1.85
  -3  -9  -8    6.86    1.01
   3   9   8    7.11    2.70
   4   9   8    0.81    2.21
  -4  -9  -8    0.31    0.65
   5   9   8    4.20    2.34
  -5  -9  -8    1.49    0.85
  -6  -9  -8    0.53    0.86
   6   9   8    0.38    2.17
  -6  10   8    1.01    0.76
   6 -10  -8    1.39    0.70
   5 -10  -8   11.08    1.24
   5 -10  -8   11.43    1.30
  -5  10   8   11.08    1.22
  -4  10   8   13.13    1.22
   4 -10  -8   12.21    1.24
   4 -10  -8   15.06    1.23
   3 -10  -8   34.56    1.59
  -3  10   8   32.01    1.65
   3 -10  -8   32.83    1.81
   2 -10  -8   65.20    2.62
  -2  10   8   61.61    2.31
   1 -10  -8    1.38    0.82
  -1  10   8    1.36    0.53
   0  10   8   29.08    1.44
   0  10   8   30.93    2.89
   0 -10  -8   30.75    1.86
   1  10   8    0.94    0.44
  -1 -10  -8    1.03    0.72
   1  10   8    1.82    1.72
   2  10   8   -0.60    1.77
  -2 -10  -8   -0.10    0.60
  -3 -10  -8    5.39    0.97
   3  10   8    7.72    2.83
  -4 -10  -8   13.06    1.36
   4  10   8   17.12    3.23
   5  10   8    2.17    2.39
  -5 -10  -8    0.74    0.65
   6  10   8   -1.05    2.30
   6 -11  -8    0.89    0.65
  -6  11   8    1.55    0.77
   5 -11  -8    7.43    1.10
   5 -11  -8    7.80    1.09
  -5  11   8    6.81    1.02
  -4  11   8   -0.52    0.47
   4 -11  -8    0.17    0.54
   4 -11  -8    0.42    0.60
  -3  11   8    0.05    0.48
   3 -11  -8    0.49    0.59
   3 -11  -8    0.68    0.53
  -2  11   8   -0.21    0.43
   2 -11  -8    0.81    0.72
   1 -11  -8    3.78    1.00
  -1  11   8    4.68    0.74
   0 -11  -8    0.01    0.66
   0  11   8   -0.53    0.34
   0  11   8   -1.18    1.35
   1  11   8    2.75    0.56
  -1 -11  -8    2.71    0.85
   1  11   8    4.27    2.03
  -2 -11  -8    0.77    0.68
   2  11   8    0.79    2.02
  -3 -11  -8    0.08    0.58
   3  11   8    1.04    2.39
   4  11   8    2.41    2.79
  -4 -11  -8    1.15    0.78
  -5 -11  -8    2.40    0.81
   5  11   8    4.16    2.63
  -5  12   8    1.66    0.73
   5 -12  -8    1.93    0.74
   5 -12  -8    1.43    0.80
   4 -12  -8    8.84    1.15
   4 -12  -8    8.87    1.09
  -4  12   8   10.04    1.16
   3 -12  -8    1.45    0.71
  -3  12   8    0.99    0.54
  -2  12   8   16.61    1.17
   2 -12  -8   17.95    1.48
  -1  12   8   30.39    1.55
   1 -12  -8   33.59    1.96
   0  12   8   29.97    3.17
   0 -12  -8   23.06    1.71
   0  12   8   22.91    1.34
  -1 -12  -8   11.03    1.28
   1  12   8   17.21    2.81
   1  12   8   10.54    0.90
   2  12   8   47.07    4.11
  -2 -12  -8   42.61    2.20
  -3 -12  -8    0.54    0.71
   3  12   8    1.79    2.55
  -4 -12  -8    2.20    0.83
   4  12   8    0.82    2.94
  -5 -12  -8    0.07    0.61
   5  12   8    1.19    2.46
   5 -13  -8    2.45    0.75
  -5  13   8    1.19    0.80
   5 -13  -8    1.91    0.82
  -4  13   8   14.24    1.28
   4 -13  -8   15.51    1.36
   4 -13  -8   12.88    1.29
  -3  13   8    0.36    0.56
   3 -13  -8    0.07    0.58
  -2  13   8   12.53    1.10
   2 -13  -8   13.45    1.40
  -1  13   8   27.85    1.52
   1 -13  -8   23.61    1.75
   0 -13  -8  167.87    4.87
   0  13   8  169.68    7.76
   0  13   8  163.25    4.32
   1  13   8    0.07    1.85
  -1 -13  -8   -0.16    0.64
   2  13   8   19.98    3.24
  -2 -13  -8   18.34    1.56
  -3 -13  -8    3.98    0.96
   3  13   8    3.27    2.70
  -4 -13  -8   -0.63    0.54
   4  13   8   -1.98    2.78
  -5 -13  -8    1.29    0.83
   5  13   8   -0.36    2.51
   5 -14  -8    6.05    1.15
   5 -14  -8    6.34    1.04
  -5  14   8    4.78    1.04
   4 -14  -8    3.26    0.84
  -4  14   8    2.31    0.71
   3 -14  -8    6.08    1.04
  -3  14   8    6.19    0.91
   2 -14  -8   -0.40    0.59
  -2  14   8   -0.16    0.46
   1 -14  -8   15.73    1.53
  -1  14   8   16.74    1.24
   0  14   8   11.75    2.54
   0  14   8    9.29    0.97
   0 -14  -8    9.25    1.32
   1  14   8   19.51    3.13
  -1 -14  -8   16.88    1.53
  -2 -14  -8   -1.13    0.60
   2  14   8    0.63    2.21
  -3 -14  -8    3.02    0.94
   3  14   8    6.39    2.96
   4  14   8   -0.44    2.80
  -4 -14  -8    0.66    0.70
   4 -15  -8    0.27    0.57
  -4  15   8    0.31    0.57
   3 -15  -8    5.70    1.02
  -3  15   8    5.06    0.93
  -2  15   8    1.04    0.58
   2 -15  -8    0.07    0.69
  -1  15   8    4.33    0.78
   1 -15  -8    2.07    0.91
   0  15   8    0.26    0.50
   0 -15  -8   -0.55    0.71
   1  15   8   21.41    3.32
  -1 -15  -8   16.66    1.57
  -2 -15  -8    1.35    0.88
   2  15   8    3.41    2.63
  -3 -15  -8   -0.86    0.57
   3  15   8   -1.17    2.57
  -4 -15  -8   -0.06    0.67
   4  15   8   -1.38    2.97
  -4  16   8    0.81    0.61
   3 -16  -8    9.29    1.20
  -3  16   8    9.64    1.10
   2 -16  -8    0.78    0.75
  -2  16   8    0.45    0.56
  -1  16   8    0.11    0.52
   1 -16  -8   -1.79    0.62
   0  16   8    0.07    0.54
   0 -16  -8   -0.51    0.80
  -1 -16  -8    7.73    1.28
   1  16   8   11.08    3.02
   2  16   8    3.33    2.76
  -2 -16  -8    2.54    0.94
  -3 -16  -8    1.89    0.89
   3  16   8    2.57    3.10
  -3  17   8   -0.50    0.43
  -2  17   8    0.44    0.59
   2 -17  -8    0.82    0.73
   1 -17  -8    2.54    0.95
  -1  17   8    1.74    0.66
   0 -17  -8   -0.70    0.73
   1  17   8    9.76    3.07
  -1 -17  -8    5.83    1.21
   2  17   8    5.04    3.06
  -2 -17  -8    5.18    1.15
   3  17   8    2.89    3.18
  -3 -17  -8    2.04    0.93
  -2  18   8    0.43    0.54
  -1  18   8    1.19    0.61
   0 -18  -8    0.60    0.85
  -1 -18  -8    3.39    1.12
   2  18   8    0.04    2.82
  -2 -18  -8    0.15    0.74
   1  18  -9    4.10    3.45
  -1 -18   9    6.43    1.18
   0  18  -9    1.77    3.42
   0 -18   9   -0.83    0.63
  -1  18  -9   -0.76    3.20
   1 -18   9   -0.48    0.71
   1 -18   9    0.37    0.67
   2  17  -9    3.00    2.21
  -2 -17   9    2.54    0.95
  -1 -17   9   -0.30    0.72
   1  17  -9   -0.17    2.94
   0 -17   9   12.41    1.36
   0  17  -9   21.61    5.92
   0 -17   9    9.26    1.21
   1 -17   9    2.82    0.86
  -1  17  -9   -0.72    3.24
   1 -17   9    1.72    0.86
  -2  17  -9    0.38    3.14
   2 -17   9    0.96    0.87
   2 -17   9    0.87    0.68
  -3 -16   9    3.85    1.10
   3  16  -9    3.88    2.16
  -2 -16   9    6.72    1.21
   2  16  -9    6.32    3.02
   1  16  -9   -0.78    2.70
  -1 -16   9    0.03    0.65
   0 -16   9    1.46    0.83
   0  16  -9   -1.33    4.94
   0 -16   9   -0.09    0.62
  -1  16  -9    0.55    3.72
   1 -16   9    5.90    1.05
   1 -16   9    6.37    1.07
   2 -16   9    0.19    0.74
   2 -16   9    1.56    0.71
  -2  16  -9   -1.28    2.80
   3 -16   9    1.95    0.93
   3 -16   9    3.65    0.84
  -3  16  -9   -0.26    3.13
   4  15  -9    2.67    1.87
  -4 -15   9    0.52    0.89
  -3 -15   9    0.04    0.81
   3  15  -9    0.09    1.94
   2  15  -9    6.34    2.96
  -2 -15   9    5.27    1.10
  -1 -15   9    4.02    0.95
   1  15  -9    3.41    4.54
   0 -15   9    0.92    0.69
   0  15  -9   -2.37    4.38
   0 -15   9    1.32    0.76
  -1  15  -9    0.74    3.77
   1 -15   9    6.04    1.01
   1 -15   9    5.79    0.98
   2 -15   9    1.37    0.73
  -2  15  -9    0.20    3.17
   2 -15   9    0.71    0.71
   3 -15   9   -0.62    0.50
  -3  15  -9   -0.22    2.87
   3 -15   9   -0.66    0.71
  -4 -14   9    1.26    0.91
   4  14  -9   -0.32    1.77
   3  14  -9    0.86    1.79
  -3 -14   9    0.63    0.84
   2  14  -9    5.63    2.97
  -2 -14   9    2.04    0.89
   1  14  -9   -2.86    3.54
  -1 -14   9    3.53    0.82
  -1 -14   9    4.69    0.99
   0 -14   9   11.35    1.18
   0 -14   9   12.10    1.23
   0  14  -9   -0.97    5.14
  -1  14  -9    1.58    4.94
   1 -14   9    0.93    0.73
   1 -14   9    0.83    0.68
  -2  14  -9    0.77    3.47
   2 -14   9    1.89    0.74
   2 -14   9    1.32    0.75
  -3  14  -9    0.25    3.63
   3 -14   9    1.84    0.81
   3 -14   9    1.85    0.77
   4 -14   9    0.54    0.65
   5  13  -9    8.54    2.54
  -5 -13   9    5.55    1.26
   4  13  -9   -0.54    1.63
  -4 -13   9   -0.03    0.69
   3  13  -9    1.47    2.09
  -3 -13   9   -0.74    0.69
   2  13  -9   -0.07    2.21
  -2 -13   9    0.51    0.74
  -1 -13   9    2.11    0.79
   1  13  -9   -1.23    3.82
  -1 -13   9    2.56    0.71
   0 -13   9   23.61    1.55
   0 -13   9   25.32    1.60
   1 -13   9   25.03    1.59
   1 -13   9   26.29    1.62
  -2  13  -9    1.03    4.51
   2 -13   9    0.01    0.60
   2 -13   9   -0.72    0.57
   3 -13   9    2.48    0.88
  -3  13  -9   -2.25    4.76
   3 -13   9    2.36    0.76
   4 -13   9    0.68    0.58
  -4  13  -9   -6.68    4.92
  -5 -12   9   -1.02    0.66
   5  12  -9    1.66    1.91
   4  12  -9    6.27    2.38
  -4 -12   9    2.85    0.90
   3  12  -9   16.51    3.39
  -3 -12   9   14.97    1.57
   2  12  -9   21.03    4.86
  -2 -12   9   27.17    1.77
  -1 -12   9   12.66    1.13
  -1 -12   9   11.59    1.24
   0  12  -9    2.84    5.23
   0 -12   9   15.69    1.33
   0 -12   9   13.33    1.17
   1 -12   9    2.87    0.74
   1 -12   9    4.09    0.80
  -1  12  -9    0.19    4.75
   2 -12   9    0.23    0.53
   2 -12   9    1.08    0.71
  -2  12  -9    0.01    5.09
  -3  12  -9   -0.79    4.51
   3 -12   9    5.64    0.90
   3 -12   9    5.40    0.95
  -4  12  -9   -6.04    5.30
   4 -12   9    0.06    0.52
   5 -12   9    0.83    0.67
  -5 -11   9    1.51    0.90
  -4 -11   9   25.74    1.81
   4  11  -9   24.90    3.40
  -3 -11   9    0.42    0.71
   3  11  -9    0.08    2.02
  -2 -11   9    0.60    0.67
   2  11  -9    1.08    2.86
  -2 -11   9   -0.10    0.49
  -1 -11   9    1.79    0.64
  -1 -11   9    1.99    0.77
   1  11  -9    1.54    4.58
   0 -11   9   85.33    2.89
   0 -11   9   85.04    2.84
  -1  11  -9   -3.67    4.21
   1 -11   9    1.15    0.63
   1 -11   9    1.30    0.60
  -2  11  -9   -0.52    4.87
   2 -11   9    3.19    0.80
   2 -11   9    3.40    0.73
   3 -11   9    2.13    0.65
   3 -11   9    3.01    0.76
  -3  11  -9   -5.46    5.09
  -4  11  -9   -3.23    4.88
   4 -11   9    0.87    0.59
   5 -11   9    0.35    0.59
  -5 -10   9    1.79    0.84
  -4 -10   9    0.87    0.74
   4  10  -9    0.30    1.63
   3  10  -9   15.09    3.49
  -3 -10   9   14.41    1.31
  -2 -10   9    3.44    0.78
   2  10  -9   -0.78    3.30
  -2 -10   9    2.67    0.64
  -1 -10   9   54.25    2.26
  -1 -10   9   51.42    2.14
   0 -10   9   15.04    1.20
   0 -10   9   13.91    1.18
   1 -10   9    9.45    0.99
   1 -10   9    9.78    1.05
  -1  10  -9   -0.61    4.54
   2 -10   9    2.71    0.67
  -2  10  -9    0.79    4.63
   2 -10   9    3.51    0.75
  -3  10  -9    0.20    4.88
  -4  10  -9   -4.34    5.26
   4 -10   9   -1.04    0.42
   5 -10   9    0.60    0.53
  -6  -9   9    2.38    0.92
  -5  -9   9   16.57    1.48
   4   9  -9    4.55    2.01
  -4  -9   9    4.83    0.92
  -3  -9   9    0.18    0.57
   3   9  -9   -0.25    1.43
  -2  -9   9   57.46    2.13
  -2  -9   9   57.73    2.30
  -1  -9   9  378.18    8.30
  -1  -9   9  385.78    8.35
   0  -9   9    4.89    0.82
   0   9  -9   -2.96    4.00
   0  -9   9    5.06    0.77
   1  -9   9  122.06    3.65
   1  -9   9  130.59    3.54
   2  -9   9    1.22    0.67
   2  -9   9    1.93    0.59
  -2   9  -9   -2.42    5.21
  -3   9  -9   -1.51    4.68
   3  -9   9    0.01    0.41
   4  -9   9    4.20    0.81
  -4   9  -9   -3.47    5.15
  -5   9  -9   -1.06    5.25
  -6  -8   9    2.92    0.98
   6   8  -9    1.28    0.95
   5   8  -9    0.37    0.73
  -5  -8   9    0.36    0.63
   4   8  -9   11.34    2.56
  -4  -8   9    8.56    1.05
   4   8  -9   10.45    1.16
  -3  -8   9    1.89    0.64
   3   8  -9    1.31    1.78
  -3  -8   9    3.07    0.62
   2   8  -9   -1.98    2.34
  -2  -8   9    1.02    0.60
  -2  -8   9    0.48    0.49
  -1  -8   9   58.45    2.22
  -1  -8   9   60.65    2.20
   0  -8   9    7.25    0.83
   0   8  -9   -0.87    4.25
   0  -8   9    7.03    0.84
   1  -8   9   53.13    1.95
   1  -8   9   49.27    2.06
   2  -8   9   21.09    1.40
   2  -8   9   21.93    1.25
  -3   8  -9   -3.93    4.64
   3  -8   9    2.04    0.64
  -4   8  -9   -0.14    4.47
  -5   8  -9    0.76    4.70
   5  -8   9    9.29    1.13
  -6  -7   9   15.54    1.51
   6   7  -9   15.27    1.67
   5   7  -9    7.48    1.16
  -5  -7   9    7.80    1.08
   4   7  -9   37.00    3.66
   4   7  -9   32.98    1.80
  -4  -7   9   33.05    1.79
   3   7  -9   -0.46    1.87
   3   7  -9    0.63    0.55
  -3  -7   9    0.56    0.58
  -3  -7   9    1.03    0.52
   2   7  -9   24.11    1.30
  -2  -7   9   26.61    1.38
  -2  -7   9   22.54    1.37
  -1  -7   9    1.38    0.60
   1   7  -9   -2.59    2.77
  -1  -7   9    1.34    0.49
   0  -7   9  116.21    3.36
   0  -7   9  121.67    3.20
   1  -7   9    6.36    0.81
   1  -7   9    5.38    0.69
  -1   7  -9    0.64    5.18
  -2   7  -9   -1.27    4.29
  -3   7  -9   -3.66    3.95
  -4   7  -9    0.08    3.65
  -5   7  -9    1.97    4.33
   5  -7   9    3.98    0.86
   6  -7   9    5.54    0.90
   6   6  -9    2.27    0.99
  -6  -6   9    1.77    0.81
   5   6  -9    0.67    0.73
  -5  -6   9    0.33    0.64
  -4  -6   9    7.17    0.94
   4   6  -9    6.44    0.98
   4   6  -9    8.44    2.34
  -3  -6   9    4.38    0.70
  -3  -6   9    3.08    0.68
   3   6  -9    3.37    0.76
  -2  -6   9    0.52    0.54
   2   6  -9    1.09    2.10
   2   6  -9    1.14    0.53
  -2  -6   9    1.46    0.54
  -1  -6   9   73.15    2.32
   1   6  -9   75.35    2.23
  -1  -6   9   73.73    2.43
   0  -6   9    5.02    0.75
   0   6  -9    1.14    3.68
   0  -6   9    5.71    0.68
   1  -6   9   13.20    1.11
   1  -6   9   14.31    0.96
  -2   6  -9   -4.74    3.98
  -3   6  -9   -3.23    4.14
   3  -6   9    0.44    0.45
  -4   6  -9   -2.22    4.14
  -5   6  -9   -0.07    4.21
   5  -6   9    1.28    0.60
   6  -6   9    0.69    0.55
   6   5  -9    2.81    1.04
  -6  -5   9    2.21    0.81
  -5  -5   9   20.48    1.49
   5   5  -9   19.47    1.56
   4   5  -9   -0.35    0.56
  -4  -5   9   -0.27    0.43
  -3  -5   9  139.00    3.68
   3   5  -9  134.90    3.77
  -3  -5   9  130.21    3.60
  -2  -5   9    2.42    0.55
   2   5  -9    1.85    0.58
   2   5  -9   -0.08    2.35
  -2  -5   9    2.51    0.59
  -1  -5   9  135.34    3.25
  -1  -5   9  114.57    3.33
   1   5  -9  128.62    3.24
   0   5  -9   -1.91    3.98
   0  -5   9    0.39    0.41
   0   5  -9    0.78    0.53
   0  -5   9    0.63    0.45
   1  -5   9  198.33    4.88
  -1   5  -9  200.28    4.57
   3  -5   9   17.58    1.23
   4  -5   9    2.15    0.64
  -4   5  -9   -3.63    3.55
  -5   5  -9   -2.00    3.75
   6  -5   9    1.17    0.55
   6   4  -9    1.97    0.96
  -6  -4   9    2.85    0.83
   5   4  -9    0.46    0.67
  -5  -4   9    0.89    0.58
   4   4  -9   40.36    1.98
  -4  -4   9   38.01    1.80
  -4  -4   9   41.04    1.77
  -3  -4   9   16.92    1.15
  -3  -4   9   16.48    1.10
   3   4  -9   17.38    1.30
  -2  -4   9    5.31    0.67
  -2  -4   9    4.38    0.66
   2   4  -9    4.71    0.77
  -1  -4   9  100.76    2.93
  -1  -4   9  104.29    2.69
   1   4  -9  101.18    2.82
   0  -4   9   66.48    2.27
   0  -4   9   70.44    1.94
   0   4  -9   65.89    2.16
   1  -4   9    9.46    0.95
  -1   4  -9    3.69    3.71
  -1   4  -9   12.22    1.14
  -3   4  -9  106.48    3.01
   3  -4   9  110.62    3.31
  -5   4  -9    3.42    4.06
  -6   4  -9    3.79    3.62
   6   3  -9   10.87    1.48
  -6  -3   9   12.94    1.32
   5   3  -9    8.17    1.21
  -5  -3   9    8.41    1.02
  -4  -3   9  132.01    3.68
   4   3  -9  133.25    3.96
  -4  -3   9  131.22    3.63
  -3  -3   9   12.38    1.09
   3   3  -9   10.24    1.09
  -3  -3   9   11.44    0.96
  -2  -3   9   69.18    2.08
  -2  -3   9   68.51    2.25
   2   3  -9   67.93    2.31
  -1  -3   9    4.28    0.55
   1   3  -9   -0.37    1.87
   1   3  -9    5.95    0.79
  -1  -3   9    4.57    0.63
   0   3  -9  443.35    8.82
   0  -3   9  410.63    8.92
   1  -3   9   12.37    0.99
  -1   3  -9   12.25    1.09
   2  -3   9   38.40    1.68
  -2   3  -9   35.73    1.64
   3  -3   9    1.36    0.55
  -3   3  -9    0.44    0.83
  -3   3  -9    1.79    0.60
   4  -3   9   10.39    1.02
  -4   3  -9   10.65    1.08
   5  -3   9   -0.03    0.42
  -7  -2   9   -0.15    0.56
   6   2  -9    0.76    0.84
  -6  -2   9    1.03    0.68
   5   2  -9   13.94    1.46
  -5  -2   9   14.30    1.27
   4   2  -9   19.27    1.49
  -4  -2   9   20.72    1.33
  -4  -2   9   20.52    1.32
   3   2  -9    2.70    0.75
   3   2  -9    0.47    1.91
  -3  -2   9    2.00    0.51
  -3  -2   9    3.02    0.61
  -2  -2   9    4.08    0.61
   2   2  -9    3.79    0.76
  -2  -2   9    4.73    0.56
   2   2  -9    0.59    1.61
  -1  -2   9    0.58    0.36
  -1  -2   9    0.50    0.34
   1   2  -9   -0.93    1.60
   1   2  -9   -0.05    0.49
   0  -2   9   33.17    1.52
   0   2  -9   34.00    1.62
  -1   2  -9   41.08    1.72
   1  -2   9   36.97    1.62
   2  -2   9  113.93    3.22
  -2   2  -9  109.82    3.10
   3  -2   9   17.92    2.97
   3  -2   9   12.53    1.07
  -3   2  -9   12.86    1.08
  -4   2  -9    6.42    0.87
   4  -2   9   10.57    2.32
   4  -2   9    6.82    0.83
   5  -2   9    1.49    2.01
  -5   2  -9    2.72    0.78
   5  -2   9    2.71    0.62
   6  -2   9   -0.82    1.85
  -7  -1   9    4.81    1.01
   7   1  -9    6.91    1.43
   6   1  -9    0.42    0.79
  -6  -1   9   -0.12    0.55
  -5  -1   9   31.96    1.65
   5   1  -9   31.23    1.94
  -5  -1   9   33.62    1.76
  -4  -1   9   29.59    1.47
  -4  -1   9   29.16    1.50
   4   1  -9   29.74    1.77
  -3  -1   9   43.16    1.65
  -3  -1   9   43.88    1.78
   3   1  -9   44.26    2.01
   2   1  -9   48.71    4.47
  -2  -1   9   47.05    1.84
   2   1  -9   50.80    2.03
  -2  -1   9   52.69    1.62
  -1  -1   9   19.70    1.14
   1   1  -9   20.45    1.33
   0  -1   9    4.67    0.63
   0   1  -9    5.05    0.82
  -1   1  -9   72.34    2.32
   1  -1   9   60.57    2.13
   2  -1   9  205.39    4.92
   2  -1   9  208.09    8.93
  -2   1  -9  198.68    4.83
   3  -1   9   10.72    0.94
   3  -1   9   14.00    2.76
  -3   1  -9   11.62    1.09
   4  -1   9   -0.43    1.49
   4  -1   9   -0.28    0.34
  -4   1  -9    0.02    0.47
  -5   1  -9    6.94    1.01
   5  -1   9    6.92    2.47
   5  -1   9    6.60    0.82
  -6   1  -9    1.35    0.80
   6  -1   9    0.23    2.08
  -7   0   9    1.36    0.65
   7   0  -9    0.94    0.98
  -6   0   9   -0.03    0.53
   6   0  -9   -0.20    0.76
   5   0  -9    0.93    0.74
  -5   0   9    0.45    0.54
  -5   0   9    0.28    0.54
  -4   0   9   -0.30    0.38
  -4   0   9   -0.08    0.46
   4   0  -9   -0.43    0.58
  -3   0   9   -0.20    0.32
   3   0  -9   -0.10    0.60
  -3   0   9    0.27    0.46
   2   0  -9    0.52    1.49
  -2   0   9   -0.14    0.27
  -2   0   9   -0.07    0.34
   2   0  -9   -0.06    0.52
   1   0  -9   -0.15    1.83
  -1   0   9    0.61    0.42
   1   0  -9    0.06    0.54
   0   0  -9    0.63    0.59
   0   0   9    0.05    0.33
   0   0  -9   -3.02    2.27
   1   0   9    0.42    0.38
  -1   0  -9    0.22    0.54
   1   0   9   -0.48    1.38
   2   0   9   -0.09    0.38
  -2   0  -9   -0.41    0.47
   2   0   9   -1.05    1.66
   3   0   9    0.71    1.81
  -3   0  -9   -0.51    0.52
   3   0   9   -0.28    0.41
   4   0   9   -1.39    1.45
  -4   0  -9   -0.14    0.47
   4   0   9    0.00    0.35
  -5   0  -9    0.12    0.61
   5   0   9    0.24    1.89
  -6   0  -9    0.03    0.65
   6   0   9   -0.75    1.87
   7  -1  -9    5.22    1.32
  -7   1   9    4.64    0.91
   6  -1  -9    0.95    0.88
  -6   1   9    0.64    0.58
  -5   1   9   31.82    1.63
   5  -1  -9   28.10    1.87
  -5   1   9   30.84    1.63
  -4   1   9   27.84    1.46
   4  -1  -9   24.97    1.68
  -4   1   9   27.35    1.36
  -3   1   9   45.35    1.61
   3  -1  -9   47.02    2.09
  -3   1   9   44.06    1.82
  -2   1   9   53.45    1.55
  -2   1   9   47.94    1.82
   2  -1  -9   48.60    2.08
   1  -1  -9   18.87    1.31
  -1   1   9   17.26    1.03
   0  -1  -9    6.11    0.88
   0   1   9    5.35    0.66
   1   1   9   70.85    2.26
  -1  -1  -9   66.54    2.37
   1   1   9   70.78    4.39
  -2  -1  -9  199.21    4.82
   2   1   9  207.75    8.76
   2   1   9  178.20    4.62
   3   1   9   12.83    2.66
  -3  -1  -9   11.39    1.15
   3   1   9   10.81    0.95
   4   1   9   -2.45    1.42
   4   1   9   -0.27    0.35
  -4  -1  -9   -0.37    0.48
   5   1   9    6.60    2.37
  -5  -1  -9    6.07    1.01
  -6  -1  -9    0.96    0.79
   6   1   9    1.04    2.08
  -7   2   9    0.78    0.56
  -6   2   9    1.35    0.63
   6  -2  -9    0.73    0.84
  -5   2   9   14.48    1.19
  -5   2   9   12.22    1.06
   5  -2  -9   13.20    1.44
   4  -2  -9   18.12    1.45
  -4   2   9   16.14    1.20
  -4   2   9   16.47    1.12
   3  -2  -9    2.10    0.78
  -3   2   9    2.69    0.63
  -3   2   9    2.72    0.46
   2  -2  -9    3.71    0.86
   2  -2  -9    2.40    1.48
  -2   2   9    3.83    0.63
   1  -2  -9   -1.78    1.26
   1  -2  -9    0.58    0.64
  -1   2   9    0.01    0.37
   0   2   9   27.52    3.08
   0   2   9   34.10    1.48
   0  -2  -9   33.26    1.71
   1   2   9   39.66    1.59
  -1  -2  -9   41.43    1.87
   1   2   9   42.57    3.44
  -2  -2  -9  112.16    3.27
   2   2   9  110.07    5.88
   2   2   9  107.94    3.05
  -3  -2  -9   12.41    1.16
   3   2   9   16.25    2.80
   3   2   9   14.60    1.07
  -4  -2  -9   10.07    1.10
   4   2   9    6.77    2.37
   4   2   9    7.39    0.80
   5   2   9    3.26    2.16
  -5  -2  -9    2.07    0.78
  -6  -2  -9    1.49    0.85
   6   2   9    1.53    2.08
   6  -3  -9    9.77    1.42
  -6   3   9   11.25    1.16
  -6   3   9   10.68    1.12
  -5   3   9    7.91    0.89
   5  -3  -9    9.58    1.30
  -5   3   9    9.49    1.01
  -4   3   9  122.75    3.36
   4  -3  -9  126.02    3.95
  -4   3   9  125.04    3.59
  -3   3   9   10.91    0.77
  -3   3   9   11.71    0.98
   3  -3  -9   11.02    1.22
  -2   3   9   66.09    2.24
   2  -3  -9   69.17    4.33
   2  -3  -9   65.18    2.50
   1  -3  -9    3.85    0.89
  -1   3   9    3.89    0.60
   0  -3  -9  432.34    9.27
   0   3   9  433.92    8.96
   0   3   9  434.25   15.93
   1   3   9   13.23    2.24
  -1  -3  -9   11.67    1.12
   1   3   9   10.21    0.83
  -2  -3  -9   34.74    1.78
   2   3   9   35.02    3.33
   2   3   9   34.27    1.50
   3   3   9    2.23    1.98
  -3  -3  -9    1.43    0.71
   3   3   9    1.32    0.50
   4   3   9   12.51    2.78
  -4  -3  -9   10.30    1.15
   5   3   9    1.84    2.01
  -5  -3  -9    0.70    0.67
  -6  -3  -9    3.18    0.96
   6   3   9    5.69    2.51
  -6   4   9    1.85    0.65
  -6   4   9    2.28    0.74
   6  -4  -9    2.65    0.87
   5  -4  -9    0.79    0.66
  -5   4   9    0.06    0.42
  -5   4   9    1.05    0.57
  -4   4   9   34.31    1.69
  -4   4   9   38.27    1.59
   4  -4  -9   36.60    2.02
  -3   4   9   15.89    0.94
   3  -4  -9   14.83    1.40
  -3   4   9   16.07    1.20
   2  -4  -9    4.32    0.93
  -2   4   9    4.84    0.67
   1  -4  -9   97.28    3.13
  -1   4   9   96.09    2.81
  -1   4   9   92.18    4.75
   0   4   9   52.25    1.93
   0  -4  -9   58.51    2.37
   0   4   9   66.85    3.89
   1   4   9    9.23    0.86
  -1  -4  -9   11.52    1.18
   1   4   9   12.20    2.28
   2   4   9  111.89    5.76
   2   4   9  110.11    3.04
  -2  -4  -9  108.76    3.36
   3   4   9   94.92    2.89
  -3  -4  -9  104.61    3.29
   3   4   9  110.57    5.86
   4   4   9   18.75    2.86
  -4  -4  -9   23.10    1.58
  -5  -4  -9   -0.13    0.60
   5   4   9   -0.23    1.90
   6   4   9    0.61    1.99
  -6  -4  -9    0.17    0.74
  -6   5   9    1.68    0.73
  -6   5   9    2.19    0.66
   6  -5  -9    2.08    0.79
  -5   5   9   20.66    1.29
   5  -5  -9   19.25    1.55
  -5   5   9   17.37    1.33
  -4   5   9   -0.24    0.47
  -4   5   9    0.73    0.38
   4  -5  -9    0.50    0.57
  -3   5   9  122.12    3.08
  -3   5   9  125.24    3.52
   3  -5  -9  121.18    3.76
  -2   5   9    2.85    0.63
   2  -5  -9    1.65    0.78
  -1   5   9  123.35    5.73
   1  -5  -9  120.12    3.67
   0   5   9    0.84    1.28
   0  -5  -9   -0.18    0.67
   0   5   9    0.66    0.41
   1   5   9  184.12    8.05
  -1  -5  -9  190.75    4.86
   1   5   9  186.36    4.46
   2   5   9   20.84    2.84
   2   5   9   19.40    1.11
  -2  -5  -9   18.97    1.44
   3   5   9   18.25    2.96
   3   5   9   18.16    1.08
  -3  -5  -9   17.48    1.40
   4   5   9    1.47    2.13
  -4  -5  -9    1.44    0.74
   5   5   9    8.50    2.67
  -5  -5  -9    5.16    1.07
  -6  -5  -9    0.14    0.78
   6   5   9    0.85    2.03
  -6   6   9    1.28    0.59
  -6   6   9    1.27    0.72
   6  -6  -9    3.45    0.92
  -5   6   9    1.69    0.53
   5  -6  -9    1.39    0.73
  -5   6   9    1.94    0.64
  -4   6   9    6.02    0.84
   4  -6  -9    7.10    1.06
  -4   6   9    5.80    0.70
  -3   6   9    3.48    0.70
   3  -6  -9    2.10    0.78
  -2   6   9    0.82    0.50
   2  -6  -9    1.93    0.78
   1  -6  -9   68.62    2.70
  -1   6   9   71.57    2.35
  -1   6   9   67.72    3.93
   0   6   9    9.82    1.89
   0  -6  -9    5.71    1.02
   0   6   9    5.15    0.68
  -1  -6  -9   12.15    1.27
   1   6   9   13.83    2.41
   1   6   9   11.23    0.91
   2   6   9    8.05    2.27
   2   6   9    7.71    0.76
  -2  -6  -9    7.55    1.07
   3   6   9   -0.22    1.86
  -3  -6  -9    0.82    0.70
   3   6   9    0.45    0.36
   4   6   9   11.04    2.93
  -4  -6  -9   11.00    1.28
  -5  -6  -9    0.77    0.76
   5   6   9    1.05    2.06
  -6  -6  -9   -0.26    0.78
   6   6   9   -0.40    1.91
  -6   7   9   12.60    1.12
   6  -7  -9   14.57    1.45
  -6   7   9   12.89    1.31
   5  -7  -9    7.71    1.12
  -5   7   9    7.38    0.84
  -5   7   9    8.14    1.01
  -4   7   9   28.12    1.62
   4  -7  -9   29.70    1.80
   3  -7  -9    0.64    0.66
  -3   7   9    0.81    0.54
   2  -7  -9   20.21    1.58
  -2   7   9   21.79    1.28
  -1   7   9    1.69    0.53
  -1   7   9    1.68    1.31
   1  -7  -9    1.17    0.79
   0   7   9  112.74    3.19
   0   7   9  117.50    5.63
   0  -7  -9  119.69    3.67
  -1  -7  -9    5.74    1.00
   1   7   9    5.40    0.68
   1   7   9    7.61    2.05
   2   7   9    8.73    0.82
  -2  -7  -9    8.14    1.12
   2   7   9    9.97    2.48
  -3  -7  -9    8.83    1.15
   3   7   9   10.87    2.79
   4   7   9    4.10    2.51
  -4  -7  -9    3.72    0.91
   5   7   9    6.07    2.58
  -5  -7  -9    3.42    1.01
   6   7   9   10.59    2.92
  -6  -7  -9    5.09    1.22
  -6   8   9    2.83    0.83
  -6   8   9    2.00    0.62
   6  -8  -9    2.53    0.84
  -5   8   9   -0.09    0.56
  -5   8   9    0.11    0.40
   5  -8  -9    0.13    0.58
   4  -8  -9   10.33    1.23
  -4   8   9    7.50    0.96
   4  -8  -9    7.52    0.93
   3  -8  -9    1.46    0.72
  -3   8   9    1.59    0.57
   2  -8  -9   -0.10    0.69
  -2   8   9    0.04    0.43
   1  -8  -9   57.21    2.48
  -1   8   9   56.44    2.15
  -1   8   9   56.62    3.53
   0   8   9    6.44    0.77
   0   8   9    7.80    1.89
   0  -8  -9    5.92    1.04
  -1  -8  -9   52.62    2.31
   1   8   9   50.07    1.89
   1   8   9   52.34    3.82
  -2  -8  -9   19.53    1.50
   2   8   9   19.54    1.14
   2   8   9   19.17    2.82
  -3  -8  -9    1.39    0.74
   3   8   9    0.41    2.15
  -4  -8  -9    7.29    1.20
   4   8   9   10.45    2.82
  -5  -8  -9    8.32    1.33
   5   8   9   10.67    2.97
   6   8   9    3.21    2.46
  -6   9   9    3.31    0.63
   6  -9  -9    4.04    0.97
  -6   9   9    3.31    0.89
  -5   9   9   15.82    1.38
   5  -9  -9   14.40    1.40
   4  -9  -9    4.64    0.93
  -4   9   9    3.47    0.78
  -3   9   9    0.37    0.50
   3  -9  -9    0.44    0.62
   2  -9  -9   48.57    2.33
  -2   9   9   51.24    2.05
   1  -9  -9  350.40    8.26
  -1   9   9  364.15    7.89
   0   9   9    4.53    1.76
   0  -9  -9    3.58    0.99
   0   9   9    4.45    0.67
   1   9   9  118.14    3.27
  -1  -9  -9  118.30    3.78
   1   9   9  123.58    6.11
   2   9   9    1.63    0.48
  -2  -9  -9    1.67    0.75
   2   9   9    1.20    1.90
   3   9   9   -3.50    1.92
  -3  -9  -9   -0.40    0.55
  -4  -9  -9    3.73    1.01
   4   9   9    3.54    2.60
   5   9   9   20.97    3.17
  -5  -9  -9   15.03    1.69
   5 -10  -9    1.99    0.78
  -5  10   9    1.43    0.71
  -4  10   9    1.73    0.71
   4 -10  -9    1.28    0.73
   3 -10  -9   12.00    1.26
  -3  10   9   10.76    1.07
  -2  10   9    2.57    0.65
   2 -10  -9    2.15    0.84
  -1  10   9   46.23    1.96
   1 -10  -9   46.59    2.33
   0  10   9   15.31    2.43
   0 -10  -9   13.56    1.43
   0  10   9   13.17    1.06
   1  10   9    9.45    0.89
   1  10   9   10.58    2.38
  -1 -10  -9    7.89    1.16
  -2 -10  -9    3.30    0.86
   2  10   9    2.69    2.24
  -3 -10  -9    5.08    1.01
   3  10   9    5.57    2.61
  -4 -10  -9    0.05    0.61
   4  10   9   -0.95    2.54
  -5 -10  -9    0.94    0.79
   5  10   9    3.12    2.47
  -5  11   9    2.45    0.79
   5 -11  -9    2.19    0.76
  -4  11   9   22.53    1.52
   4 -11  -9   21.85    1.62
  -3  11   9    0.60    0.54
   3 -11  -9    0.61    0.65
   2 -11  -9    0.14    0.67
  -2  11   9   -0.28    0.39
   1 -11  -9    1.68    0.91
  -1  11   9    1.05    0.55
   0 -11  -9   79.10    3.10
   0  11   9   82.78    2.69
   0  11   9   78.59    4.70
  -1 -11  -9    0.58    0.71
   1  11   9    1.81    0.52
   1  11   9    1.90    1.88
   2  11   9    1.04    2.22
  -2 -11  -9    2.47    0.86
   3  11   9    1.12    2.41
  -3 -11  -9    1.95    0.84
  -4 -11  -9    1.17    0.75
   4  11   9   -1.23    2.64
   5  11   9    1.75    2.52
  -5 -11  -9    0.70    0.75
   5 -12  -9    0.47    0.52
  -5  12   9    0.85    0.68
   4 -12  -9    3.26    0.84
  -4  12   9    1.86    0.76
   3 -12  -9   15.49    1.40
  -3  12   9   11.19    1.15
   2 -12  -9   24.30    1.73
  -2  12   9   23.74    1.48
   1 -12  -9   12.77    1.45
  -1  12   9   11.45    1.02
   0  12   9   14.06    1.17
   0  12   9   18.33    2.96
   0 -12  -9   12.95    1.48
   1  12   9    3.35    2.20
   1  12   9    3.31    0.64
  -1 -12  -9    3.85    0.98
  -2 -12  -9   -1.40    0.54
   2  12   9   -0.58    2.15
   3  12   9    4.72    2.89
  -3 -12  -9    8.64    1.28
   4  12   9   -1.73    2.64
  -4 -12  -9   -0.90    0.57
   5  12   9    2.40    2.69
  -5 -12  -9    1.03    0.84
   5 -13  -9    7.85    1.14
  -5  13   9    6.57    1.10
   4 -13  -9    0.21    0.56
  -4  13   9   -0.45    0.46
  -3  13   9    0.54    0.55
   3 -13  -9    0.09    0.63
   2 -13  -9    0.43    0.71
  -2  13   9    0.49    0.54
   1 -13  -9    2.17    0.97
  -1  13   9    2.57    0.66
   0  13   9   21.28    3.12
   0  13   9   23.65    1.44
   0 -13  -9   22.77    1.82
  -1 -13  -9   23.22    1.77
   1  13   9   25.22    3.33
   2  13   9    0.56    2.26
  -2 -13  -9    0.71    0.75
  -3 -13  -9    1.19    0.78
   3  13   9    2.49    2.76
   4  13   9   -1.41    2.82
  -4 -13  -9    0.48    0.67
  -4  14   9    0.22    0.52
   4 -14  -9   -0.01    0.50
   3 -14  -9    1.87    0.73
  -3  14   9    0.26    0.51
   2 -14  -9    2.86    0.97
  -2  14   9    3.05    0.75
   1 -14  -9    4.43    1.10
  -1  14   9    4.18    0.78
   0 -14  -9   12.14    1.53
   0  14   9   11.11    1.08
   1  14   9    1.87    2.31
  -1 -14  -9    1.39    0.85
   2  14   9    1.81    2.50
  -2 -14  -9    1.32    0.85
   3  14   9    2.66    2.91
  -3 -14  -9    1.79    0.88
  -4 -14  -9   -0.04    0.70
   4  14   9   -2.32    2.87
   4 -15  -9    1.83    0.70
  -4  15   9    1.03    0.67
  -3  15   9    0.41    0.52
   3 -15  -9    0.62    0.69
  -2  15   9    4.58    0.84
   2 -15  -9    5.31    1.10
   1 -15  -9    4.14    1.09
  -1  15   9    4.07    0.79
   0  15   9   -0.07    0.51
   0 -15  -9    0.27    0.85
   1  15   9    6.28    2.73
  -1 -15  -9    5.13    1.15
   2  15   9    0.09    2.45
  -2 -15  -9    0.89    0.82
   3  15   9   -1.72    2.79
  -3 -15  -9    0.09    0.70
   3 -16  -9    3.26    0.89
  -3  16   9    4.52    0.86
   2 -16  -9    5.62    1.12
  -2  16   9    5.30    0.91
   1 -16  -9    0.22    0.79
  -1  16   9    0.12    0.50
   0 -16  -9    0.25    0.89
   1  16   9    9.47    2.99
  -1 -16  -9    4.95    1.13
   2  16   9    0.01    2.64
  -2 -16  -9    0.13    0.78
  -3 -16  -9    1.92    0.95
   3  16   9    2.40    3.19
   2 -17  -9    2.60    0.93
  -2  17   9    2.08    0.66
   1 -17  -9   -1.15    0.61
  -1  17   9   -0.56    0.44
   0 -17  -9   10.61    1.51
  -1 -17  -9    2.61    1.00
   2  17   9   -1.37    2.62
  -2 -17  -9   -0.08    0.76
   1 -18  -9    4.98    1.16
  -1  18   9    4.13    0.81
   0 -18  -9   -1.08    0.69
  -1 -18  -9    0.49    0.90
  -2 -17  10    1.08    0.88
  -1 -17  10    1.37    0.85
   1  17 -10    2.10    3.48
   0 -17  10    0.39    0.71
   0 -17  10    0.90    0.80
   0  17 -10    3.31    4.85
   1 -17  10   -0.31    0.68
   1 -17  10    0.55    0.60
  -1  17 -10   -0.52    4.28
   2  16 -10    1.27    2.51
  -2 -16  10    1.33    0.91
   1  16 -10    4.05    3.14
  -1 -16  10    5.24    1.09
   0 -16  10    2.86    0.87
   0  16 -10    0.36    4.48
   0 -16  10    3.70    0.92
   1 -16  10    1.44    0.75
   1 -16  10    2.53    0.88
  -1  16 -10   -0.34    4.86
   2 -16  10    0.57    0.77
  -2  16 -10    0.43    3.33
   3  15 -10   10.60    3.22
  -3 -15  10    5.44    1.14
  -2 -15  10    1.62    0.86
   2  15 -10    3.08    2.87
  -1 -15  10    3.79    1.00
   1  15 -10   -1.88    4.70
   0 -15  10   -0.45    0.58
   0  15 -10   -0.48    5.39
   0 -15  10    0.31    0.66
   1 -15  10    0.69    0.75
  -1  15 -10    0.50    5.62
   1 -15  10    0.19    0.63
  -2  15 -10   -3.65    3.38
   2 -15  10    2.43    0.93
  -3  15 -10   -4.15    3.53
   3 -15  10    0.20    0.75
  -4 -14  10    1.34    0.93
   4  14 -10    0.03    1.83
  -3 -14  10    8.89    1.32
   3  14 -10    8.49    2.86
   2  14 -10    9.28    3.47
  -2 -14  10   12.65    1.40
   1  14 -10   -5.28    3.59
  -1 -14  10    2.09    0.76
  -1 -14  10    2.52    0.87
   0 -14  10    1.24    0.72
   0 -14  10    0.29    0.63
   0  14 -10   -2.22    4.57
   1 -14  10    1.48    0.75
  -1  14 -10   -6.01    4.92
   1 -14  10    0.49    0.69
   2 -14  10   -0.05    0.73
  -2  14 -10   -0.70    4.40
   3 -14  10   -0.09    0.69
  -3  14 -10   -2.98    4.64
   4  13 -10   -0.75    1.54
  -4 -13  10   -0.70    0.74
  -3 -13  10    7.50    1.19
   3  13 -10    8.85    3.12
  -2 -13  10   -0.20    0.65
   2  13 -10   -3.48    3.22
   0 -13  10   -0.15    0.62
   0  13 -10   -3.97    5.05
   0 -13  10    0.40    0.60
   1 -13  10    0.72    0.68
  -1  13 -10   -2.19    4.42
   1 -13  10    0.90    0.67
   2 -13  10    7.47    1.11
  -2  13 -10    3.09    5.23
   3 -13  10    1.70    0.85
  -3  13 -10   -6.61    5.36
  -4  13 -10   -2.01    5.34
   4 -13  10    1.73    0.68
  -5 -12  10    1.81    0.95
  -4 -12  10    5.48    1.09
   4  12 -10    5.79    2.60
   3  12 -10    5.04    2.85
  -3 -12  10    3.64    0.95
  -2 -12  10    0.65    0.70
   2  12 -10    0.71    3.52
  -1 -12  10   13.50    1.22
  -1 -12  10   12.66    1.24
   0 -12  10   25.10    1.56
   0 -12  10   20.05    1.43
   1 -12  10    9.50    1.09
   1 -12  10   10.48    1.06
  -1  12 -10    1.17    4.65
   2 -12  10   17.22    1.48
  -2  12 -10    4.35    4.97
   3 -12  10   -0.25    0.56
  -3  12 -10   -1.88    4.82
  -4  12 -10   -4.34    5.64
   4 -12  10    0.35    0.58
  -5 -11  10   -0.13    0.70
   4  11 -10   -1.13    1.55
  -4 -11  10    0.27    0.73
  -3 -11  10   23.90    1.73
   3  11 -10   22.05    3.38
  -2 -11  10   18.75    1.46
  -2 -11  10   18.18    1.38
  -1 -11  10   10.60    1.15
  -1 -11  10   12.42    1.15
   1  11 -10    0.63    4.74
   0 -11  10    9.56    1.01
   0 -11  10    8.44    1.03
   0  11 -10    4.49    4.85
   1 -11  10    0.25    0.62
  -1  11 -10    1.19    4.54
  -2  11 -10    1.26    5.21
   2 -11  10    2.43    0.77
   3 -11  10    4.04    0.87
  -3  11 -10   -0.13    5.29
   4 -11  10    1.80    0.68
  -4  11 -10   -8.44    5.96
  -5 -10  10    1.46    0.78
   4  10 -10    3.71    2.07
  -4 -10  10    2.40    0.88
  -3 -10  10    6.16    1.00
  -2 -10  10    3.17    0.84
  -2 -10  10    2.66    0.70
   2  10 -10   -2.47    2.29
  -1 -10  10   32.22    1.71
  -1 -10  10   31.94    1.70
   0 -10  10   23.82    1.44
   0 -10  10   22.27    1.49
  -1  10 -10   -2.28    5.01
   1 -10  10    4.93    0.85
   2 -10  10    0.23    0.56
  -2  10 -10   -2.63    5.03
   3 -10  10    1.43    0.58
  -3  10 -10   -1.59    5.21
  -4  10 -10   -3.17    5.96
   5 -10  10    2.13    0.74
  -5  10 -10   -1.84    6.91
  -5  -9  10    0.52    0.79
   4   9 -10    7.81    2.72
  -4  -9  10    5.04    1.02
  -3  -9  10    2.85    0.79
   3   9 -10    2.14    2.18
  -2  -9  10    9.37    1.07
  -2  -9  10    8.51    0.94
  -1  -9  10   31.64    1.68
  -1  -9  10   29.45    1.65
   0  -9  10    1.01    0.57
   0   9 -10    2.70    4.02
   0  -9  10    1.41    0.62
  -1   9 -10    2.25    5.55
  -2   9 -10    1.64    5.73
   2  -9  10    0.66    0.61
   3  -9  10    1.94    0.67
  -3   9 -10   -5.81    5.79
  -4   9 -10   -4.10    5.82
   4  -9  10    0.74    0.54
   5  -9  10    3.12    0.81
  -5   9 -10   -1.93    5.68
  -6  -8  10    2.89    0.96
  -5  -8  10   21.06    1.65
   4   8 -10    4.84    2.38
  -4  -8  10    4.91    0.97
  -3  -8  10   33.07    1.79
  -3  -8  10   33.53    1.67
  -2  -8  10   35.60    1.71
  -2  -8  10   34.21    1.73
  -1  -8  10  197.84    4.90
  -1  -8  10  195.34    4.98
   0   8 -10    0.59    4.61
   3  -8  10    1.42    0.63
  -3   8 -10   -0.07    4.65
   4  -8  10    1.21    0.64
  -4   8 -10   -5.17    4.78
  -5   8 -10   -1.58    4.88
  -6  -7  10    0.89    0.76
   6   7 -10    1.12    0.90
   5   7 -10   -0.80    0.63
  -5  -7  10   -0.29    0.60
   4   7 -10    9.36    1.14
  -4  -7  10    6.87    1.01
   3   7 -10    0.07    1.90
  -3  -7  10   -0.02    0.48
  -3  -7  10    0.12    0.49
  -2  -7  10    6.24    0.85
   2   7 -10   -2.40    2.11
  -2  -7  10    5.56    0.81
  -1  -7  10    0.60    0.60
   1   7 -10    5.18    3.20
  -1  -7  10    0.82    0.65
   0  -7  10   36.17    1.76
  -1   7 -10   -2.72    4.44
  -2   7 -10   -1.12    4.89
   2  -7  10    1.97    0.61
  -3   7 -10   -3.10    4.60
   3  -7  10    4.39    0.84
   4  -7  10    0.17    0.48
  -4   7 -10   -7.59    4.84
   5  -7  10    1.04    0.65
  -5   7 -10    3.11    5.29
   6   6 -10   14.21    1.65
  -6  -6  10   15.99    1.52
   5   6 -10    3.13    0.94
  -5  -6  10    2.42    0.79
  -4  -6  10    4.67    0.82
   4   6 -10    4.76    0.93
   3   6 -10    2.22    0.70
  -3  -6  10    1.90    0.65
   3   6 -10   -1.58    2.00
  -3  -6  10    2.93    0.66
  -2  -6  10  192.23    4.71
  -2  -6  10  191.05    4.84
   2   6 -10  189.92    4.66
  -1  -6  10   37.75    1.61
  -1  -6  10   37.02    1.74
   0  -6  10    1.15    0.58
   0   6 -10   -2.49    4.27
   1  -6  10   -0.05    0.52
  -1   6 -10   -2.14    4.26
  -2   6 -10   -5.45    4.40
   2  -6  10    0.44    0.53
  -3   6 -10   -5.41    3.78
   4  -6  10    8.61    1.04
   5  -6  10    3.04    0.80
  -5   6 -10   -1.16    4.99
   6   5 -10    0.19    0.84
  -6  -5  10    0.25    0.60
  -5  -5  10   -0.22    0.55
   5   5 -10   -0.43    0.64
   4   5 -10   11.90    1.24
  -4  -5  10    9.82    1.03
  -3  -5  10   33.36    1.62
   3   5 -10   31.14    1.69
  -3  -5  10   31.61    1.57
   2   5 -10  162.09    4.16
  -2  -5  10  158.23    4.21
  -2  -5  10  159.60    4.02
   1   5 -10   57.89    2.03
  -1  -5  10   58.26    2.16
  -2   5 -10   -6.53    4.37
  -3   5 -10   -2.76    4.34
   4  -5  10    4.74    0.85
  -4   5 -10   -2.45    4.88
  -5   5 -10    4.82    4.78
   5  -5  10    1.51    0.68
  -6   5 -10   -4.46    4.50
  -6  -4  10    2.76    0.85
   6   4 -10    3.03    1.06
  -5  -4  10    4.42    0.89
   5   4 -10    4.63    1.03
   4   4 -10    1.68    0.74
  -4  -4  10    2.34    0.66
  -4  -4  10    1.44    0.58
  -3  -4  10    1.76    0.63
   3   4 -10    1.58    0.70
   3   4 -10   -1.63    1.47
  -3  -4  10    1.37    0.56
  -2  -4  10   64.75    2.11
   2   4 -10   64.06    2.32
  -2  -4  10   63.84    2.29
   1   4 -10   25.74    1.41
  -1  -4  10   24.99    1.41
   0  -4  10  268.34    6.22
   0   4 -10  267.64    5.97
  -1   4 -10   -4.45    3.17
   1  -4  10    3.92    0.68
   2  -4  10    3.14    0.68
  -5   4 -10    6.45    4.63
  -6   4 -10    1.60    5.26
  -6  -3  10   -0.43    0.57
   6   3 -10    0.20    0.79
   5   3 -10    0.31    0.72
  -5  -3  10   -0.16    0.50
   4   3 -10    6.26    1.03
  -4  -3  10    5.83    0.83
  -4  -3  10    5.66    0.81
  -3  -3  10   24.89    1.32
  -3  -3  10   26.92    1.48
   3   3 -10   26.31    1.61
  -2  -3  10    0.19    0.43
   2   3 -10    0.03    1.56
   2   3 -10    0.28    0.54
  -1  -3  10    1.09    0.50
   1   3 -10    0.74    0.61
   1   3 -10   -0.24    1.96
   0  -3  10   22.65    1.33
   0   3 -10   23.66    1.47
  -1   3 -10   -7.45    3.84
  -1   3 -10    4.53    0.86
  -3   3 -10   11.09    1.09
  -3   3 -10    1.51    4.33
   3  -3  10   10.68    1.06
   4  -3  10    4.32    0.77
  -5   3 -10    0.92    1.02
   5  -3  10    0.16    0.50
  -6   3 -10    0.08    0.86
   6   2 -10    3.95    1.10
  -6  -2  10    4.41    0.90
   5   2 -10   11.81    1.38
  -5  -2  10   11.58    1.16
  -4  -2  10    0.97    0.54
   4   2 -10    0.56    0.69
  -4  -2  10    0.95    0.55
   3   2 -10    4.26    0.92
  -3  -2  10    2.98    0.61
  -3  -2  10    3.02    0.66
   2   2 -10  159.48    4.21
  -2  -2  10  162.78    4.14
  -1  -2  10   86.30    2.69
   1   2 -10   81.96    2.70
   0   2 -10    2.09    0.76
   0   2 -10   -4.83    2.93
   0  -2  10    1.31    0.53
   2  -2  10    5.52    0.77
  -2   2 -10    5.54    0.88
  -2   2 -10   -3.45    3.56
  -3   2 -10   11.52    1.17
   3  -2  10   10.18    1.05
  -4   2 -10    0.21    0.59
   4  -2  10    0.08    0.43
   4  -2  10    0.86    1.93
   5  -2  10   13.93    1.19
   5  -2  10   17.99    3.39
   6  -2  10    0.37    1.98
  -6  -1  10    5.30    0.97
   6   1 -10    4.44    1.19
   5   1 -10   19.47    1.60
  -5  -1  10   20.13    1.41
  -5  -1  10   22.89    1.48
  -4  -1  10   11.90    1.11
   4   1 -10   13.66    1.36
  -4  -1  10   14.08    1.08
   3   1 -10   -0.91    0.57
  -3  -1  10    0.09    0.40
  -3  -1  10    0.34    0.50
   2   1 -10   31.41    1.67
   2   1 -10   28.44    4.40
  -2  -1  10   29.75    1.53
  -1  -1  10   94.81    2.85
   1   1 -10   98.75    3.05
   0  -1  10  185.11    4.59
   0   1 -10  181.18    4.63
   2  -1  10    7.70    2.56
   2  -1  10    6.19    0.78
  -2   1 -10    8.38    1.00
   3  -1  10    6.15    2.47
  -3   1 -10    3.43    0.81
   3  -1  10    4.45    0.79
   4  -1  10   16.00    2.95
  -4   1 -10    8.92    1.08
   4  -1  10    9.14    0.96
   5  -1  10    4.36    2.41
  -5   1 -10    2.14    0.82
   6  -1  10    0.49    1.87
   6   0 -10    4.34    1.13
  -6   0  10    2.31    0.73
  -5   0  10    0.17    0.58
  -5   0  10   -0.38    0.51
   5   0 -10    0.29    0.73
  -4   0  10   47.17    1.85
   4   0 -10   44.96    2.26
  -4   0  10   44.04    1.95
   3   0 -10   64.11    2.55
  -3   0  10   63.32    2.27
  -2   0  10  100.03    3.00
   2   0 -10  104.76    3.22
  -1   0  10    1.96    0.53
   1   0 -10   -3.16    2.12
   1   0 -10    3.30    0.81
   0   0 -10  161.67    4.28
   0   0  10  159.59    4.10
  -1   0 -10   97.94    3.11
   1   0  10  102.81    5.76
   1   0  10  105.81    3.05
   2   0  10  236.33    5.59
  -2   0 -10  225.69    5.56
   2   0  10  238.80   10.12
   3   0  10  223.10    5.49
  -3   0 -10  215.13    5.44
   3   0  10  234.39    9.97
   4   0  10    2.12    0.58
  -4   0 -10    2.90    0.76
   4   0  10    1.12    1.91
  -5   0 -10   -0.18    0.65
   5   0  10    0.11    2.13
  -6   0 -10    3.21    0.96
   6   0  10    7.07    2.55
   6  -1 -10    6.94    1.33
  -6   1  10    6.94    1.00
  -5   1  10   22.62    1.44
  -5   1  10   21.09    1.42
   5  -1 -10   20.28    1.70
  -4   1  10   11.65    1.12
   4  -1 -10   12.79    1.34
  -4   1  10   13.48    1.02
  -3   1  10    0.25    0.51
   3  -1 -10   -0.09    0.67
  -2   1  10   28.93    1.51
   2  -1 -10   29.65    1.74
   1  -1 -10   93.22    3.03
  -1   1  10   95.27    2.82
   0  -1 -10  173.76    4.58
   0   1  10  173.35    4.32
  -1  -1 -10   40.88    2.03
   1   1  10   49.16    1.87
   1   1  10   51.54    3.91
   2   1  10    9.02    2.48
   2   1  10    6.49    0.77
  -2  -1 -10    5.72    0.97
   3   1  10    4.24    0.72
   3   1  10    7.55    2.32
  -3  -1 -10    4.88    0.93
   4   1  10   12.49    2.77
   4   1  10    7.74    0.87
  -4  -1 -10    8.90    1.11
   5   1  10    5.45    2.46
  -5  -1 -10    3.41    0.90
  -6  -1 -10    0.85    0.79
   6   1  10   -1.37    1.95
  -6   2  10    4.65    0.86
   6  -2 -10    5.22    1.20
  -5   2  10   10.92    1.05
   5  -2 -10   12.59    1.48
  -5   2  10   13.22    1.20
   4  -2 -10    1.65    0.78
  -4   2  10    0.74    0.51
  -4   2  10    0.80    0.44
  -3   2  10    3.00    0.69
   3  -2 -10    1.80    0.82
   2  -2 -10  158.06    4.43
  -2   2  10  163.34    4.19
  -1   2  10   76.21    2.50
   1  -2 -10   80.27    2.82
   0   2  10    1.62    1.62
   0   2  10    1.08    0.49
   0  -2 -10    2.35    0.83
   1   2  10  111.51    3.16
  -1  -2 -10  107.94    3.35
   1   2  10  114.56    5.92
   2   2  10    8.29    2.28
  -2  -2 -10    5.74    0.98
   2   2  10    6.73    0.77
  -3  -2 -10   11.85    1.22
   3   2  10   14.36    2.65
   3   2  10   10.58    0.98
   4   2  10    0.78    0.44
   4   2  10    0.20    1.83
  -4  -2 -10    1.05    0.70
  -5  -2 -10   14.05    1.43
   5   2  10   14.54    2.77
   6   2  10   -1.18    2.01
  -6  -2 -10    0.35    0.82
   6  -3 -10    0.43    0.84
  -6   3  10    0.59    0.69
  -6   3  10    0.29    0.49
   5  -3 -10    1.32    0.83
  -5   3  10    0.12    0.46
  -5   3  10    0.89    0.61
  -4   3  10    4.49    0.79
   4  -3 -10    4.85    1.01
   3  -3 -10   23.76    1.64
  -3   3  10   22.85    1.36
   2  -3 -10    0.27    0.71
  -2   3  10   -0.32    0.45
   1  -3 -10   -0.11    1.62
   1  -3 -10    0.42    0.79
  -1   3  10    1.26    0.52
   0   3  10   19.93    2.86
   0   3  10   19.19    1.17
   0  -3 -10   21.55    1.57
   1   3  10    5.29    1.96
   1   3  10    4.42    0.66
  -1  -3 -10    4.48    0.93
   2   3  10   52.68    4.00
   2   3  10   47.67    1.91
  -2  -3 -10   50.57    2.21
  -3  -3 -10   11.73    1.22
   3   3  10   15.34    2.83
   3   3  10   11.31    0.97
   4   3  10    3.28    2.30
  -4  -3 -10    3.47    0.89
  -5  -3 -10    1.21    0.79
   5   3  10   -0.39    2.00
   6   3  10   -1.04    2.00
  -6  -3 -10    0.52    0.81
   6  -4 -10    2.57    0.91
  -6   4  10    2.47    0.83
  -6   4  10    3.08    0.76
  -5   4  10    4.01    0.72
   5  -4 -10    3.64    0.99
  -5   4  10    3.42    0.81
   4  -4 -10    2.60    0.88
  -4   4  10    1.44    0.62
  -3   4  10    0.81    0.57
   3  -4 -10    0.40    0.76
  -2   4  10   61.07    2.21
   2  -4 -10   57.89    2.48
   1  -4 -10   25.41    1.75
  -1   4  10   24.71    2.90
  -1   4  10   26.28    1.36
   0   4  10  257.74    5.86
   0   4  10  259.90   10.35
   0  -4 -10  247.39    6.20
   1   4  10    6.48    2.02
  -1  -4 -10    5.67    1.01
   1   4  10    4.70    0.67
   2   4  10    3.54    0.63
   2   4  10    4.80    2.08
  -2  -4 -10    2.90    0.87
  -3  -4 -10   37.67    1.94
   3   4  10   36.08    1.63
   3   4  10   37.94    3.59
  -4  -4 -10   36.97    2.03
   4   4  10   38.89    3.77
   5   4  10    1.02    2.11
  -5  -4 -10    0.54    0.76
  -6  -4 -10    0.62    0.87
   6   4  10    1.55    2.22
  -6   5  10    0.24    0.62
   6  -5 -10    0.94    0.71
  -6   5  10    0.93    0.53
   5  -5 -10   -0.07    0.59
  -5   5  10    0.78    0.62
  -4   5  10   10.53    1.08
   4  -5 -10    9.45    1.28
  -3   5  10   29.04    1.56
   3  -5 -10   30.57    1.88
  -2   5  10  147.50    3.96
   2  -5 -10  140.41    4.23
   1  -5 -10   51.88    2.39
  -1   5  10   55.18    2.07
  -1   5  10   54.94    3.72
   0   5  10   18.29    2.72
   0   5  10   19.62    1.23
   0  -5 -10   22.23    1.68
   1   5  10   97.34    2.89
  -1  -5 -10   99.45    3.29
   1   5  10   96.59    5.33
   2   5  10    8.30    0.83
   2   5  10   11.34    2.52
  -2  -5 -10    8.07    1.13
  -3  -5 -10    5.53    1.00
   3   5  10    5.74    2.29
   3   5  10    5.91    0.72
   4   5  10    5.78    2.48
  -4  -5 -10    5.87    1.08
   5   5  10    2.91    2.31
  -5  -5 -10    0.68    0.86
   6   5  10   -0.02    2.22
  -6  -5 -10   -0.56    0.77
  -6   6  10   13.03    1.33
   6  -6 -10   12.97    1.52
  -5   6  10    2.57    0.78
   5  -6 -10    3.85    0.96
   4  -6 -10    2.98    0.89
  -4   6  10    3.07    0.75
  -3   6  10    2.05    0.66
   3  -6 -10    1.47    0.74
  -2   6  10  179.47    4.58
   2  -6 -10  168.35    4.86
  -1   6  10   34.89    3.12
  -1   6  10   35.24    1.66
   1  -6 -10   35.00    2.07
   0   6  10    0.52    1.50
   0   6  10    1.16    0.51
   0  -6 -10   -0.03    0.78
  -1  -6 -10    0.17    0.74
   1   6  10    0.87    1.69
   1   6  10    0.33    0.44
   2   6  10    0.34    0.43
   2   6  10    0.20    1.77
  -2  -6 -10    1.01    0.74
  -3  -6 -10    3.73    0.93
   3   6  10    6.65    2.46
  -4  -6 -10    8.74    1.25
   4   6  10   10.62    2.90
  -5  -6 -10    3.24    1.01
   5   6  10    4.20    2.51
   6  -7 -10    0.42    0.66
  -6   7  10    0.41    0.71
   5  -7 -10   -0.06    0.60
  -5   7  10   -0.22    0.52
   4  -7 -10    8.55    1.18
  -4   7  10    8.39    1.01
   3  -7 -10   -0.33    0.56
  -3   7  10    0.51    0.53
  -2   7  10    5.34    0.77
   2  -7 -10    3.75    0.99
  -1   7  10    0.35    1.57
  -1   7  10    0.95    0.60
   1  -7 -10    0.87    0.86
   0   7  10   38.94    3.17
   0  -7 -10   38.62    2.17
   0   7  10   33.85    1.59
   1   7  10    9.48    2.42
  -1  -7 -10    8.62    1.26
   1   7  10   11.06    0.96
   2   7  10    1.93    1.94
   2   7  10    0.91    0.47
  -2  -7 -10    1.87    0.80
  -3  -7 -10    3.23    0.91
   3   7  10    0.58    2.11
  -4  -7 -10    0.51    0.75
   4   7  10    0.31    2.09
  -5  -7 -10    1.13    0.91
   5   7  10    1.94    2.42
   5  -8 -10   19.61    1.59
  -5   8  10   17.95    1.49
   4  -8 -10    3.73    0.94
  -4   8  10    5.17    0.91
   3  -8 -10   32.48    1.94
  -3   8  10   33.60    1.73
  -2   8  10   32.47    1.65
   2  -8 -10   32.51    1.96
  -1   8  10  182.56    4.72
   1  -8 -10  182.42    5.13
   0   8  10    4.42    0.73
   0   8  10    6.77    1.90
   0  -8 -10    5.71    1.11
   1   8  10   26.43    1.37
  -1  -8 -10   25.05    1.76
   1   8  10   24.99    3.04
  -2  -8 -10   37.20    2.08
   2   8  10   41.49    3.67
   2   8  10   40.26    1.69
  -3  -8 -10   -0.29    0.67
   3   8  10   -1.38    2.01
  -4  -8 -10    0.27    0.80
   4   8  10    2.56    2.39
  -5  -8 -10    5.57    1.28
   5   8  10   10.09    3.14
  -5   9  10    1.65    0.76
   5  -9 -10    1.46    0.71
  -4   9  10    5.75    0.93
   4  -9 -10    6.14    1.06
   3  -9 -10    2.24    0.83
  -3   9  10    3.02    0.72
  -2   9  10    7.00    0.86
   2  -9 -10    5.90    1.10
  -1   9  10   28.56    1.57
   1  -9 -10   28.71    1.92
   0   9  10    0.72    1.65
   0  -9 -10    1.26    0.84
   0   9  10    2.44    0.60
  -1  -9 -10   27.61    1.78
   1   9  10   30.35    1.49
   1   9  10   27.27    3.09
   2   9  10   -1.20    1.91
  -2  -9 -10    0.64    0.69
   2   9  10    0.10    0.38
   3   9  10   -0.15    2.13
  -3  -9 -10    0.43    0.79
  -4  -9 -10    0.29    0.82
   4   9  10    0.61    2.52
   5   9  10    0.64    2.40
  -5  -9 -10    0.81    0.97
   5 -10 -10    1.14    0.69
  -5  10  10    1.63    0.76
  -4  10  10    4.03    0.89
   4 -10 -10    2.73    0.88
  -3  10  10    5.87    0.90
   3 -10 -10    6.05    1.08
   2 -10 -10    3.88    1.01
  -2  10  10    2.25    0.65
  -1  10  10   31.16    1.64
   1 -10 -10   30.67    1.97
   0  10  10   19.15    2.85
   0 -10 -10   21.10    1.70
   0  10  10   19.32    1.30
  -1 -10 -10    4.67    1.03
   1  10  10    3.94    0.68
   1  10  10    6.99    2.28
  -2 -10 -10    0.76    0.73
   2  10  10   -0.47    1.95
   3  10  10    0.56    2.25
  -3 -10 -10    0.86    0.76
  -4 -10 -10   11.13    1.51
   4  10  10   13.80    3.59
   5  10  10    4.20    2.64
  -5 -10 -10    1.05    1.01
   5 -11 -10    1.36    0.67
  -5  11  10    1.12    0.70
   4 -11 -10    0.06    0.62
  -4  11  10    1.31    0.71
   3 -11 -10   21.41    1.67
  -3  11  10   21.52    1.46
   2 -11 -10   15.30    1.54
  -2  11  10   17.95    1.28
  -1  11  10   11.24    1.09
   1 -11 -10   11.60    1.41
   0  11  10   10.99    2.50
   0  11  10    9.46    0.99
   0 -11 -10    7.20    1.24
   1  11  10   -0.89    1.75
   1  11  10    0.11    0.43
  -1 -11 -10    0.39    0.74
  -2 -11 -10    3.13    0.94
   2  11  10    1.76    2.25
   3  11  10    3.76    2.63
  -3 -11 -10    5.28    1.06
   4  11  10    0.35    2.68
  -4 -11 -10    0.91    0.81
  -4  12  10    4.34    0.94
   4 -12 -10    5.92    1.04
   3 -12 -10    3.54    0.95
  -3  12  10    3.52    0.80
   2 -12 -10    0.34    0.75
  -2  12  10    0.48    0.54
  -1  12  10   10.00    1.02
   1 -12 -10   12.84    1.53
   0 -12 -10   21.07    1.83
   0  12  10   21.13    1.39
  -1 -12 -10    9.99    1.34
   1  12  10    9.10    0.96
   1  12  10    8.10    2.59
   2  12  10   17.51    3.33
  -2 -12 -10   14.41    1.50
   3  12  10   -1.44    2.36
  -3 -12 -10   -0.34    0.61
   4  12  10    1.26    2.86
  -4 -12 -10    0.36    0.71
  -4  13  10    1.05    0.64
   4 -13 -10    0.10    0.54
  -3  13  10    7.58    0.99
   3 -13 -10    8.83    1.25
  -2  13  10    0.58    0.55
   2 -13 -10    0.86    0.81
   1 -13 -10   17.27    1.71
  -1  13  10   20.95    1.39
   0 -13 -10    0.61    0.85
   0  13  10    0.46    0.50
   1  13  10   -0.66    2.00
  -1 -13 -10    0.46    0.77
   2  13  10    7.45    2.84
  -2 -13 -10    7.76    1.24
  -3 -13 -10    0.91    0.74
   3  13  10    0.88    2.65
  -4 -13 -10    2.22    1.00
   4  13  10    2.73    3.11
   4 -14 -10    0.36    0.61
  -4  14  10    0.29    0.52
  -3  14  10    6.38    0.96
   3 -14 -10    7.06    1.17
  -2  14  10   12.04    1.19
   2 -14 -10   13.83    1.55
   1 -14 -10    1.89    0.92
  -1  14  10    2.72    0.72
   0 -14 -10    1.68    0.99
   0  14  10    1.20    0.59
   1  14  10    0.28    2.18
  -1 -14 -10    0.71    0.84
  -2 -14 -10    0.49    0.77
   2  14  10   -1.85    2.21
   3  14  10   -3.53    2.47
  -3 -14 -10   -0.94    0.64
   3 -15 -10    5.51    1.05
  -3  15  10    6.83    0.99
  -2  15  10    1.25    0.66
   2 -15 -10    1.90    0.91
   1 -15 -10    5.50    1.20
  -1  15  10    4.73    0.87
   0 -15 -10    0.56    0.90
   0  15  10    0.23    0.52
   1  15  10   -1.52    2.13
  -1 -15 -10    0.51    0.83
  -2 -15 -10    1.61    0.92
   2  15  10    0.79    2.71
   3  15  10   -2.57    2.55
  -3 -15 -10   -0.03    0.78
  -2  16  10    2.66    0.75
   2 -16 -10    0.98    0.82
  -1  16  10    5.48    0.89
   1 -16 -10    3.57    1.13
   0 -16 -10    2.59    1.06
  -1 -16 -10    1.69    0.96
   2  16  10   -0.92    2.70
  -2 -16 -10    0.09    0.77
  -1  17  10    2.30    0.72
   1 -17 -10    2.08    0.97
   0 -17 -10    0.99    0.94
  -1 -17 -10   -1.67    0.69
  -1 -16  11    0.57    0.71
   1  16 -11   -2.23    4.12
   0  16 -11    0.42    5.03
   0 -16  11    1.25    0.82
   1 -16  11   -0.19    0.72
   2  15 -11    3.04    2.91
  -2 -15  11    1.54    0.87
   1  15 -11   -2.55    4.23
  -1 -15  11    2.57    0.83
   0  15 -11   -1.42    4.67
   0 -15  11    3.15    0.91
   1 -15  11    0.89    0.76
  -1  15 -11   -2.35    5.85
  -2  15 -11   -2.55    4.48
   2 -15  11   -0.23    0.78
  -3 -14  11    1.67    0.91
   3  14 -11    1.76    2.31
   2  14 -11    0.68    2.84
  -2 -14  11   -0.77    0.71
  -1 -14  11    0.66    0.71
   1  14 -11   -2.27    3.76
  -1 -14  11    0.67    0.73
   0  14 -11   -1.23    5.83
  -1  14 -11   -1.62    5.78
   1 -14  11    0.12    0.69
   2 -14  11    1.53    0.87
  -2  14 -11   -1.45    4.23
   3 -14  11   -0.03    0.72
  -4 -13  11    4.98    1.14
   3  13 -11    0.63    2.44
  -3 -13  11    2.91    0.96
  -2 -13  11    6.64    1.09
   2  13 -11   -1.42    3.00
  -1 -13  11   -0.45    0.56
   1  13 -11   -0.27    4.02
  -1 -13  11    0.20    0.69
   0  13 -11   -3.99    4.96
   0 -13  11    1.06    0.66
   1 -13  11   10.62    1.28
  -1  13 -11   -1.27    5.24
  -2  13 -11   -1.13    5.54
   2 -13  11    7.92    1.18
  -3  13 -11   -5.73    5.12
   3 -13  11   -0.32    0.71
  -4 -12  11   -0.55    0.68
   4  12 -11   -0.88    1.65
   3  12 -11   12.54    3.53
  -3 -12  11    7.77    1.23
  -2 -12  11    1.82    0.88
   2  12 -11    1.30    2.96
   1  12 -11   -4.02    3.87
  -1 -12  11    0.71    0.63
   0  12 -11   -6.25    4.22
   0 -12  11   -0.11    0.57
  -1  12 -11    3.38    5.80
   1 -12  11    2.95    0.89
   2 -12  11    4.75    1.04
  -2  12 -11    3.38    5.44
  -3  12 -11   -5.03    5.78
   3 -12  11    0.36    0.71
   4 -12  11    0.05    0.62
  -4 -11  11   14.43    1.49
   4  11 -11   16.74    3.15
  -3 -11  11    7.61    1.13
   3  11 -11    4.39    2.41
  -2 -11  11    0.65    0.61
   2  11 -11   -2.37    3.39
  -2 -11  11    0.03    0.63
   1  11 -11   -0.12    4.12
  -1 -11  11    7.72    1.01
   0  11 -11   -7.23    4.03
   0 -11  11    0.72    0.64
  -1  11 -11   -1.66    4.78
  -2  11 -11   -2.32    5.19
   2 -11  11    3.26    0.86
   3 -11  11    5.65    0.99
  -3  11 -11    1.84    6.31
   4 -11  11    0.83    0.57
  -4  11 -11   -2.81    6.15
  -5 -10  11   -0.49    0.65
  -4 -10  11    2.94    0.89
   4  10 -11    3.58    2.25
   3  10 -11   -0.44    1.82
  -3 -10  11    0.14    0.73
  -2 -10  11    4.35    0.84
  -2 -10  11    4.41    0.88
   2  10 -11   -1.58    2.79
  -1 -10  11    2.43    0.76
   1  10 -11   -3.98    4.05
   0  10 -11   -2.53    4.82
  -1  10 -11   -4.29    4.62
   1 -10  11    1.26    0.69
  -2  10 -11   -4.52    5.82
  -3  10 -11   -1.25    5.66
   3 -10  11    0.96    0.53
  -4  10 -11   -3.80    6.52
   4 -10  11    0.90    0.62
  -5  -9  11    1.01    0.80
  -4  -9  11    4.11    0.94
   4   9 -11    4.47    2.54
   3   9 -11   -1.20    2.17
  -3  -9  11    2.83    0.80
  -1  -9  11    2.95    0.76
   1   9 -11   -3.35    3.87
   0   9 -11   -2.34    3.83
  -1   9 -11   -7.49    5.65
  -2   9 -11    8.87    6.24
   2  -9  11   11.48    1.22
   3  -9  11   -0.08    0.49
  -3   9 -11   -5.06    6.02
  -4   9 -11   -3.57    6.45
  -5  -8  11    7.62    1.19
  -4  -8  11    1.89    0.81
  -3  -8  11    0.41    0.63
  -3  -8  11    0.25    0.58
   3   8 -11   -0.59    1.85
   2   8 -11   -1.16    2.32
  -2  -8  11    0.23    0.53
   1   8 -11   -3.46    3.66
  -1  -8  11    0.81    0.58
   0   8 -11   -0.79    4.15
   0  -8  11    1.54    0.64
  -1   8 -11   -1.53    5.92
   2  -8  11   13.14    1.20
  -2   8 -11    4.80    6.29
   3  -8  11    0.38    0.53
  -3   8 -11   -7.15    5.38
   4  -8  11    2.19    0.73
  -4   8 -11   -0.53    5.17
  -5   8 -11   -3.67    5.32
   5  -8  11    1.33    0.60
  -5  -7  11    0.51    0.67
  -4  -7  11   52.21    2.32
  -3  -7  11   36.22    1.85
  -3  -7  11   38.49    1.91
  -2  -7  11    0.63    0.54
   2   7 -11   -1.01    1.96
   0  -7  11    1.09    0.64
   0   7 -11   -1.64    4.59
  -2   7 -11   -2.35    5.48
   2  -7  11    5.62    0.90
   3  -7  11    9.03    1.12
  -4   7 -11   -5.23    5.18
   4  -7  11    1.32    0.63
  -5   7 -11   -4.51    5.26
   5  -7  11    0.21    0.50
  -5  -6  11    1.40    0.79
   5   6 -11    3.03    0.99
  -4  -6  11    8.42    1.08
   4   6 -11    9.56    1.21
   3   6 -11   -0.28    1.76
   3   6 -11    4.59    0.90
  -3  -6  11    3.88    0.77
   2   6 -11   -1.83    2.17
  -2  -6  11    1.39    0.64
   1   6 -11    5.28    3.41
  -1   6 -11   -1.07    4.40
  -2   6 -11   -5.82    5.06
  -3   6 -11   -2.22    4.74
  -4   6 -11   -7.44    5.23
   5  -6  11    2.66    0.73
  -5   6 -11   -3.92    5.51
  -6  -5  11    1.97    0.82
   6   5 -11    0.86    0.91
   5   5 -11    2.40    0.95
  -5  -5  11    2.64    0.83
  -4  -5  11   11.70    1.17
   4   5 -11   13.85    1.34
   3   5 -11   -0.08    0.56
  -3  -5  11    0.14    0.54
   3   5 -11   -0.86    1.79
  -2  -5  11  166.70    4.46
   2   5 -11  165.69    4.36
   1   5 -11   22.29    1.37
  -1  -5  11   22.13    1.43
   0   5 -11    5.20    4.27
   1  -5  11   -0.01    0.50
  -1   5 -11   -4.29    3.79
   3  -5  11   -0.04    0.40
  -3   5 -11   -3.86    4.61
  -4   5 -11   -1.55    5.62
   5  -5  11    1.67    0.63
  -5   5 -11   -0.14    5.02
  -6  -4  11    1.47    0.74
   6   4 -11    1.10    0.96
   5   4 -11   17.66    1.60
  -5  -4  11   17.83    1.46
   4   4 -11    1.61    0.79
  -4  -4  11    1.07    0.62
  -4  -4  11    0.63    0.59
  -3  -4  11   41.07    1.92
   3   4 -11   38.46    1.95
   2   4 -11  115.71    3.41
  -2  -4  11  109.59    3.36
   1   4 -11   23.45    1.43
  -1  -4  11   24.59    1.48
   0  -4  11   44.69    1.99
   0   4 -11   45.58    1.95
  -3   4 -11   -6.85    4.41
   3  -4  11    0.08    0.47
   4  -4  11   11.26    1.22
  -4   4 -11    6.56    4.88
  -5   4 -11    3.65    5.06
   5  -4  11    2.66    0.73
   6   3 -11   -0.14    0.83
  -6  -3  11   -0.97    0.55
   5   3 -11    0.24    0.73
  -5  -3  11   -0.19    0.59
  -4  -3  11   26.68    1.59
   4   3 -11   21.32    1.63
   3   3 -11   31.29    1.82
  -3  -3  11   32.57    1.71
   2   3 -11    7.74    1.02
  -2  -3  11    7.86    0.94
   1   3 -11   28.80    1.63
  -1  -3  11   26.64    1.48
   0  -3  11    1.82    0.60
   0   3 -11    2.11    0.78
   0   3 -11    1.11    2.84
  -1   3 -11    7.12    3.95
  -1   3 -11    2.92    0.80
   1  -3  11    0.56    0.49
  -2   3 -11   32.75    1.76
   2  -3  11   34.33    1.75
  -3   3 -11   -1.61    4.71
   4  -3  11    6.91    0.95
  -4   3 -11   14.02    4.95
  -5   3 -11   10.05    4.97
  -6  -2  11    0.78    0.62
   6   2 -11    1.26    0.93
   5   2 -11    4.26    1.02
  -5  -2  11    5.63    0.86
  -4  -2  11   -0.09    0.52
   4   2 -11   -0.55    0.62
   3   2 -11    1.71    0.81
  -3  -2  11    1.87    0.67
  -2  -2  11    3.49    0.68
   2   2 -11    3.72    0.85
   2   2 -11   -0.16    1.75
   1   2 -11   11.22    1.19
  -1  -2  11   10.83    1.07
   0  -2  11   10.30    1.06
   0   2 -11   12.50    1.23
  -1   2 -11    0.69    0.68
   1  -2  11    1.18    0.49
  -1   2 -11   -0.36    3.59
  -2   2 -11    8.83    1.11
   2  -2  11    9.80    0.99
  -2   2 -11   -3.24    3.89
  -3   2 -11    0.96    1.55
  -3   2 -11    0.87    0.68
   3  -2  11   -0.04    0.51
   4  -2  11   -0.68    0.40
   5  -2  11   -0.04    0.47
  -6  -1  11    0.05    0.58
   6   1 -11   -0.12    0.87
  -5  -1  11    8.25    1.05
   5   1 -11    9.01    1.31
   4   1 -11    9.18    1.25
  -4  -1  11    8.66    1.00
   3   1 -11  178.42    4.81
  -3  -1  11  163.57    4.48
  -2  -1  11   70.54    2.44
   2   1 -11   67.10    2.54
   2   1 -11   51.85    5.51
   1   1 -11   10.98    1.24
  -1  -1  11   11.88    1.10
   0  -1  11   11.22    1.01
   0   1 -11   13.15    1.37
   1  -1  11    5.94    0.75
  -1   1 -11    4.57    0.97
  -2   1 -11    7.01    1.05
   2  -1  11    5.91    0.80
   3  -1  11   60.51    4.50
   3  -1  11   49.30    2.15
  -3   1 -11   52.76    2.27
  -4   1 -11   -0.15    0.62
   4  -1  11    0.02    0.47
   4  -1  11   -0.23    1.89
   5  -1  11   -0.77    2.00
   6   0 -11   -0.03    0.86
   5   0 -11   -0.06    0.74
  -5   0  11   -0.14    0.55
  -4   0  11    0.15    0.55
   4   0 -11   -0.62    0.60
  -3   0  11   -0.51    0.44
   3   0 -11    0.59    0.72
  -2   0  11    0.05    0.51
   2   0 -11    0.48    1.74
   2   0 -11    0.12    0.67
  -1   0  11   -0.02    0.47
   1   0 -11   -0.80    2.42
   1   0 -11   -0.53    0.66
   0   0 -11    0.89    0.77
   0   0 -11   -3.26    2.71
   0   0  11   -0.09    0.35
   1   0  11    0.07    0.38
  -1   0 -11   -3.44    2.08
  -1   0 -11   -0.10    0.68
   2   0  11   -2.20    1.78
   2   0  11   -0.25    0.34
  -2   0 -11   -1.00    0.60
   3   0  11   -0.60    0.47
  -3   0 -11    0.87    0.72
   3   0  11    1.71    1.96
  -4   0 -11   -0.25    0.64
   4   0  11   -0.35    0.39
   4   0  11   -2.76    1.75
  -5   0 -11    0.35    0.75
   5   0  11   -1.82    1.95
   6  -1 -11    0.64    0.92
  -5   1  11    8.48    1.05
   5  -1 -11    8.77    1.32
  -4   1  11    8.44    0.99
   4  -1 -11    9.31    1.28
   3  -1 -11  166.97    4.66
  -3   1  11  157.42    4.32
  -2   1  11   66.58    2.41
   2  -1 -11   67.92    2.64
   1  -1 -11    9.60    1.21
   0   1  11   12.31    1.00
   0  -1 -11   12.92    1.34
   1   1  11    6.83    2.19
  -1  -1 -11    5.93    1.02
   1   1  11    4.70    0.71
   2   1  11    7.35    0.84
   2   1  11    5.31    2.43
  -2  -1 -11    6.53    1.08
  -3  -1 -11   50.28    2.31
   3   1  11   52.82    2.15
   3   1  11   54.30    4.29
  -4  -1 -11    0.17    0.69
   4   1  11   -0.24    0.40
   4   1  11   -2.42    1.98
   5   1  11   -1.96    2.03
  -5  -1 -11   -0.21    0.71
   6  -2 -11    0.83    0.94
   5  -2 -11    5.38    1.16
  -5   2  11    6.08    0.95
   4  -2 -11   -0.64    0.66
  -4   2  11    0.04    0.53
  -3   2  11    3.18    0.74
   3  -2 -11    1.76    0.86
   2  -2 -11    3.82    0.97
  -2   2  11    3.10    0.66
   1  -2 -11    7.76    1.16
  -1   2  11    7.97    0.90
   0  -2 -11   12.21    1.35
   0   2  11    9.29    0.94
   1   2  11   -1.15    1.64
  -1  -2 -11    0.07    0.74
   1   2  11    0.68    0.50
  -2  -2 -11    8.85    1.18
   2   2  11    9.48    0.95
   2   2  11   11.56    2.79
  -3  -2 -11    0.91    0.74
   3   2  11    0.26    0.46
   3   2  11    1.86    2.00
  -4  -2 -11    0.19    0.69
   4   2  11   -2.93    1.89
   4   2  11   -0.07    0.42
   5   2  11   -2.52    1.95
  -5  -2 -11    0.06    0.77
   6  -3 -11   -0.66    0.75
  -6   3  11    1.85    0.79
   5  -3 -11    1.42    0.87
  -5   3  11    0.26    0.61
   4  -3 -11   25.15    1.85
  -4   3  11   23.50    1.52
   3  -3 -11   31.38    1.94
  -3   3  11   29.73    1.61
   2  -3 -11    9.58    1.25
  -2   3  11    6.16    0.84
   1  -3 -11   26.19    1.79
  -1   3  11   26.50    1.45
   0  -3 -11    3.21    0.99
   0   3  11    1.94    0.57
   0   3  11    2.18    1.77
  -1  -3 -11    0.47    0.77
   1   3  11    0.04    1.89
   1   3  11    0.98    0.55
   2   3  11   34.83    3.60
   2   3  11   33.54    1.66
  -2  -3 -11   31.44    1.91
  -3  -3 -11   23.15    1.66
   3   3  11   23.50    1.39
   3   3  11   26.49    3.27
   4   3  11    4.28    2.63
  -4  -3 -11    7.47    1.18
   5   3  11   -3.05    1.94
  -5  -3 -11    0.11    0.81
  -6   4  11    1.88    0.80
   6  -4 -11    0.08    0.86
  -5   4  11   13.91    1.33
   5  -4 -11   15.89    1.68
   4  -4 -11    0.23    0.79
  -4   4  11    1.16    0.64
  -3   4  11   36.38    1.77
   3  -4 -11   36.01    2.05
   2  -4 -11  112.20    3.67
  -2   4  11  105.52    3.31
   1  -4 -11   20.50    1.67
  -1   4  11   21.37    1.30
   0  -4 -11   44.20    2.24
   0   4  11   41.72    1.83
   0   4  11   45.25    3.77
   1   4  11  163.16    7.63
  -1  -4 -11  161.38    4.62
   1   4  11  163.13    4.26
   2   4  11   39.90    1.80
  -2  -4 -11   37.71    2.09
   2   4  11   45.44    3.88
   3   4  11    0.25    0.45
   3   4  11   -0.08    1.94
  -3  -4 -11   -0.25    0.67
   4   4  11   13.48    3.13
  -4  -4 -11    8.33    1.26
  -5  -4 -11    4.39    1.11
   5   4  11    5.11    2.72
  -6   5  11    1.34    0.79
   6  -5 -11    0.69    0.73
   5  -5 -11    2.23    1.00
  -5   5  11    2.14    0.78
   4  -5 -11   11.09    1.41
  -4   5  11   11.37    1.12
   3  -5 -11    0.25    0.72
  -3   5  11    0.10    0.48
  -2   5  11  148.41    4.12
   2  -5 -11  147.34    4.44
  -1   5  11   19.70    1.26
   1  -5 -11   17.28    1.60
  -1   5  11   20.15    2.80
   0   5  11   -0.04    1.69
   0   5  11    1.71    0.59
   0  -5 -11    0.31    0.84
  -1  -5 -11    0.11    0.78
   1   5  11    1.13    1.71
   1   5  11    0.33    0.45
   2   5  11   47.51    1.98
   2   5  11   54.86    4.16
  -2  -5 -11   50.28    2.41
   3   5  11    0.31    0.43
   3   5  11   -1.15    1.90
  -3  -5 -11   -0.19    0.64
   4   5  11   19.33    3.07
  -4  -5 -11   16.59    1.60
  -5  -5 -11    0.21    0.86
   5   5  11   -0.58    2.36
   5  -6 -11    1.74    0.83
  -5   6  11    1.86    0.78
   4  -6 -11    6.30    1.10
  -4   6  11    7.17    1.03
   3  -6 -11    4.10    1.03
  -3   6  11    3.63    0.79
  -2   6  11    1.70    0.57
   2  -6 -11    1.77    0.88
   1  -6 -11   17.06    1.60
  -1   6  11   16.29    2.85
  -1   6  11   18.67    1.31
   0   6  11  112.79    5.74
   0  -6 -11  109.54    3.69
   0   6  11  104.83    3.20
   1   6  11   15.67    2.70
  -1  -6 -11   11.99    1.39
   1   6  11   12.03    1.02
   2   6  11    7.79    0.85
  -2  -6 -11    7.93    1.23
   2   6  11   11.67    2.71
  -3  -6 -11   11.90    1.41
   3   6  11   17.06    3.11
   4   6  11   11.11    2.84
  -4  -6 -11    7.92    1.31
  -5  -6 -11    1.76    0.95
   5   6  11    1.45    2.57
   5  -7 -11    0.63    0.60
  -5   7  11    0.73    0.72
  -4   7  11   45.80    2.21
   4  -7 -11   45.58    2.37
   3  -7 -11   33.48    2.01
  -3   7  11   32.11    1.79
   2  -7 -11    0.87    0.83
  -2   7  11    0.58    0.47
   1  -7 -11   63.80    2.76
  -1   7  11   60.96    2.33
   0   7  11    2.88    1.76
   0   7  11    0.79    0.50
   0  -7 -11    1.19    0.90
   1   7  11   44.84    3.67
   1   7  11   42.84    1.85
  -1  -7 -11   41.24    2.26
  -2  -7 -11    6.95    1.20
   2   7  11    4.82    0.72
   2   7  11    7.92    2.51
   3   7  11   10.89    2.87
  -3  -7 -11    6.86    1.21
   4   7  11   -1.18    2.29
  -4  -7 -11    0.59    0.88
  -5  -7 -11    0.85    0.94
   5   7  11   -0.08    2.50
   5  -8 -11   10.61    1.35
  -5   8  11    9.35    1.14
  -4   8  11    2.48    0.81
   4  -8 -11    1.89    0.81
  -3   8  11    0.20    0.57
   3  -8 -11   -0.47    0.61
  -2   8  11    0.74    0.54
   2  -8 -11    0.25    0.70
   1  -8 -11    1.21    0.81
  -1   8  11    0.95    0.52
   0   8  11    1.33    0.57
   0  -8 -11    0.82    0.85
   0   8  11    0.09    1.62
  -1  -8 -11   18.21    1.68
   1   8  11   18.90    2.79
   1   8  11   16.30    1.19
   2   8  11   12.36    1.05
   2   8  11   15.29    2.99
  -2  -8 -11   12.42    1.46
   3   8  11   -1.17    2.17
  -3  -8 -11    0.39    0.81
  -4  -8 -11    0.75    0.95
   4   8  11    1.19    2.63
  -5  -8 -11    0.61    0.99
   5   8  11   -0.83    2.32
  -5   9  11    1.49    0.73
   5  -9 -11    1.68    0.77
   4  -9 -11    6.04    1.06
  -4   9  11    3.57    0.82
   3  -9 -11    2.55    0.87
  -3   9  11    2.09    0.71
   2  -9 -11   15.52    1.54
  -2   9  11   17.65    1.34
  -1   9  11    3.15    0.72
   1  -9 -11    4.36    1.06
   0  -9 -11   16.93    1.60
   0   9  11   17.48    2.74
   0   9  11   16.22    1.21
  -1  -9 -11   10.79    1.41
   1   9  11   13.10    1.09
   1   9  11   14.40    2.70
   2   9  11   12.40    1.05
  -2  -9 -11   11.06    1.44
   2   9  11   14.42    3.03
   3   9  11   -1.06    2.21
  -3  -9 -11   -0.49    0.77
  -4  -9 -11    4.41    1.24
   4   9  11    2.67    2.95
  -5  10  11    0.42    0.73
   5 -10 -11    1.73    0.79
  -4  10  11    4.05    0.92
   4 -10 -11    5.09    0.99
  -3  10  11    0.37    0.54
   3 -10 -11    0.38    0.72
   2 -10 -11    3.58    1.04
  -2  10  11    3.40    0.74
   1 -10 -11    2.32    0.95
  -1  10  11    2.27    0.67
   0  10  11    6.62    0.87
   0 -10 -11    6.99    1.23
   0  10  11    7.27    2.21
   1  10  11    2.77    0.63
  -1 -10 -11    1.74    0.89
   1  10  11    1.19    2.02
   2  10  11    4.24    2.48
  -2 -10 -11    4.93    1.07
   3  10  11   -0.26    2.35
  -3 -10 -11   -0.63    0.84
   4  10  11   -1.20    2.69
  -4 -10 -11   -0.84    0.81
   4 -11 -11   15.66    1.48
  -4  11  11   16.32    1.41
   3 -11 -11    6.43    1.13
  -3  11  11    5.30    0.91
  -2  11  11    0.51    0.57
   2 -11 -11    0.76    0.81
  -1  11  11    6.13    0.91
   1 -11 -11    7.97    1.30
   0 -11 -11    0.24    0.83
   0  11  11    1.46    0.58
   1  11  11   10.04    1.01
   1  11  11    9.61    2.66
  -1 -11 -11    9.10    1.36
  -2 -11 -11    1.67    0.89
   2  11  11    2.73    2.36
   3  11  11    5.77    2.87
  -3 -11 -11    4.56    1.07
  -4 -11 -11   -0.78    0.71
   4  11  11   -0.52    2.76
   4 -12 -11    0.67    0.60
  -4  12  11    0.47    0.71
   3 -12 -11   10.55    1.35
  -3  12  11    9.49    1.11
  -2  12  11    1.10    0.62
   2 -12 -11    0.15    0.80
  -1  12  11    0.86    0.58
   1 -12 -11   -0.28    0.79
   0 -12 -11   -0.91    0.77
   0  12  11   -0.80    0.42
   1  12  11    3.04    2.30
   1  12  11    3.16    0.72
  -1 -12 -11    1.89    0.93
   2  12  11    4.39    2.57
  -2 -12 -11    5.12    1.12
  -3 -12 -11   -0.48    0.66
   3  12  11   -0.83    2.41
  -4 -12 -11    0.89    0.87
   4  12  11   -0.95    2.83
   4 -13 -11    6.05    1.09
  -4  13  11    4.15    0.93
  -3  13  11    1.99    0.70
   3 -13 -11    3.86    0.97
  -2  13  11    6.31    0.96
   2 -13 -11    7.12    1.30
  -1  13  11    0.12    0.53
   1 -13 -11    0.70    0.85
   0 -13 -11    0.77    0.93
   0  13  11    0.21    0.53
   1  13  11   11.67    2.86
  -1 -13 -11    9.16    1.42
   2  13  11    9.43    3.00
  -2 -13 -11    7.13    1.25
  -3 -13 -11   -0.39    0.69
   3  13  11   -1.19    2.45
  -3  14  11    2.08    0.72
   3 -14 -11    3.11    0.95
  -2  14  11    0.93    0.58
   2 -14 -11   -0.21    0.75
   1 -14 -11    1.48    0.99
  -1  14  11    0.59    0.62
   0  14  11    8.75    1.05
   0 -14 -11    5.58    1.26
   1  14  11    0.76    2.19
  -1 -14 -11   -0.62    0.70
  -2 -14 -11    2.00    0.97
   2  14  11    3.09    2.71
   3  14  11   -0.59    2.59
  -3 -14 -11   -0.42    0.83
  -2  15  11    1.71    0.70
   2 -15 -11    0.98    0.80
   1 -15 -11    0.79    0.90
  -1  15  11    1.29    0.67
   0 -15 -11    3.08    1.10
   0  15  11    2.25    0.70
  -1 -15 -11   -1.28    0.63
   2  15  11   -0.69    2.56
  -2 -15 -11    1.87    0.93
   1 -16 -11   -0.16    0.83
  -1  16  11    0.16    0.54
   0 -16 -11    0.99    1.00
  -1 -16 -11    0.62    0.92
   1  15 -12    5.12    5.02
   0 -15  12    1.28    0.83
   0  15 -12   -2.08    5.36
   1 -15  12    2.74    0.92
   2  14 -12    2.04    3.47
  -1 -14  12   -0.09    0.71
   1  14 -12   -6.76    4.50
   0  14 -12    2.40    6.84
  -1  14 -12   -3.31    5.76
   1 -14  12   -0.25    0.65
   2 -14  12    2.08    0.96
   3  13 -12    0.16    2.20
   2  13 -12   -0.92    3.11
  -1 -13  12    7.76    1.15
   1  13 -12    0.09    4.09
   0  13 -12   -1.05    5.20
   0 -13  12    6.67    1.17
  -1  13 -12   -0.15    5.56
   1 -13  12    0.72    0.72
   2 -13  12    1.21    0.80
  -2  13 -12   -2.84    5.54
   3  12 -12    0.70    2.22
   2  12 -12    1.08    3.21
   1  12 -12   -2.26    4.36
  -1 -12  12    2.01    0.80
   0 -12  12    2.85    0.89
   0  12 -12    2.02    5.15
  -1  12 -12    3.30    5.77
   2 -12  12    3.43    0.97
  -2  12 -12   -4.03    5.70
   3 -12  12    1.16    0.84
  -3  12 -12   -1.32    6.19
   4  11 -12    0.17    1.59
   3  11 -12    0.10    2.49
   2  11 -12    0.58    2.91
  -2 -11  12    3.05    0.85
   1  11 -12   -2.89    4.13
  -1 -11  12    4.63    0.88
   0  11 -12   -1.12    4.51
   1 -11  12    1.42    0.82
  -1  11 -12    4.28    6.17
  -2  11 -12   -3.35    6.28
   2 -11  12    1.03    0.81
   3 -11  12   -0.01    0.55
  -3  11 -12   -0.99    6.56
   3  10 -12   -0.68    2.25
   1  10 -12   -2.36    3.66
  -1 -10  12    2.58    0.79
   0  10 -12   -6.74    4.21
   1 -10  12    1.33    0.74
  -1  10 -12    3.33    5.75
   2 -10  12    1.49    0.82
  -2  10 -12   -4.25    6.06
  -3  10 -12   -5.10    6.78
   4 -10  12   -0.04    0.51
  -4  10 -12   -8.60    6.87
   3   9 -12    0.02    2.17
   2   9 -12   -0.91    2.92
  -2  -9  12    2.95    0.80
   1   9 -12    1.39    3.89
   0   9 -12   13.61    5.66
   1  -9  12    0.14    0.69
  -1   9 -12   -0.50    5.62
  -2   9 -12   -3.89    5.62
   2  -9  12    1.24    0.75
   3  -9  12    2.27    0.74
  -3   9 -12   -1.07    6.82
   4  -9  12    0.40    0.53
  -4   9 -12   -3.25    6.86
   3   8 -12   -0.01    1.90
  -3  -8  12    3.36    0.85
   2   8 -12   -2.84    3.13
   1   8 -12   -0.53    2.78
  -1  -8  12    4.40    0.87
   0  -8  12    0.91    0.68
   0   8 -12    2.52    4.49
   2  -8  12    3.95    0.84
  -2   8 -12   -2.99    5.66
   3  -8  12    1.02    0.74
  -3   8 -12   -2.25    5.83
  -4   8 -12   -5.22    5.54
   4  -8  12    0.62    0.58
   3   7 -12    0.26    2.12
  -3  -7  12    0.55    0.61
   1   7 -12   -1.34    2.44
  -1  -7  12    1.36    0.68
   0   7 -12    1.19    4.69
   0  -7  12    9.93    1.10
  -1   7 -12    7.67    5.53
  -2   7 -12   -5.48    5.55
   2  -7  12    1.05    0.58
  -3   7 -12    0.57    5.10
   3  -7  12   -0.06    0.48
  -4   7 -12   -4.83    5.09
   4  -7  12    1.15    0.61
   5   6 -12    5.09    1.16
   2   6 -12   -0.20    2.54
  -2  -6  12    0.67    0.59
  -1  -6  12   10.80    1.11
   1   6 -12    0.37    2.94
   0   6 -12   -5.45    4.12
  -1   6 -12    4.66    4.58
  -2   6 -12   -1.94    5.14
  -3   6 -12   -3.10    5.07
   3  -6  12    0.74    0.61
   4  -6  12    0.57    0.59
  -4   6 -12   -1.89    4.97
  -5   6 -12   -6.07    5.63
   5   5 -12    3.60    1.05
   4   5 -12    5.06    1.01
   3   5 -12   -0.48    0.61
   3   5 -12    1.56    2.10
  -3  -5  12    0.65    0.61
   2   5 -12   -0.32    2.19
  -2  -5  12    1.11    0.60
  -1  -5  12    7.11    0.92
   1   5 -12   -1.03    2.26
   0   5 -12   -1.71    4.37
   1  -5  12   -0.11    0.44
  -1   5 -12    0.32    3.92
  -2   5 -12    0.31    4.58
  -3   5 -12   -4.87    4.76
  -4   5 -12   -3.91    5.39
   4  -5  12    0.43    0.61
   5  -5  12    0.85    0.55
  -5   5 -12   -2.43    5.85
   5   4 -12    2.57    0.98
   4   4 -12   29.23    1.89
  -4  -4  12   28.92    1.78
   3   4 -12    0.51    0.67
  -3  -4  12    0.49    0.63
  -2  -4  12    9.04    1.02
   2   4 -12    7.22    1.02
   1   4 -12    1.51    0.72
  -1  -4  12    1.26    0.61
   1   4 -12   -0.23    2.77
  -1   4 -12   -1.45    3.32
   1  -4  12    0.76    0.51
  -2   4 -12    1.44    4.59
   3  -4  12    0.67    0.59
  -3   4 -12    1.60    5.05
  -4   4 -12   -3.33    4.69
   4  -4  12    1.57    0.69
   5  -4  12    0.49    0.47
  -5   4 -12   -0.29    5.08
   5   3 -12   24.51    1.86
   4   3 -12    6.24    1.12
  -4  -3  12    5.48    0.98
   3   3 -12   38.33    2.08
  -3  -3  12   41.65    2.03
   2   3 -12   18.94    1.45
  -2  -3  12   18.50    1.41
   1   3 -12   10.25    1.17
  -1  -3  12    7.70    0.95
   0   3 -12   -0.29    0.65
   0  -3  12    0.18    0.51
   0   3 -12    0.09    2.45
  -1   3 -12   -5.86    3.47
   1  -3  12    2.77    0.65
  -1   3 -12    3.90    0.91
  -2   3 -12   -2.54    3.86
   2  -3  12    1.44    0.61
   3  -3  12    3.17    0.74
  -3   3 -12   -4.89    4.31
   4  -3  12    2.64    0.77
  -4   3 -12    0.09    4.79
  -5   3 -12   -0.61    5.34
   5  -3  12    0.76    0.53
   5   2 -12   12.77    1.52
   4   2 -12    9.18    1.27
  -4  -2  12    9.84    1.12
   3   2 -12   14.86    1.50
  -3  -2  12   14.95    1.32
  -2  -2  12    0.82    0.65
   2   2 -12    1.33    0.74
   2   2 -12    1.08    2.14
  -1  -2  12  127.45    3.74
   1   2 -12  122.12    3.69
   0   2 -12   -2.09    3.11
   0   2 -12    1.84    0.82
   0  -2  12    2.54    0.69
  -1   2 -12   19.29    1.53
   1  -2  12   20.82    1.37
  -2   2 -12   18.66    1.56
   2  -2  12   19.03    1.37
   3  -2  12    0.78    0.57
  -3   2 -12   -2.57    4.24
   4  -2  12    5.76    0.93
   5  -2  12    9.38    1.09
  -5  -1  12    0.26    0.67
   5   1 -12    1.55    0.89
   4   1 -12   -0.05    0.70
  -4  -1  12    0.27    0.58
  -3  -1  12   29.91    1.79
   3   1 -12   31.54    1.99
  -2  -1  12    4.13    0.76
   2   1 -12    1.67    2.04
   2   1 -12    3.23    0.90
  -1  -1  12    8.45    0.99
   1   1 -12    8.49    1.17
   0  -1  12    7.32    0.91
   0   1 -12    8.25    1.17
  -1   1 -12    3.65    0.91
   1  -1  12    3.03    0.68
  -1   1 -12   -3.31    3.44
  -2   1 -12   21.86    1.64
   2  -1  12   25.37    1.52
  -3   1 -12   -0.03    0.70
   3  -1  12    0.23    0.52
  -3   1 -12   -0.79    1.27
   4  -1  12    1.96    2.34
   4  -1  12    0.30    0.56
   5  -1  12    1.56    2.30
  -5   0  12   10.81    1.22
   5   0 -12   13.52    1.59
   4   0 -12   17.55    1.59
  -4   0  12   16.38    1.35
   3   0 -12  191.07    5.26
  -3   0  12  192.49    5.08
   2   0 -12    1.08    0.76
  -2   0  12    1.64    0.61
   1   0 -12   37.34    2.00
  -1   0  12   35.07    1.79
   0   0  12  282.19    6.64
   0   0 -12  278.98    6.77
  -1   0 -12    2.94    0.94
   1   0  12    4.05    0.73
  -2   0 -12    8.75    1.22
   2   0  12   10.27    1.04
  -3   0 -12   47.18    2.28
   3   0  12   49.48    4.23
   3   0  12   47.98    2.17
   4   0  12   24.13    1.59
  -4   0 -12   24.18    1.77
   4   0  12   26.44    3.38
   5   0  12    1.14    2.17
   5  -1 -12    0.25    0.82
  -5   1  12   -0.18    0.60
   4  -1 -12    0.23    0.78
  -4   1  12    0.69    0.60
   3  -1 -12   28.31    1.87
  -3   1  12   28.22    1.62
   2  -1 -12    3.21    0.95
  -2   1  12    4.54    0.82
  -1   1  12    6.53    0.86
   1  -1 -12    8.00    1.19
   0  -1 -12    6.33    1.14
   0   1  12    8.49    0.95
   0  -1 -12    8.12    3.67
  -1  -1 -12   -2.03    1.80
   1   1  12    3.06    0.63
  -1  -1 -12    2.64    0.91
   2   1  12   22.37    1.40
   2   1  12   21.53    3.20
  -2  -1 -12   21.53    1.67
   3   1  12    2.39    2.20
  -3  -1 -12   -0.27    0.72
   3   1  12    0.36    0.48
   4   1  12    1.27    2.30
   4   1  12    0.50    0.51
  -4  -1 -12    0.59    0.78
  -5  -1 -12   -0.25    0.82
   5   1  12    0.57    2.11
   5  -2 -12   14.24    1.65
  -5   2  12   14.41    1.38
  -4   2  12    8.93    1.08
   4  -2 -12   10.07    1.41
  -3   2  12   14.66    1.28
   3  -2 -12   12.21    1.41
   2  -2 -12    1.91    0.89
  -2   2  12    1.56    0.66
   1  -2 -12  118.59    3.75
  -1   2  12  111.50    3.42
   0   2  12    1.23    0.56
   0  -2 -12    2.24    0.92
   0  -2 -12   -5.67    3.05
   1   2  12   17.26    2.93
  -1  -2 -12   22.47    1.67
   1   2  12   19.10    1.27
  -2  -2 -12   17.44    1.56
   2   2  12   21.42    3.47
   2   2  12   17.57    1.27
  -3  -2 -12    0.20    0.74
   3   2  12    0.12    2.10
   3   2  12    0.81    0.52
   4   2  12    2.90    2.64
  -4  -2 -12    4.44    1.09
   5   2  12    8.60    2.98
  -5  -2 -12    8.08    1.34
  -5   3  12   23.90    1.68
   5  -3 -12   21.36    1.86
   4  -3 -12    4.31    1.10
  -4   3  12    3.83    0.84
  -3   3  12   34.71    1.80
   3  -3 -12   36.39    2.10
  -2   3  12   19.45    1.39
   2  -3 -12   21.40    1.69
   1  -3 -12    8.80    1.25
  -1   3  12    8.94    0.98
   1  -3 -12    3.44    2.31
   0  -3 -12    0.99    0.84
   0   3  12   -0.10    0.41
  -1  -3 -12    3.54    0.97
   1   3  12    4.40    2.22
   1   3  12    3.83    0.68
  -2  -3 -12    0.98    0.83
   2   3  12    0.89    0.54
   2   3  12    1.42    2.26
  -3  -3 -12    2.35    0.93
   3   3  12    3.05    2.48
   3   3  12    2.76    0.66
   4   3  12    2.43    2.56
  -4  -3 -12    3.26    1.03
   5   3  12    0.53    2.36
  -5  -3 -12    0.31    0.86
   5  -4 -12    2.44    1.01
  -5   4  12    1.61    0.76
  -4   4  12   23.62    1.64
   4  -4 -12   26.67    1.99
   3  -4 -12    0.75    0.84
  -3   4  12    0.56    0.61
  -2   4  12    7.26    0.95
   2  -4 -12    7.17    1.22
   1  -4 -12    0.99    0.88
   1  -4 -12    2.65    2.30
  -1   4  12    1.61    0.60
   0  -4 -12   94.77    3.41
   0   4  12   90.83    2.96
   0   4  12   96.80    5.34
   1   4  12    0.88    0.51
  -1  -4 -12    1.23    0.85
   1   4  12   -0.63    1.94
   2   4  12   26.65    3.39
   2   4  12   21.70    1.39
  -2  -4 -12   20.84    1.69
  -3  -4 -12   -0.22    0.72
   3   4  12   -2.57    1.99
   3   4  12    0.80    0.51
   4   4  12   -1.26    2.08
  -4  -4 -12    1.00    0.89
   5   4  12   -2.87    2.08
  -5  -4 -12   -0.35    0.77
   5  -5 -12    2.20    0.99
  -5   5  12    2.05    0.83
   4  -5 -12    5.06    1.16
  -4   5  12    3.96    0.84
   3  -5 -12    1.14    0.88
  -3   5  12    1.12    0.66
   2  -5 -12   -0.81    0.69
  -2   5  12    0.03    0.50
   1  -5 -12    9.39    1.32
  -1   5  12    6.73    0.89
   0  -5 -12   18.45    1.68
   0   5  12   19.31    1.33
   0   5  12   22.17    3.15
   1   5  12   -1.92    1.80
   1   5  12   -0.53    0.32
  -1  -5 -12   -0.69    0.74
   2   5  12   17.24    1.27
   2   5  12   22.80    3.21
  -2  -5 -12   19.92    1.67
   3   5  12   10.11    3.00
  -3  -5 -12    8.66    1.32
   3   5  12    7.25    0.87
  -4  -5 -12    0.20    0.83
   4   5  12   -1.78    2.07
   5   5  12   -0.38    2.34
  -5  -5 -12   -0.35    0.86
  -5   6  12    3.87    0.94
   5  -6 -12    4.42    1.16
   4  -6 -12   11.20    1.49
  -4   6  12    8.98    1.10
   3  -6 -12   15.12    1.61
  -3   6  12   11.20    1.19
  -2   6  12    0.25    0.46
   2  -6 -12    1.02    0.87
   1  -6 -12   11.13    1.43
  -1   6  12    8.48    0.98
   0   6  12    6.36    2.17
   0  -6 -12    4.49    1.13
   0   6  12    3.09    0.69
   1   6  12   25.66    1.45
   1   6  12   23.63    3.35
  -1  -6 -12   24.72    1.85
   2   6  12    9.77    0.98
  -2  -6 -12   10.23    1.41
   2   6  12   14.44    2.93
  -3  -6 -12    0.37    0.85
   3   6  12   -0.35    2.26
  -4  -6 -12    0.02    0.87
   4   6  12   -0.83    2.58
   5   6  12   -1.11    2.50
  -5   7  12    1.57    0.82
   5  -7 -12    1.90    0.84
   4  -7 -12    0.50    0.65
  -4   7  12   -0.22    0.64
   3  -7 -12   -0.20    0.80
  -3   7  12   -0.03    0.52
  -2   7  12    9.76    1.05
   2  -7 -12   12.49    1.50
  -1   7  12    0.62    0.55
   1  -7 -12    0.14    0.86
   0   7  12    8.97    0.95
   0  -7 -12    9.61    1.38
   0   7  12   10.36    2.36
  -1  -7 -12    0.26    0.86
   1   7  12    0.38    1.99
   1   7  12    0.82    0.56
  -2  -7 -12    0.62    0.85
   2   7  12    1.58    0.54
   2   7  12    1.70    2.10
   3   7  12   -0.71    2.25
  -3  -7 -12    0.79    0.88
   4   7  12   -1.25    2.68
  -4  -7 -12    0.93    0.99
  -5   8  12    5.41    1.02
   5  -8 -12    6.95    1.24
  -4   8  12   11.68    1.31
   4  -8 -12   10.55    1.36
  -3   8  12    3.09    0.82
   3  -8 -12    3.16    0.95
  -2   8  12    8.35    1.01
   2  -8 -12    8.05    1.30
   1  -8 -12    3.55    1.12
  -1   8  12    2.83    0.72
   0   8  12    0.81    0.53
   0   8  12    1.17    1.71
   0  -8 -12    0.33    0.91
   1   8  12   96.26    5.53
   1   8  12   90.44    3.01
  -1  -8 -12   85.01    3.45
   2   8  12    2.93    2.26
  -2  -8 -12    2.67    1.02
   2   8  12    2.59    0.63
   3   8  12    0.58    2.40
  -3  -8 -12    0.55    0.95
  -4  -8 -12   -0.66    0.87
   4   8  12   -1.88    2.55
   4  -9 -12    0.88    0.68
  -4   9  12    0.31    0.75
  -3   9  12   -0.59    0.49
   3  -9 -12    0.94    0.77
   2  -9 -12    1.06    0.88
  -2   9  12    2.53    0.71
  -1   9  12   13.94    1.25
   1  -9 -12   13.83    1.59
   0   9  12   42.04    3.67
   0  -9 -12   40.53    2.43
   0   9  12   40.72    1.95
   1   9  12   -0.47    0.45
   1   9  12   -0.02    1.87
  -1  -9 -12    1.02    0.94
   2   9  12    0.95    2.13
  -2  -9 -12    0.88    0.90
  -3  -9 -12    2.63    1.11
   3   9  12    3.22    2.70
   4   9  12   -2.80    2.65
  -4  -9 -12   -0.61    0.94
   4 -10 -12   11.40    1.44
  -4  10  12   11.93    1.37
  -3  10  12    2.90    0.77
   3 -10 -12    2.79    0.90
  -2  10  12   15.32    1.32
   2 -10 -12   15.60    1.62
  -1  10  12    2.43    0.68
   1 -10 -12    3.85    1.11
   0  10  12    4.86    0.81
   0 -10 -12    7.61    1.37
   1  10  12    1.57    0.63
   1  10  12    1.74    2.13
  -1 -10 -12    1.50    0.90
  -2 -10 -12   -0.24    0.91
   2  10  12    0.17    2.15
  -3 -10 -12    5.23    1.32
   3  10  12    7.85    3.07
  -4 -10 -12    0.56    1.03
   4  10  12   -1.02    2.76
   4 -11 -12    0.73    0.69
  -4  11  12    0.54    0.76
  -3  11  12    0.60    0.64
   3 -11 -12    0.42    0.74
   2 -11 -12    2.81    1.05
  -2  11  12    3.94    0.83
   1 -11 -12    5.58    1.19
  -1  11  12    4.41    0.82
   0 -11 -12   10.42    1.53
   0  11  12   10.13    1.09
   1  11  12    1.50    2.19
   1  11  12    1.45    0.63
  -1 -11 -12    1.97    0.97
   2  11  12    0.23    2.24
  -2 -11 -12    1.93    0.92
   3  11  12   -1.03    2.43
  -3 -11 -12   -0.70    0.85
  -3  12  12    0.81    0.57
   3 -12 -12    0.65    0.69
  -2  12  12    5.49    0.94
   2 -12 -12    8.44    1.35
   1 -12 -12    1.60    0.97
  -1  12  12    2.03    0.71
   0  12  12    2.49    0.72
   0 -12 -12    3.30    1.15
  -1 -12 -12   22.73    1.93
   1  12  12   18.69    1.37
   1  12  12   19.34    3.16
  -2 -12 -12    1.95    0.95
  -3 -12 -12   -0.20    0.75
   3  12  12   -0.23    2.57
   3 -13 -12    0.74    0.76
  -3  13  12    0.04    0.59
  -2  13  12    0.73    0.57
   2 -13 -12    1.47    0.88
   1 -13 -12    8.36    1.38
  -1  13  12    6.64    0.99
   0 -13 -12    6.50    1.33
   0  13  12    5.73    0.92
   1  13  12    0.21    2.14
  -1 -13 -12    0.45    0.80
   2  13  12   -0.46    2.33
  -2 -13 -12    0.93    0.90
  -2  14  12    0.12    0.59
   2 -14 -12    2.70    1.00
  -1  14  12    0.03    0.53
   1 -14 -12    0.37    0.83
   0  14  12   10.10    1.13
   0 -14 -12    8.42    1.50
  -1 -14 -12   -0.35    0.82
  -2 -14 -12    1.14    0.99
   2  14  12   -0.81    2.51
   1 -15 -12    1.46    0.96
  -1  15  12    1.69    0.65
   0 -15 -12    1.09    1.03
   0  15  12    2.46    0.76
  -1 -15 -12    3.03    1.16
  -1 -13  13   -0.18    0.67
   1  13 -13   -1.05    4.01
   0 -13  13    6.05    1.16
   0  13 -13   -2.41    5.49
  -1  13 -13   -4.31    5.86
   1 -13  13    0.41    0.72
   2  12 -13   -0.43    3.24
   1  12 -13   -3.22    4.28
  -1 -12  13    3.22    0.93
   0 -12  13    0.36    0.77
   0  12 -13   -0.66    5.24
  -1  12 -13   -3.73    5.98
   1 -12  13    2.97    1.03
  -2  12 -13   -1.95    6.14
   2 -12  13    0.07    0.68
   3  11 -13    0.58    2.96
   2  11 -13    2.31    3.23
  -2 -11  13    1.65    0.83
  -1 -11  13    4.73    1.01
   1  11 -13   -1.80    4.41
   0  11 -13   -0.45    4.51
   0 -11  13    9.05    1.20
  -1  11 -13   -2.36    5.89
   1 -11  13    0.54    0.77
  -2  11 -13   -7.85    6.76
   2 -11  13    0.03    0.73
   3  10 -13    0.13    2.16
   2  10 -13   -0.84    2.80
  -2 -10  13    1.07    0.75
   0  10 -13    3.37    4.83
   0 -10  13    4.60    0.99
   1 -10  13   -0.17    0.70
  -1  10 -13   -2.08    5.42
  -2  10 -13   -7.10    6.20
   2 -10  13    0.07    0.73
   3 -10  13    3.53    0.94
  -3  10 -13   -2.51    6.52
   3   9 -13   -0.90    1.90
   1   9 -13    3.47    3.83
  -1  -9  13   14.54    1.41
   0   9 -13   -3.03    4.29
   0  -9  13    0.11    0.66
  -1   9 -13    0.71    5.12
   2  -9  13    9.37    1.33
  -2   9 -13   -2.63    6.84
  -3   9 -13   -2.59    7.06
   3  -9  13    0.75    0.62
   3   8 -13   -2.66    2.37
  -3  -8  13    0.72    0.71
   2   8 -13    1.48    3.36
  -2  -8  13    9.60    1.17
   1   8 -13   -0.52    2.78
  -1  -8  13    6.75    1.04
   0   8 -13    5.37    4.99
  -1   8 -13    4.41    5.39
   1  -8  13    7.22    1.12
  -2   8 -13   -2.95    6.97
   2  -8  13    2.34    0.81
   3  -8  13    0.87    0.57
  -3   8 -13   -6.62    6.88
  -4   8 -13   -4.85    6.01
  -2  -7  13    2.49    0.81
   2   7 -13   -0.46    2.28
  -1  -7  13    1.55    0.75
   1   7 -13   -0.26    2.69
   0   7 -13    5.21    4.33
   0  -7  13    4.00    0.92
  -1   7 -13    5.75    5.75
   1  -7  13    2.15    0.82
   2  -7  13    0.10    0.54
  -2   7 -13   -2.25    5.70
   3  -7  13    3.17    0.79
  -3   7 -13   -4.00    5.54
  -4   7 -13    0.96    6.15
   4  -7  13    1.71    0.72
  -3  -6  13    2.51    0.81
   2   6 -13   -0.85    2.12
  -2  -6  13    1.18    0.72
   1   6 -13    1.90    3.19
  -1  -6  13   10.28    1.17
   0   6 -13    1.97    3.42
   0  -6  13    1.24    0.69
   1  -6  13    1.98    0.76
  -1   6 -13   -2.24    4.65
  -2   6 -13   -6.35    4.85
   2  -6  13    0.45    0.57
   3  -6  13    2.75    0.82
  -3   6 -13    1.20    5.59
  -4   6 -13   -0.76    5.92
   4  -6  13    1.92    0.68
   5   5 -13   -0.96    0.76
  -3  -5  13    0.36    0.65
   0   5 -13   -0.78    3.71
  -1   5 -13   -3.77    4.11
   2  -5  13    0.06    0.52
  -3   5 -13   -7.21    5.54
   3  -5  13   -0.29    0.48
   4  -5  13    2.40    0.78
  -4   5 -13   -2.72    5.55
   5   4 -13    4.78    1.18
  -4  -4  13   28.14    1.84
   4   4 -13   26.72    1.90
   3   4 -13    4.12    1.00
  -3  -4  13    2.43    0.77
   2   4 -13    0.01    1.91
  -2  -4  13    7.86    1.06
   1   4 -13    0.58    2.90
   1  -4  13    1.08    0.61
  -1   4 -13   -0.62    4.02
  -3   4 -13   -7.24    5.13
  -4   4 -13   -2.48    5.52
   4  -4  13    2.70    0.79
   5   3 -13    0.81    0.89
   4   3 -13   10.97    1.38
  -4  -3  13   11.53    1.25
   3   3 -13   14.55    1.52
  -3  -3  13   12.76    1.34
   2   3 -13    7.94    1.13
   2   3 -13    1.72    2.53
  -2  -3  13    6.29    0.92
  -1  -3  13   32.17    1.82
   1   3 -13   30.10    1.80
  -1   3 -13   -1.03    3.97
   1  -3  13    0.13    0.45
   2  -3  13    0.61    0.56
  -2   3 -13   -4.13    4.28
  -3   3 -13   -4.66    5.34
   4  -3  13    3.26    0.83
  -4   3 -13    2.81    5.77
   5   2 -13    0.89    0.86
  -4  -2  13   -0.03    0.56
   4   2 -13    0.56    0.76
   3   2 -13    4.23    1.04
  -3  -2  13    5.22    0.93
   2   2 -13   24.11    1.68
  -2  -2  13   23.13    1.53
   1   2 -13   15.52    1.45
  -1  -2  13   15.01    1.28
   0   2 -13   -0.16    0.69
   0   2 -13    2.13    2.76
   0  -2  13    0.66    0.62
  -1   2 -13   -0.74    0.67
   1  -2  13    0.47    0.47
  -1   2 -13   -2.84    3.50
  -2   2 -13   -2.71    4.06
   2  -2  13    2.85    0.75
  -3   2 -13    2.09    5.12
   3  -2  13   12.81    1.27
  -4   2 -13   10.44    5.73
   5   1 -13    2.20    1.00
  -5  -1  13    2.40    0.86
   4   1 -13    3.45    1.03
  -4  -1  13    4.05    0.89
   3   1 -13    5.35    1.11
  -3  -1  13    5.06    0.92
  -2  -1  13   14.57    1.35
   2   1 -13   14.40    1.48
   1   1 -13   35.88    2.00
  -1  -1  13   36.56    1.91
   0   1 -13    3.82    0.99
   0   1 -13   -0.60    3.79
   0  -1  13    3.44    0.73
  -1   1 -13    5.48    1.08
  -1   1 -13   -2.51    3.45
   1  -1  13    6.40    0.89
  -2   1 -13   -0.78    0.69
  -2   1 -13   -0.85    3.69
   2  -1  13    0.12    0.47
  -3   1 -13    4.20    4.48
   4  -1  13    5.06    0.89
  -4   1 -13    0.39    1.27
  -5   0  13   -1.13    0.59
   5   0 -13   -0.37    0.79
   4   0 -13   -0.20    0.69
  -4   0  13   -0.53    0.60
  -3   0  13   -0.07    0.60
   3   0 -13    0.36    0.78
   2   0 -13   -0.04    0.75
  -2   0  13    0.62    0.59
  -1   0  13   -0.30    0.56
   1   0 -13   -0.18    2.56
   1   0 -13    0.33    0.78
   0   0  13    0.39    0.45
   0   0 -13   -0.01    0.74
   0   0 -13   -1.88    3.70
  -1   0 -13   -3.40    3.72
  -1   0 -13   -0.23    0.73
   1   0  13    0.54    0.50
  -2   0 -13   -0.18    2.29
   2   0  13    0.08    0.42
  -2   0 -13   -0.12    0.77
   3   0  13   -0.10    0.48
  -3   0 -13   -0.68    0.75
   4   0  13   -0.36    2.19
   4   0  13   -0.14    0.48
  -5   1  13    1.11    0.78
   5  -1 -13    1.35    0.92
   4  -1 -13    3.29    1.08
  -4   1  13    3.63    0.87
   3  -1 -13    6.09    1.17
  -3   1  13    4.11    0.87
  -2   1  13   13.59    1.30
   2  -1 -13   14.41    1.52
   1  -1 -13   33.48    2.04
  -1   1  13   38.69    1.92
   0  -1 -13    4.57    1.07
   0  -1 -13   -0.59    3.34
   0   1  13    3.53    0.74
   1   1  13    5.44    0.82
  -1  -1 -13   -5.43    3.24
  -1  -1 -13    4.69    1.07
  -2  -1 -13   -0.45    0.74
   2   1  13   -0.62    2.27
   2   1  13   -0.37    0.44
   3   1  13    0.42    2.45
  -3  -1 -13   -0.20    0.83
   3   1  13   -0.14    0.49
   4   1  13    6.41    0.94
   4   1  13    6.86    2.78
  -4  -1 -13    4.36    1.15
  -5   2  13    0.01    0.68
   5  -2 -13    0.95    0.94
  -4   2  13    0.55    0.62
   4  -2 -13    1.35    0.90
  -3   2  13    3.30    0.82
   3  -2 -13    5.49    1.16
   2  -2 -13   23.11    1.75
  -2   2  13   20.14    1.41
   1  -2 -13   14.70    1.51
  -1   2  13   15.24    1.25
   0  -2 -13   -2.45    3.30
   0  -2 -13   -0.29    0.78
   0   2  13   -0.05    0.47
  -1  -2 -13   -0.08    0.78
   1   2  13    0.17    0.47
   2   2  13    3.71    2.47
   2   2  13    4.05    0.77
  -2  -2 -13    3.30    1.07
   3   2  13   13.47    1.22
   3   2  13   20.16    3.73
  -3  -2 -13   14.32    1.56
  -4  -2 -13    1.83    1.01
   4   2  13    4.15    2.56
   5  -3 -13    0.79    0.90
  -5   3  13    0.37    0.74
   4  -3 -13   11.42    1.54
  -4   3  13    9.32    1.17
  -3   3  13   11.81    1.25
   3  -3 -13   12.58    1.51
  -2   3  13    5.00    0.88
   2  -3 -13    7.24    1.27
  -1   3  13   30.99    1.70
   1  -3 -13   28.09    1.92
   0  -3 -13   29.81    1.97
   0   3  13   27.81    1.62
  -1  -3 -13   -0.28    0.80
   1   3  13   -2.28    1.69
   1   3  13    0.06    0.42
   2   3  13    0.36    0.48
   2   3  13   -0.68    2.03
  -2  -3 -13    0.03    0.80
   3   3  13    7.42    2.94
   3   3  13    4.93    0.83
  -3  -3 -13    6.31    1.25
   4   3  13    3.44    2.62
  -4  -3 -13    2.21    1.03
   5  -4 -13    3.81    1.21
  -5   4  13    4.69    1.01
  -4   4  13   26.69    1.78
   4  -4 -13   26.36    2.04
   3  -4 -13    2.56    1.03
  -3   4  13    2.91    0.80
  -2   4  13    7.59    0.98
   2  -4 -13    9.04    1.37
  -1   4  13   12.89    1.13
   1  -4 -13   15.26    1.53
   0   4  13   17.96    1.28
   0  -4 -13   17.03    1.61
   1   4  13    1.66    0.58
   1   4  13   -1.01    1.91
  -1  -4 -13    0.87    0.88
   2   4  13   20.36    1.41
   2   4  13   23.70    3.48
  -2  -4 -13   19.28    1.73
   3   4  13   10.98    1.09
  -3  -4 -13   11.62    1.51
   3   4  13   16.93    3.58
   4   4  13    0.33    2.26
  -4  -4 -13    1.85    1.02
   5  -5 -13    1.12    0.94
  -5   5  13   -0.29    0.59
  -4   5  13    1.73    0.75
   4  -5 -13    0.66    0.95
  -3   5  13   -0.09    0.51
   3  -5 -13    0.58    0.85
   2  -5 -13   19.98    1.74
  -2   5  13   18.85    1.38
  -1   5  13   29.26    1.67
   1  -5 -13   29.22    2.04
   0  -5 -13   12.95    1.52
   0   5  13   10.36    1.05
   0   5  13   14.65    2.65
   1   5  13    3.28    2.45
   1   5  13    6.05    0.83
  -1  -5 -13    5.71    1.22
  -2  -5 -13   -0.55    0.77
   2   5  13    0.39    2.10
   2   5  13   -0.28    0.43
   3   5  13    0.95    2.42
  -3  -5 -13   -0.88    0.80
   3   5  13    0.44    0.50
  -4  -5 -13    1.38    1.00
   4   5  13    2.14    2.84
  -4   6  13    0.08    0.68
   4  -6 -13    0.41    0.91
  -3   6  13    2.01    0.70
   3  -6 -13    1.99    1.02
   2  -6 -13    0.45    0.88
  -2   6  13    0.87    0.54
   1  -6 -13    9.00    1.39
  -1   6  13    9.62    1.04
   0   6  13    1.03    0.60
   0   6  13   -0.37    1.75
   0  -6 -13    0.94    0.92
   1   6  13    1.57    0.61
   1   6  13   -0.04    2.18
  -1  -6 -13    1.50    0.97
   2   6  13    1.27    2.20
  -2  -6 -13    0.17    0.85
   2   6  13    1.02    0.55
  -3  -6 -13    1.83    1.06
   3   6  13    5.78    2.88
   4   6  13    2.01    2.90
  -4  -6 -13    0.71    1.00
   4  -7 -13    1.43    0.98
  -4   7  13    0.82    0.75
   3  -7 -13   12.28    1.61
  -3   7  13   12.23    1.30
   2  -7 -13    1.68    1.03
  -2   7  13    2.88    0.73
  -1   7  13    1.91    0.66
   1  -7 -13    1.44    1.02
   0   7  13    3.33    0.77
   0  -7 -13    5.15    1.22
   0   7  13    1.59    2.13
  -1  -7 -13    2.58    1.09
   1   7  13    0.18    2.11
   1   7  13    1.98    0.65
  -2  -7 -13   -0.32    0.87
   2   7  13    0.96    0.54
   2   7  13    0.37    2.14
  -3  -7 -13    3.76    1.18
   3   7  13    5.98    2.93
  -4  -7 -13    2.78    1.17
   4   7  13    0.89    2.87
  -4   8  13    3.65    0.96
   4  -8 -13    3.01    0.96
  -3   8  13    0.27    0.68
   3  -8 -13    0.69    0.90
  -2   8  13    9.47    1.07
   2  -8 -13    8.72    1.50
  -1   8  13    7.69    1.02
   1  -8 -13    7.23    1.37
   0   8  13   23.15    1.51
   0  -8 -13   23.95    2.05
   0   8  13   25.42    3.52
  -1  -8 -13    6.05    1.35
   1   8  13    7.90    2.67
   1   8  13    5.21    0.87
   2   8  13    3.34    2.49
   2   8  13    1.86    0.63
  -2  -8 -13    2.71    1.14
  -3  -8 -13   -0.03    0.93
   3   8  13   -0.03    2.47
   4   8  13    5.12    3.22
   4  -9 -13   -0.01    0.70
  -4   9  13    0.07    0.69
   3  -9 -13    1.04    0.79
  -3   9  13    1.59    0.64
   2  -9 -13   16.67    1.69
  -2   9  13   18.84    1.48
   1  -9 -13   14.65    1.76
  -1   9  13   11.43    1.20
   0  -9 -13   -0.53    0.95
   0   9  13    0.46    0.53
  -1  -9 -13   21.71    1.99
   1   9  13   18.41    1.36
   1   9  13   21.09    3.25
   2   9  13   11.60    3.10
  -2  -9 -13    8.59    1.50
  -3  -9 -13   -0.61    0.89
   3   9  13   -0.62    2.40
   3 -10 -13    5.69    1.16
  -3  10  13    4.05    0.87
  -2  10  13    0.02    0.54
   2 -10 -13    0.94    0.85
   1 -10 -13   16.73    1.80
  -1  10  13   16.69    1.39
   0 -10 -13    3.80    1.19
   0  10  13    3.81    0.82
  -1 -10 -13    0.23    1.01
   1  10  13   -0.32    0.48
   1  10  13   -1.00    2.01
   2  10  13    0.75    2.31
  -2 -10 -13   -0.76    0.91
  -3 -10 -13    2.54    1.19
   3  10  13    2.21    2.72
   3 -11 -13    2.40    0.97
  -3  11  13    1.68    0.71
   2 -11 -13    1.69    0.95
  -2  11  13    1.76    0.70
  -1  11  13    5.07    0.90
   1 -11 -13    3.14    1.11
   0  11  13    9.50    1.13
   0 -11 -13    9.29    1.49
   1  11  13    0.38    2.13
   1  11  13    0.36    0.52
  -1 -11 -13   -0.24    0.75
   2  11  13   -0.62    2.26
  -2 -11 -13   -0.33    0.95
  -2  12  13    4.82    0.93
   2 -12 -13    4.17    1.18
  -1  12  13    2.68    0.79
   1 -12 -13    2.46    1.05
   0 -12 -13    2.51    1.11
   0  12  13   -0.41    0.52
   1  12  13    2.18    2.35
  -1 -12 -13    1.42    0.99
   2  12  13   -2.81    2.32
  -2 -12 -13   -0.28    0.79
  -2  13  13    4.55    0.95
   2 -13 -13    4.05    1.18
   1 -13 -13    1.65    0.97
  -1  13  13    0.45    0.55
   0  13  13    5.54    0.92
   0 -13 -13    6.98    1.43
  -1 -13 -13    1.06    0.98
  -1 -12  14    0.99    0.87
   0 -12  14    2.16    0.94
   2  11 -14    4.40    3.68
  -1 -11  14   -0.31    0.65
   1  11 -14   -2.45    4.10
   0 -11  14    1.09    0.82
   0  11 -14   -6.28    4.76
  -1  11 -14   -5.53    5.81
   1 -11  14    4.31    1.13
  -2 -10  14    0.56    0.79
   2  10 -14   -1.13    3.05
  -1 -10  14    1.53    0.84
   1  10 -14   -3.12    3.60
   0 -10  14   -0.41    0.70
   0  10 -14   -5.70    4.25
   1 -10  14    1.64    0.94
  -1  10 -14   -0.51    5.00
   2 -10  14    2.29    1.00
  -2  10 -14   -0.89    7.10
   3   9 -14    2.88    2.84
  -2  -9  14    0.88    0.77
   2   9 -14   -1.59    3.09
   1   9 -14   -0.32    3.87
  -1  -9  14    1.21    0.84
   0  -9  14    2.66    0.92
   0   9 -14   -4.14    3.86
  -1   9 -14   -0.47    4.84
   1  -9  14    2.31    0.93
   2  -9  14   -0.23    0.80
  -2   9 -14   -8.09    6.50
  -3  -8  14    3.09    0.98
   3   8 -14   -0.59    2.47
  -1  -8  14    5.86    1.07
   1   8 -14   -1.32    3.49
   0   8 -14   -2.82    4.06
   0  -8  14    2.43    0.86
  -1   8 -14   -2.18    5.01
   1  -8  14    2.42    0.87
  -2   8 -14   -5.83    6.79
   3  -8  14    0.91    0.74
  -3   8 -14   -9.61    7.08
  -3  -7  14    3.49    0.94
  -2  -7  14    0.11    0.64
   2   7 -14   -0.12    2.35
   1   7 -14   -0.27    2.92
  -1  -7  14    0.93    0.74
   0  -7  14    0.23    0.67
   0   7 -14   -0.17    3.89
   1  -7  14    0.90    0.75
  -1   7 -14   -8.34    4.65
   2  -7  14    1.90    0.80
  -2   7 -14   -0.26    5.91
   3  -7  14   -0.25    0.50
  -3   7 -14   -5.38    6.27
  -3  -6  14   22.01    1.70
   2   6 -14    3.32    3.11
  -1  -6  14    5.08    1.01
   1   6 -14    1.90    2.76
   0  -6  14    0.63    0.70
   0   6 -14   -2.46    3.90
   1  -6  14    1.57    0.77
  -1   6 -14   -6.76    4.49
   2  -6  14    0.58    0.56
  -2   6 -14   -4.16    4.91
   3  -6  14    2.27    0.78
  -3   6 -14   -5.17    5.86
  -3  -5  14    4.43    0.96
   2   5 -14   -0.70    2.12
  -2  -5  14    7.49    1.11
  -1  -5  14    0.14    0.60
   1   5 -14   -0.39    2.09
   0  -5  14    0.38    0.66
   0   5 -14   -1.59    2.91
  -1   5 -14   -4.47    4.71
   2  -5  14    0.73    0.65
  -2   5 -14   -4.55    4.59
  -3   5 -14   -4.12    5.49
   3  -5  14    1.11    0.67
  -4  -4  14    1.54    0.85
  -3  -4  14    6.64    1.05
  -2  -4  14    5.64    1.00
   2   4 -14    0.88    2.37
   0  -4  14   -0.46    0.56
   0   4 -14   -1.43    2.73
  -1   4 -14   -0.94    4.42
   2  -4  14    1.09    0.64
  -2   4 -14   -6.84    4.35
  -3   4 -14   -2.61    5.66
  -4   4 -14   -6.56    5.76
  -4  -3  14    7.57    1.17
   4   3 -14    5.99    1.21
   3   3 -14    1.04    0.85
  -3  -3  14    0.83    0.67
  -2  -3  14   11.40    1.24
   2   3 -14   13.38    1.43
   1   3 -14    0.07    2.10
  -1  -3  14    1.72    0.77
   0  -3  14   -0.15    0.58
   0   3 -14   -0.83    3.12
   1  -3  14    0.78    0.53
  -1   3 -14   -7.22    3.81
   2  -3  14    1.90    0.76
  -3   3 -14   -2.29    5.49
   3  -3  14    0.69    0.56
  -4   3 -14   -5.00    5.73
   4  -3  14    1.74    0.69
  -4  -2  14   12.76    1.39
   4   2 -14   14.97    1.63
   3   2 -14    8.23    1.27
  -3  -2  14    8.75    1.17
   2   2 -14   35.37    2.03
  -2  -2  14   34.17    1.96
  -1  -2  14    1.39    0.74
   1   2 -14   -0.60    2.25
   1   2 -14    1.65    0.88
   0   2 -14   -3.63    2.69
   0  -2  14    4.37    0.86
  -1   2 -14   -7.58    3.98
   1  -2  14    1.94    0.65
  -2   2 -14    6.37    5.33
   3  -2  14   -0.45    0.47
  -3   2 -14   -3.66    4.58
   4  -2  14    5.75    0.97
  -4   2 -14    1.60    5.81
   4   1 -14    6.61    1.27
  -4  -1  14    6.99    1.13
  -3  -1  14   11.97    1.28
   3   1 -14   14.65    1.57
   2   1 -14    0.14    0.76
  -2  -1  14   -0.41    0.59
  -1  -1  14    0.86    0.70
   1   1 -14   -1.69    2.33
   1   1 -14    1.19    0.85
   0   1 -14   -1.69    3.14
   0   1 -14    1.29    0.85
   0  -1  14    0.44    0.53
   1  -1  14    1.44    0.62
  -1   1 -14    0.97    0.91
  -1   1 -14   -6.66    4.09
   2  -1  14    3.78    0.87
  -2   1 -14    6.39    4.59
  -3   1 -14    1.36    4.35
   3  -1  14    1.20    0.67
  -4   1 -14   12.38    5.78
   4   0 -14    0.81    0.86
  -4   0  14    0.59    0.76
   3   0 -14    8.58    1.32
  -3   0  14    8.12    1.15
  -2   0  14    0.26    0.67
   2   0 -14   -0.27    0.76
   1   0 -14   76.02    3.03
  -1   0  14   72.85    2.84
   0   0 -14   16.60    1.59
   0   0  14   16.46    1.34
   1   0  14   23.55    1.56
  -1   0 -14   22.66    1.81
  -2   0 -14    6.22    1.24
  -2   0 -14    8.30    4.52
   2   0  14    7.93    1.05
   4   0  14    0.96    0.56
  -4   0 -14    0.04    1.24
  -4   1  14    6.00    1.09
   4  -1 -14    6.90    1.33
  -3   1  14   13.87    1.41
   3  -1 -14   15.20    1.63
  -2   1  14    0.14    0.62
   2  -1 -14   -0.30    0.78
   1  -1 -14    0.75    2.34
   1  -1 -14    0.87    0.89
  -1   1  14    0.40    0.59
   0   1  14    0.34    0.51
   0  -1 -14   -0.77    3.50
   0  -1 -14    0.03    0.83
  -1  -1 -14    0.42    3.96
  -1  -1 -14    1.11    0.96
   1   1  14    2.16    0.69
  -2  -1 -14    4.93    1.20
   2   1  14    5.02    0.91
  -2  -1 -14    3.46    2.15
  -3  -1 -14    0.72    0.95
   3   1  14    1.66    0.67
   4   1  14    1.01    2.61
   4   1  14    2.24    0.71
   4  -2 -14   10.86    1.56
  -4   2  14   11.54    1.30
  -3   2  14    7.97    1.12
   3  -2 -14    8.15    1.37
   2  -2 -14   34.47    2.16
  -2   2  14   32.24    1.91
  -1   2  14    1.05    0.58
   1  -2 -14    0.49    0.86
   0   2  14    2.11    0.63
   0  -2 -14    1.14    3.69
   0  -2 -14    3.23    1.06
   1   2  14    0.53    0.53
  -1  -2 -14    2.36    3.93
  -1  -2 -14    1.61    0.94
   2   2  14   27.76    1.70
   2   2  14   31.63    3.90
  -2  -2 -14   24.04    1.94
  -3  -2 -14   -0.64    0.82
   3   2  14   -0.16    0.51
   3   2  14   -1.41    2.41
   4   2  14    6.64    2.97
  -4  -2 -14    3.06    1.19
  -4   3  14    6.45    1.10
   3  -3 -14    0.85    0.90
  -3   3  14    0.46    0.68
   2  -3 -14   15.46    1.69
  -2   3  14   10.52    1.21
   1  -3 -14    2.32    1.02
  -1   3  14    2.19    0.68
   0   3  14    0.05    0.50
   0  -3 -14   -0.21    0.84
   0  -3 -14   -0.70    3.60
   1   3  14    0.96    0.55
  -1  -3 -14    1.13    0.92
  -2  -3 -14    2.07    1.04
   2   3  14    2.13    0.69
   2   3  14    3.36    2.47
   3   3  14   -0.53    2.54
  -3  -3 -14   -0.39    0.88
   3   3  14   -0.06    0.43
   4   3  14    3.32    2.69
  -4  -3 -14    0.65    1.04
   4  -4 -14    1.65    1.05
  -4   4  14    0.67    0.70
   3  -4 -14    6.22    1.30
  -3   4  14    5.26    1.01
   2  -4 -14    6.08    1.32
  -2   4  14    6.33    1.04
   1  -4 -14   32.41    2.11
  -1   4  14   31.62    1.77
   0  -4 -14   -0.62    0.82
   0  -4 -14    0.72    3.16
   0   4  14    0.53    0.49
   1   4  14   11.97    2.79
   1   4  14    7.70    0.96
  -1  -4 -14   10.29    1.46
   2   4  14    0.91    2.36
  -2  -4 -14    0.02    0.92
   2   4  14    0.64    0.56
   3   4  14   13.74    1.24
  -3  -4 -14   12.41    1.63
   3   4  14   20.68    3.84
   4   4  14    0.64    2.92
   4  -5 -14    4.01    1.24
  -4   5  14    2.76    0.86
   3  -5 -14    2.90    1.16
  -3   5  14    3.21    0.91
  -2   5  14    7.72    1.08
   2  -5 -14    9.18    1.45
  -1   5  14   -0.09    0.52
   1  -5 -14    0.16    0.87
   0   5  14    1.03    0.59
   0  -5 -14    1.04    0.91
   1   5  14    9.18    1.05
  -1  -5 -14    9.11    1.43
   1   5  14   12.19    2.85
   2   5  14    1.75    2.43
  -2  -5 -14   -0.04    0.93
   2   5  14    1.59    0.65
  -3  -5 -14    0.88    1.00
   3   5  14    3.47    2.83
  -4   6  14    4.39    1.04
   4  -6 -14    5.47    1.30
  -3   6  14   19.65    1.59
   3  -6 -14   22.48    2.02
  -2   6  14    9.52    1.14
   2  -6 -14    9.59    1.50
   1  -6 -14    2.76    1.12
  -1   6  14    5.69    0.91
   0   6  14   -1.14    1.79
   0   6  14    0.59    0.55
   0  -6 -14    0.86    0.97
   1   6  14    2.20    2.28
   1   6  14    2.62    0.70
  -1  -6 -14    0.79    0.99
  -2  -6 -14    0.56    0.99
   2   6  14   -0.71    0.41
   2   6  14    0.90    2.46
   3   6  14    1.87    2.77
  -3  -6 -14    1.22    1.05
   3  -7 -14    0.97    1.02
  -3   7  14    1.98    0.82
  -2   7  14   -0.16    0.45
   2  -7 -14    0.51    0.98
   1  -7 -14   -0.25    0.90
  -1   7  14    0.34    0.51
   0  -7 -14    0.06    0.89
   0   7  14   -0.91    0.40
   0   7  14   -0.88    1.79
   1   7  14   -1.52    2.07
   1   7  14    0.39    0.52
  -1  -7 -14    2.20    1.08
   2   7  14    1.96    0.66
   2   7  14    4.00    2.70
  -2  -7 -14    2.38    1.15
  -3  -7 -14   -0.12    0.95
   3   7  14   -0.69    2.55
  -3   8  14    2.31    0.85
   3  -8 -14    2.42    1.14
  -2   8  14   11.04    1.14
   2  -8 -14    9.45    1.57
   1  -8 -14    7.23    1.46
  -1   8  14    4.85    0.87
   0   8  14    3.20    0.78
   0  -8 -14    3.21    1.22
   1   8  14    2.28    0.66
   1   8  14    2.05    2.31
  -1  -8 -14    1.17    1.10
   2   8  14   16.03    3.48
   2   8  14   12.63    1.15
  -2  -8 -14   11.30    1.69
   3   8  14    0.73    2.75
  -3  -8 -14    1.26    1.14
  -3   9  14    2.50    0.81
   3  -9 -14    2.56    1.05
   2  -9 -14    0.51    0.99
  -2   9  14    0.02    0.50
   1  -9 -14    0.41    1.01
  -1   9  14    1.10    0.65
   0  -9 -14    2.11    1.18
   0   9  14    3.05    0.76
   1   9  14    2.10    0.67
  -1  -9 -14    3.54    1.29
   1   9  14    2.94    2.42
  -2  -9 -14   -0.69    0.99
   2   9  14   -0.72    2.34
  -2  10  14    1.38    0.66
   2 -10 -14    1.92    0.98
   1 -10 -14    1.67    1.11
  -1  10  14    1.26    0.61
   0 -10 -14    0.13    1.01
   0  10  14    0.27    0.55
   1  10  14    2.59    2.35
  -1 -10 -14    2.48    1.23
   1  10  14    2.19    0.70
   2  10  14    1.31    2.52
  -2 -10 -14    2.39    1.21
  -2  11  14    0.80    0.62
   2 -11 -14    1.62    0.97
   1 -11 -14    1.07    0.86
  -1  11  14    0.43    0.55
   0  11  14    1.78    0.71
   0 -11 -14    1.32    0.99
  -1 -11 -14    3.89    1.38
   1  11  14    3.99    2.58
   1  11  14    4.34    0.84
   1 -12 -14    0.54    0.96
  -1  12  14    0.30    0.63
   0  12  14    0.75    0.63
   0 -12 -14    0.57    0.98
   1   9 -15    1.37    3.07
  -1  -9  15    1.79    0.84
   0  -9  15   -0.34    0.62
   0   9 -15   -3.49    3.61
   1  -9  15    1.33    0.90
  -1   9 -15   -6.28    4.84
  -2  -8  15    5.46    1.09
   2   8 -15   -0.46    2.56
  -1  -8  15    0.55    0.75
   1   8 -15   -3.08    2.73
   0  -8  15    0.09    0.75
  -1   8 -15    0.98    5.36
   1  -8  15    1.79    0.95
  -2   8 -15   -5.26    6.87
   2   7 -15    0.49    2.40
  -2  -7  15    0.17    0.72
   1   7 -15   -3.97    2.55
  -1  -7  15    0.77    0.73
   0   7 -15   -0.57    4.05
  -1   7 -15   -5.97    5.10
   1  -7  15    3.58    1.01
   2  -7  15   -0.13    0.51
  -2   7 -15   -1.63    5.76
  -3  -6  15    5.72    1.13
  -2  -6  15    2.41    0.91
   2   6 -15   -0.40    2.08
  -1  -6  15    3.35    0.98
   1   6 -15   -3.15    2.52
   0  -6  15    3.34    1.00
   0   6 -15    2.11    3.45
   1  -6  15    1.91    0.89
  -1   6 -15   -3.40    4.60
   2  -6  15    3.76    0.89
  -2   6 -15   -4.38    5.13
  -3  -5  15    2.24    0.94
  -2  -5  15    6.74    1.15
   2   5 -15    1.19    2.87
  -1  -5  15   10.95    1.31
   1   5 -15    1.50    2.98
   0  -5  15    0.45    0.64
   0   5 -15   -2.85    3.72
  -1   5 -15   -5.67    4.76
   2  -5  15    0.46    0.61
  -2   5 -15    1.10    4.51
  -3  -4  15    1.13    0.83
  -2  -4  15    4.67    1.03
  -1  -4  15    1.34    0.80
   1   4 -15    0.14    2.66
   0  -4  15    1.41    0.81
   0   4 -15   -2.04    3.14
   1  -4  15   15.34    1.44
  -1   4 -15    2.57    3.90
   2  -4  15    3.09    0.83
  -2   4 -15    0.14    4.49
  -3   4 -15   -4.64    5.66
   3  -4  15    3.24    0.89
  -3  -3  15    1.65    0.82
  -2  -3  15   -0.22    0.65
  -1  -3  15    0.50    0.66
   1   3 -15   -0.36    2.52
   0  -3  15    2.46    0.85
   0   3 -15   -1.29    2.47
   1  -3  15    3.16    0.83
  -1   3 -15    0.88    3.89
  -2   3 -15   -3.85    4.49
  -3   3 -15   -4.57    5.18
   3  -3  15    3.31    0.87
  -3  -2  15    0.76    0.79
   3   2 -15    0.32    0.85
  -2  -2  15    1.60    0.79
   2   2 -15    0.92    0.80
  -1  -2  15    1.68    0.81
   1   2 -15   -0.61    2.61
   0  -2  15    0.94    0.73
   0   2 -15   -2.19    2.56
   1  -2  15    2.51    0.75
  -1   2 -15   -2.06    4.40
  -2   2 -15   -3.26    4.18
   2  -2  15    0.96    0.55
  -3   2 -15    3.43    4.65
  -3  -1  15    3.43    0.95
   3   1 -15    7.40    1.30
  -2  -1  15    0.23    0.69
   2   1 -15    2.38    0.94
  -1  -1  15    0.53    0.68
   1   1 -15   -1.72    2.29
   1   1 -15    0.02    0.81
   0  -1  15    9.54    1.14
   0   1 -15   10.12    1.38
   1  -1  15    7.03    1.05
  -1   1 -15   -1.75    4.62
  -2   1 -15   -2.46    3.84
   2  -1  15    1.99    0.66
  -3   1 -15    5.16    4.45
  -3   0  15    0.20    0.72
   3   0 -15    0.29    0.83
  -2   0  15    0.35    0.67
   2   0 -15    0.26    0.86
  -1   0  15    0.32    0.68
   1   0 -15   -0.56    2.02
   1   0 -15    0.79    0.87
   0   0 -15   -4.87    3.48
   0   0 -15    0.40    0.89
   0   0  15    0.49    0.52
   1   0  15   -0.25    0.48
  -1   0 -15   -0.49    0.84
  -1   0 -15   -1.68    4.00
  -2   0 -15    3.23    4.40
  -3   0 -15    4.95    4.25
  -3   1  15    4.88    0.99
   3  -1 -15    6.17    1.29
   2  -1 -15    1.10    0.91
  -2   1  15    1.09    0.74
  -1   1  15    0.87    0.66
   1  -1 -15    0.26    0.88
   0   1  15   10.15    1.12
   0  -1 -15   -2.97    3.81
   0  -1 -15    9.38    1.41
   1   1  15    8.45    1.08
  -1  -1 -15    9.58    1.45
  -1  -1 -15    1.23    4.40
   2   1  15    1.29    0.59
  -2  -1 -15    2.06    1.08
  -2  -1 -15    2.66    4.16
  -3  -1 -15    3.90    2.60
  -3   2  15    1.04    0.82
   3  -2 -15    1.23    0.96
  -2   2  15    1.94    0.81
   2  -2 -15    0.72    0.98
  -1   2  15    1.74    0.64
   1  -2 -15    0.85    1.00
   0   2  15    1.27    0.65
   0  -2 -15    1.93    1.05
   0  -2 -15    3.56    3.69
  -1  -2 -15    2.90    1.12
   1   2  15    2.42    0.74
  -1  -2 -15    3.44    4.08
  -2  -2 -15   -1.30    0.82
   2   2  15    0.44    0.50
  -2  -2 -15   -0.93    1.98
  -3  -2 -15   -0.94    0.90
   3   2  15    0.12    0.47
   3  -3 -15    1.61    1.02
  -3   3  15    0.77    0.78
  -2   3  15   -0.22    0.66
   2  -3 -15   -0.60    0.89
   1  -3 -15    1.10    0.96
  -1   3  15    0.88    0.54
   0  -3 -15    2.36    1.06
   0  -3 -15    3.52    4.17
   0   3  15    1.86    0.67
  -1  -3 -15   13.20    4.24
  -1  -3 -15    1.99    1.08
   2   3  15    4.82    0.88
  -2  -3 -15    2.77    1.17
   3   3  15    3.17    3.05
   3   3  15    2.84    0.75
  -3  -3 -15    2.51    1.17
  -3   4  15    1.85    0.88
   3  -4 -15    3.57    1.20
  -2   4  15    4.08    0.92
   2  -4 -15    3.96    1.24
  -1   4  15    1.07    0.64
   1  -4 -15    1.63    1.03
   0  -4 -15    0.92    1.01
   0  -4 -15   -0.94    3.10
   0   4  15    1.05    0.63
  -1  -4 -15   14.29    1.73
   1   4  15   17.37    1.39
   2   4  15    5.05    2.86
   2   4  15    3.24    0.78
  -2  -4 -15    3.66    1.25
   3   4  15    2.89    2.97
   3   4  15    2.64    0.68
  -3  -4 -15    1.13    1.13
   3  -5 -15    2.07    1.10
  -3   5  15    1.45    0.84
  -2   5  15    4.73    0.94
   2  -5 -15    5.82    1.40
   1  -5 -15    8.71    1.47
  -1   5  15    9.42    1.12
   0   5  15   -0.27    0.44
   0  -5 -15    0.12    0.98
  -1  -5 -15    8.76    1.52
   1   5  15   13.86    3.08
   1   5  15    8.83    1.09
  -2  -5 -15    1.11    1.11
   2   5  15   -0.08    2.44
   2   5  15    1.47    0.61
  -3   6  15    3.92    0.94
   3  -6 -15    4.89    1.36
   2  -6 -15    2.84    1.19
  -2   6  15    2.86    0.79
   1  -6 -15    3.25    1.18
  -1   6  15    2.27    0.76
   0   6  15    3.55    0.80
   0  -6 -15    3.52    1.23
   1   6  15    2.09    0.68
  -1  -6 -15    2.07    1.15
   1   6  15    3.29    2.30
   2   6  15    5.32    2.96
   2   6  15    5.14    0.85
  -2  -6 -15    3.83    1.30
   2  -7 -15   -0.67    0.96
  -2   7  15   -0.05    0.45
  -1   7  15    1.12    0.64
   1  -7 -15    0.06    0.99
   0  -7 -15   11.96    1.73
   0   7  15   14.69    1.31
   1   7  15    3.10    2.45
   1   7  15    2.51    0.73
  -1  -7 -15    2.17    1.24
   2   7  15    0.38    0.45
   2   7  15    0.83    2.57
  -2  -7 -15   -0.55    1.03
   2  -8 -15    6.61    1.46
  -2   8  15    5.98    1.02
   1  -8 -15   -0.48    0.94
  -1   8  15   -1.19    0.38
   0   8  15    1.05    0.61
   0  -8 -15    0.28    1.10
   1   8  15    1.68    2.36
  -1  -8 -15    0.40    1.14
   1   8  15    1.94    0.64
   1  -9 -15    1.23    1.09
  -1   9  15    1.94    0.71
   0   9  15   -0.12    0.50
   0  -9 -15    1.01    1.15
   1   9  15    0.78    0.57
  -1  -9 -15   -0.56    1.08
   1   9  15    0.95    2.48
  -1  -6  16    1.13    0.88
   1   6 -16    0.55    2.71
   0  -6  16    5.00    1.07
   0   6 -16   -0.33    3.06
  -1   6 -16   -4.86    5.21
  -2  -5  16    2.11    0.95
   1   5 -16   -0.59    2.11
  -1  -5  16   -0.41    0.79
   0   5 -16    0.24    2.72
   0  -5  16    0.19    0.73
  -1   5 -16   -2.32    4.65
   1  -5  16   -0.07    0.60
  -2  -4  16    0.16    0.75
  -1  -4  16   15.63    1.61
   0   4 -16   -1.00    2.72
   0  -4  16    2.22    0.86
   1  -4  16    0.64    0.58
  -1   4 -16   -0.90    4.04
  -2  -3  16    0.21    0.76
  -1  -3  16    2.39    0.88
   1   3 -16   -0.67    2.19
   0   3 -16   -1.57    2.84
   0  -3  16   -0.14    0.72
  -1   3 -16   -1.46    3.28
   1  -3  16    0.41    0.55
  -2   3 -16   -4.09    4.40
  -2  -2  16   12.50    1.39
   1   2 -16    0.29    2.77
  -1  -2  16    2.00    0.84
   0  -2  16   -0.81    0.65
   1  -2  16    6.36    1.06
  -1   2 -16    1.39    3.63
  -2   2 -16   -5.46    4.82
   2  -2  16    1.12    0.66
  -2  -1  16    7.12    1.15
   2   1 -16    8.48    1.39
  -1  -1  16    0.73    0.74
   0  -1  16    0.34    0.59
   0   1 -16   -2.40    2.79
  -1   1 -16   -3.06    4.26
   1  -1  16   -0.35    0.52
  -2   1 -16   -5.47    4.70
   2  -1  16    3.37    0.85
   2   0 -16    0.87    0.92
  -2   0  16    0.84    0.80
   1   0 -16    3.38    1.18
  -1   0  16    3.19    0.89
   0   0  16   32.89    2.03
   0   0 -16   35.18    2.22
   1   0  16    1.31    0.64
  -1   0 -16   -3.85    4.12
  -2   0 -16    1.47    4.64
   2  -1 -16    6.96    1.38
  -2   1  16    6.44    1.16
  -1   1  16    0.89    0.73
   1  -1 -16   -0.10    0.89
   0  -1 -16    0.26    0.96
   0  -1 -16    2.43    4.58
   0   1  16    0.06    0.53
  -1  -1 -16   -4.09    3.48
  -1  -1 -16    0.20    1.02
   1   1  16    0.81    0.60
  -2  -1 -16    8.41    4.71
  -2   2  16   11.89    1.40
   2  -2 -16   14.93    1.76
   1  -2 -16    2.06    1.10
  -1   2  16    0.50    0.58
   0   2  16    0.14    0.45
   0  -2 -16   -1.12    0.82
   0  -2 -16   -5.32    3.42
  -1  -2 -16    6.79    4.47
  -1  -2 -16    4.65    1.30
   1   2  16    7.16    1.04
   2   2  16    1.36    0.61
  -2  -2 -16    0.51    1.04
  -2  -2 -16    9.85    4.27
  -2   3  16   -0.34    0.65
   2  -3 -16   -0.05    0.96
  -1   3  16    1.35    0.70
   1  -3 -16    3.19    1.20
   0  -3 -16    0.81    1.02
   0   3  16    1.07    0.64
   0  -3 -16   -1.39    3.99
  -1  -3 -16    0.46    0.95
  -1  -3 -16    8.82    4.09
  -2  -3 -16    1.38    1.94
  -2   4  16    0.04    0.72
   2  -4 -16   -0.81    0.94
  -1   4  16   14.95    1.38
   1  -4 -16   14.24    1.79
   0   4  16    2.96    0.79
   0  -4 -16    1.56    1.12
  -1  -4 -16    0.61    1.07
   1   4  16    0.66    0.53
  -1  -4 -16    8.00    3.75
  -2   5  16    1.30    0.70
  -1   5  16    0.00    0.52
   1  -5 -16    0.90    1.11
   0   5  16    0.16    0.52
   0  -5 -16    0.63    1.07
  -1  -5 -16   -0.20    0.98
  -1  -5 -16    6.56    2.39
   1   5  16    0.23    0.46
   1  -6 -16    1.53    1.15
  -1   6  16    2.09    0.77
   0   6  16    5.77    0.98
   0  -6 -16    6.19    1.47
   1   6  16    3.36    2.72
   0   0   0    0.00    0.00
;
_shelx_hkl_checksum              90063
_shelx_res_file
;
TITL skd1117m in P2(1)/c
CELL 0.71073 6.4938 17.6654 13.5081 90 92.402 90
ZERR 4 0.0038 0.0104 0.0079 0 0.009 0
LATT 1
SYMM -X,0.5+Y,0.5-Z
SFAC C H Cl N O S
UNIT 40 72 4 20 4 4
EQIV $1 +X,0.5-Y,-0.5+Z
EQIV $2 3-X,1-Y,2-Z
EQIV $3 -1+X,0.5-Y,0.5+Z
DFIX 1.54 C9A C10A C9 C10 C9 C8 C9A C8A C8 C7 C8A C7
SIMU 0.02 0.02 1.7 C8 > C10A
RIGU C8 > C10A
L.S. 10
PLAN  10
SIZE 0.3 0.2 0.14
TEMP 27
HTAB N1 O1_$1
HTAB N4 S1_$2
HTAB N5 O1_$1
HTAB O1 S1_$3
HTAB O1 N2
more -1
wpdb -1
htab
conf
BOND $H
fmap 2
acta
REM <olex2.extras>
REM <HklSrc "%F:\\SingleCrystals\\Working\\2015\\Selva_Karvembu\\skd1117m.hkl">
REM </olex2.extras>
WGHT    0.089600    0.124900
FVAR       0.60139   0.49100
CL1   3    1.099169    0.286473    1.336638    11.00000    0.12519    0.15905 =
         0.07573    0.02628   -0.00675   -0.03002
S1    6    1.408703    0.507046    0.840421    11.00000    0.07727    0.08235 =
         0.07395    0.01686    0.01549   -0.00574
N1    4    0.771608    0.303010    1.096682    11.00000    0.07412    0.06584 =
         0.06478    0.00149    0.01310    0.00463
AFIX  43
H1    2    0.739010    0.317740    1.037399    11.00000   -1.20000
AFIX   0
N2    4    0.751563    0.243649    1.238662    11.00000    0.08859    0.07910 =
         0.07503    0.00757    0.02484   -0.00824
N3    4    1.078615    0.394797    1.024554    11.00000    0.07005    0.06596 =
         0.06782    0.00614    0.01598   -0.00277
N4    4    1.229727    0.439193    0.987099    11.00000    0.07079    0.07656 =
         0.06708    0.01097    0.00909   -0.00813
AFIX  43
H4    2    1.332514    0.454076    1.024343    11.00000   -1.20000
AFIX   0
N5    4    1.046100    0.438059    0.841779    11.00000    0.07875    0.08864 =
         0.06636    0.00754    0.01029   -0.00831
AFIX  43
H5    2    0.954590    0.414134    0.873735    11.00000   -1.20000
AFIX   0
C1    1    1.003073    0.452227    0.737355    11.00000    0.10379    0.13234 =
         0.07071    0.01405   -0.00335   -0.01948
AFIX 137
H1A   2    0.979903    0.505366    0.727017    11.00000   -1.50000
H1B   2    0.882443    0.424494    0.715473    11.00000   -1.50000
H1C   2    1.118351    0.436211    0.700355    11.00000   -1.50000
AFIX   0
C2    1    1.214316    0.459081    0.890929    11.00000    0.06921    0.06098 =
         0.06563    0.00473    0.01376    0.00527
C3    1    1.098882    0.372221    1.113666    11.00000    0.07592    0.06529 =
         0.06608    0.00342    0.01005   -0.00256
AFIX  43
H3    2    1.211716    0.386983    1.153756    11.00000   -1.20000
AFIX   0
C4    1    0.944367    0.323641    1.150865    11.00000    0.07598    0.06335 =
         0.06191    0.00010    0.01463   -0.00167
C5    1    0.927051    0.286021    1.238007    11.00000    0.08914    0.08082 =
         0.06365    0.00679    0.01333   -0.00509
C6    1    0.660692    0.255745    1.151511    11.00000    0.07433    0.06815 =
         0.07709   -0.00077    0.02314    0.00209
C7    1    0.466546    0.219348    1.113412    11.00000    0.07272    0.09563 =
         0.12729    0.00243    0.01889   -0.00291
PART 1
AFIX  23
H7AA  2    0.393006    0.202394    1.170389    21.00000   -1.20000
H7AB  2    0.382971    0.258459    1.081250    21.00000   -1.20000
AFIX  23
PART 0
PART 2
H7BC  2    0.411310    0.247327    1.056499   -21.00000   -1.20000
H7BD  2    0.365439    0.220650    1.164246   -21.00000   -1.20000
AFIX   0
PART 0
PART 1
C8    1    0.473910    0.157629    1.046828    21.00000    0.12251    0.17969 =
         0.11050   -0.04012   -0.01636   -0.01882
AFIX  23
H8A   2    0.419159    0.176878    0.983828    21.00000   -1.20000
H8B   2    0.373221    0.121581    1.069199    21.00000   -1.20000
AFIX   0
PART 0
PART 2
C8A   1    0.505816    0.136657    1.083310   -21.00000    0.08650    0.11485 =
         0.10101   -0.02664   -0.01339   -0.01733
AFIX  23
H8AA  2    0.377205    0.109721    1.070734   -21.00000   -1.20000
H8AB  2    0.587097    0.110205    1.134300   -21.00000   -1.20000
AFIX   0
PART 0
PART 1
C9    1    0.657606    0.111659    1.022712    21.00000    0.17257    0.13786 =
         0.11067   -0.02450   -0.00107    0.01805
AFIX  23
H9A   2    0.668433    0.064721    1.059828    21.00000   -1.20000
H9B   2    0.785776    0.139803    1.028760    21.00000   -1.20000
AFIX   0
PART 0
PART 2
C9A   1    0.631580    0.145211    0.983097   -21.00000    0.16538    0.11906 =
         0.10885   -0.04087    0.02746   -0.01878
AFIX  23
H9AA  2    0.543090    0.167143    0.931041   -21.00000   -1.20000
H9AB  2    0.748784    0.178529    0.994891   -21.00000   -1.20000
AFIX   0
PART 0
PART 1
C10   1    0.577482    0.100155    0.912033    21.00000    0.18246    0.17212 =
         0.11498   -0.01757    0.00293    0.00723
AFIX  33
H10A  2    0.674810    0.070155    0.877577    21.00000   -1.50000
H10B  2    0.446725    0.074744    0.910810    21.00000   -1.50000
H10C  2    0.562086    0.148557    0.880268    21.00000   -1.50000
AFIX   0
PART 0
PART 2
C10A  1    0.708195    0.064527    0.950063   -21.00000    0.22746    0.13628 =
         0.15910   -0.05705    0.05746   -0.01354
AFIX  33
H10D  2    0.782983    0.069311    0.890568   -21.00000   -1.50000
H10E  2    0.796622    0.043302    1.001607   -21.00000   -1.50000
H10F  2    0.591526    0.031949    0.937943   -21.00000   -1.50000
AFIX   0
PART 0
O1    5    0.659054    0.153119    1.400123    11.00000    0.10944    0.09339 =
         0.06985    0.00728    0.00229   -0.03191
AFIX   3  0.8500
H1D   2    0.607754    0.111749    1.378473    11.00000   -1.50000
H1E   2    0.678384    0.180819    1.349903    11.00000   -1.50000
AFIX   0
HKLF 4
REM  skd1117m in P2(1)/c
REM R1 =  0.0486 for    2347 Fo > 4sig(Fo)  and  0.0645 for all    3151 data
REM    192 parameters refined using     90 restraints
END
WGHT      0.0893      0.1250
REM Instructions for potential hydrogen bonds
HTAB N1 O1_$1
HTAB N4 S1_$2
HTAB N5 O1_$1
HTAB O1 S1_$3
HTAB O1 N2
REM Highest difference peak  0.229,  deepest hole -0.306,  1-sigma level  0.081
Q1    1   0.1678  0.0649  0.9853  11.00000  0.05    0.23
Q2    1   0.7934  0.1587  1.0229  11.00000  0.05    0.22
Q3    1   0.5010  0.0996  1.1740  11.00000  0.05    0.21
Q4    1   0.3436  0.1093  1.0086  11.00000  0.05    0.21
Q5    1   0.6579  0.1917  0.9263  11.00000  0.05    0.19
Q6    1   1.4452  0.4559  0.8177  11.00000  0.05    0.19
Q7    1   0.2388  0.0488  1.0512  11.00000  0.05    0.19
Q8    1   1.0108  0.0484  0.9253  11.00000  0.05    0.18
Q9    1   0.4712  0.0833  1.2318  11.00000  0.05    0.18
Q10   1   0.4043  0.0609  1.1828  11.00000  0.05    0.18
;
_shelx_res_checksum              88052
loop_
_space_group_symop_operation_xyz
'x, y, z'
'-x, y+1/2, -z+1/2'
'-x, -y, -z'
'x, -y-1/2, z-1/2'
loop_
_atom_site_type_symbol
_atom_site_label
_atom_site_fract_x
_atom_site_fract_y
_atom_site_fract_z
_atom_site_U_iso_or_equiv
_atom_site_adp_type
_atom_site_calc_flag
_atom_site_occupancy
_atom_site_disorder_assembly
_atom_site_disorder_group
Cl Cl1 1.09917(13) 0.28647(5) 1.33664(5) 0.1203(3) Uani d 1 . .
S S1 1.40870(8) 0.50705(3) 0.84042(4) 0.0775(2) Uani d 1 . .
N N1 0.7716(2) 0.30301(9) 1.09668(13) 0.0680(4) Uani d 1 . .
H H1 0.7390 0.3177 1.0374 0.082 Uiso calc 1 . .
N N2 0.7516(3) 0.24365(10) 1.23866(15) 0.0803(5) Uani d 1 . .
N N3 1.0786(2) 0.39480(9) 1.02455(12) 0.0676(4) Uani d 1 . .
N N4 1.2297(2) 0.43919(9) 0.98710(13) 0.0713(4) Uani d 1 . .
H H4 1.3325 0.4541 1.0243 0.086 Uiso calc 1 . .
N N5 1.0461(3) 0.43806(11) 0.84178(13) 0.0777(5) Uani d 1 . .
H H5 0.9546 0.4141 0.8737 0.093 Uiso calc 1 . .
C C1 1.0031(4) 0.45223(17) 0.73736(19) 0.1025(8) Uani d 1 . .
H H1A 0.9799 0.5054 0.7270 0.154 Uiso calc 1 . .
H H1B 0.8824 0.4245 0.7155 0.154 Uiso calc 1 . .
H H1C 1.1184 0.4362 0.7004 0.154 Uiso calc 1 . .
C C2 1.2143(3) 0.45908(10) 0.89093(15) 0.0650(5) Uani d 1 . .
C C3 1.0989(3) 0.37222(11) 1.11367(16) 0.0689(5) Uani d 1 . .
H H3 1.2117 0.3870 1.1538 0.083 Uiso calc 1 . .
C C4 0.9444(3) 0.32364(11) 1.15086(14) 0.0668(5) Uani d 1 . .
C C5 0.9271(3) 0.28602(12) 1.23801(17) 0.0776(6) Uani d 1 . .
C C6 0.6607(3) 0.25575(11) 1.15151(18) 0.0726(5) Uani d 1 . .
C C7 0.4665(4) 0.21935(15) 1.1134(2) 0.0981(8) Uani d 1 . .
H H7AA 0.3930 0.2024 1.1704 0.118 Uiso calc 0.491(9) A 1
H H7AB 0.3830 0.2585 1.0812 0.118 Uiso calc 0.491(9) A 1
H H7BC 0.4113 0.2473 1.0565 0.118 Uiso calc 0.509(9) A 2
H H7BD 0.3654 0.2206 1.1642 0.118 Uiso calc 0.509(9) A 2
C C8 0.4739(19) 0.1576(8) 1.0468(9) 0.138(4) Uani d 0.491(9) A 1
H H8A 0.4192 0.1769 0.9838 0.166 Uiso calc 0.491(9) A 1
H H8B 0.3732 0.1216 1.0692 0.166 Uiso calc 0.491(9) A 1
C C8A 0.5058(15) 0.1367(5) 1.0833(7) 0.101(2) Uani d 0.509(9) A 2
H H8AA 0.3772 0.1097 1.0707 0.122 Uiso calc 0.509(9) A 2
H H8AB 0.5871 0.1102 1.1343 0.122 Uiso calc 0.509(9) A 2
C C9 0.6576(17) 0.1117(7) 1.0227(7) 0.141(3) Uani d 0.491(9) A 1
H H9A 0.6684 0.0647 1.0598 0.169 Uiso calc 0.491(9) A 1
H H9B 0.7858 0.1398 1.0288 0.169 Uiso calc 0.491(9) A 1
C C9A 0.6316(17) 0.1452(5) 0.9831(7) 0.130(3) Uani d 0.509(9) A 2
H H9AA 0.5431 0.1671 0.9310 0.157 Uiso calc 0.509(9) A 2
H H9AB 0.7488 0.1785 0.9949 0.157 Uiso calc 0.509(9) A 2
C C10 0.5775(17) 0.1002(7) 0.9120(6) 0.157(3) Uani d 0.491(9) A 1
H H10A 0.6748 0.0702 0.8776 0.235 Uiso calc 0.491(9) A 1
H H10B 0.4467 0.0747 0.9108 0.235 Uiso calc 0.491(9) A 1
H H10C 0.5621 0.1486 0.8803 0.235 Uiso calc 0.491(9) A 1
C C10A 0.708(2) 0.0645(5) 0.9501(9) 0.173(4) Uani d 0.509(9) A 2
H H10D 0.7830 0.0693 0.8906 0.259 Uiso calc 0.509(9) A 2
H H10E 0.7966 0.0433 1.0016 0.259 Uiso calc 0.509(9) A 2
H H10F 0.5915 0.0319 0.9379 0.259 Uiso calc 0.509(9) A 2
O O1 0.6591(2) 0.15312(9) 1.40012(11) 0.0909(5) Uani d 1 . .
H H1D 0.6078 0.1117 1.3785 0.136 Uiso d 1 . .
H H1E 0.6784 0.1808 1.3499 0.136 Uiso d 1 . .
loop_
_atom_site_aniso_label
_atom_site_aniso_U_11
_atom_site_aniso_U_22
_atom_site_aniso_U_33
_atom_site_aniso_U_12
_atom_site_aniso_U_13
_atom_site_aniso_U_23
Cl1 0.1252(6) 0.1591(8) 0.0757(5) -0.0300(5) -0.0068(4) 0.0263(4)
S1 0.0773(4) 0.0824(4) 0.0740(4) -0.0057(2) 0.0155(3) 0.0169(3)
N1 0.0741(9) 0.0658(9) 0.0648(10) 0.0046(7) 0.0131(8) 0.0015(8)
N2 0.0886(11) 0.0791(11) 0.0750(13) -0.0082(9) 0.0248(10) 0.0076(9)
N3 0.0701(9) 0.0660(9) 0.0678(11) -0.0028(7) 0.0160(7) 0.0061(8)
N4 0.0708(9) 0.0766(10) 0.0671(11) -0.0081(8) 0.0091(8) 0.0110(8)
N5 0.0788(11) 0.0886(12) 0.0664(11) -0.0083(9) 0.0103(9) 0.0075(9)
C1 0.1038(17) 0.132(2) 0.0707(16) -0.0195(16) -0.0034(13) 0.0140(15)
C2 0.0692(11) 0.0610(11) 0.0656(12) 0.0053(8) 0.0138(9) 0.0047(9)
C3 0.0759(11) 0.0653(11) 0.0661(13) -0.0026(9) 0.0101(9) 0.0034(9)
C4 0.0760(11) 0.0633(11) 0.0619(12) -0.0017(9) 0.0146(9) 0.0001(9)
C5 0.0891(14) 0.0808(13) 0.0636(13) -0.0051(11) 0.0133(10) 0.0068(10)
C6 0.0743(11) 0.0682(12) 0.0771(15) 0.0021(9) 0.0231(10) -0.0008(10)
C7 0.0727(13) 0.0956(17) 0.127(2) -0.0029(12) 0.0189(13) 0.0024(16)
C8 0.123(6) 0.180(8) 0.110(7) -0.019(5) -0.016(5) -0.040(6)
C8A 0.086(4) 0.115(5) 0.101(5) -0.017(3) -0.013(4) -0.027(4)
C9 0.173(5) 0.138(7) 0.111(6) 0.018(5) -0.001(5) -0.024(5)
C9A 0.165(6) 0.119(5) 0.109(6) -0.019(4) 0.027(5) -0.041(4)
C10 0.182(7) 0.172(7) 0.115(5) 0.007(6) 0.003(5) -0.018(5)
C10A 0.227(8) 0.136(6) 0.159(7) -0.014(5) 0.057(6) -0.057(5)
O1 0.1094(11) 0.0934(10) 0.0699(10) -0.0319(9) 0.0023(8) 0.0073(8)
loop_
_atom_type_symbol
_atom_type_description
_atom_type_scat_dispersion_real
_atom_type_scat_dispersion_imag
_atom_type_scat_source
C C 0.0033 0.0016 'International Tables Vol C Tables 4.2.6.8 and 6.1.1.4'
H H 0.0000 0.0000 'International Tables Vol C Tables 4.2.6.8 and 6.1.1.4'
Cl Cl 0.1484 0.1585 'International Tables Vol C Tables 4.2.6.8 and 6.1.1.4'
N N 0.0061 0.0033 'International Tables Vol C Tables 4.2.6.8 and 6.1.1.4'
O O 0.0106 0.0060 'International Tables Vol C Tables 4.2.6.8 and 6.1.1.4'
S S 0.1246 0.1234 'International Tables Vol C Tables 4.2.6.8 and 6.1.1.4'
loop_
_geom_angle_atom_site_label_1
_geom_angle_atom_site_label_2
_geom_angle_atom_site_label_3
_geom_angle
C4 N1 H1 125.7
C6 N1 H1 125.7
C6 N1 C4 108.54(19)
C6 N2 C5 104.44(17)
C3 N3 N4 118.86(17)
N3 N4 H4 120.6
C2 N4 N3 118.74(17)
C2 N4 H4 120.6
C1 N5 H5 117.7
C2 N5 H5 117.7
C2 N5 C1 124.62(18)
N5 C1 H1A 109.5
N5 C1 H1B 109.5
N5 C1 H1C 109.5
H1A C1 H1B 109.5
H1A C1 H1C 109.5
H1B C1 H1C 109.5
N4 C2 S1 119.65(16)
N5 C2 S1 124.06(17)
N5 C2 N4 116.27(17)
N3 C3 H3 120.8
N3 C3 C4 118.4(2)
C4 C3 H3 120.8
N1 C4 C3 123.13(19)
C5 C4 N1 103.76(18)
C5 C4 C3 133.1(2)
N2 C5 Cl1 121.25(17)
C4 C5 Cl1 126.82(18)
C4 C5 N2 111.9(2)
N1 C6 C7 122.9(2)
N2 C6 N1 111.4(2)
N2 C6 C7 125.6(2)
C6 C7 H7AA 107.3
C6 C7 H7AB 107.3
C6 C7 H7BC 109.5
C6 C7 H7BD 109.5
C6 C7 C8A 110.7(4)
H7AA C7 H7AB 106.9
H7BC C7 H7BD 108.1
C8 C7 C6 120.1(5)
C8 C7 H7AA 107.3
C8 C7 H7AB 107.3
C8A C7 H7BC 109.5
C8A C7 H7BD 109.5
C7 C8 H8A 105.5
C7 C8 H8B 105.5
C7 C8 C9 127.4(10)
H8A C8 H8B 106.0
C9 C8 H8A 105.5
C9 C8 H8B 105.5
C7 C8A H8AA 111.1
C7 C8A H8AB 111.1
C7 C8A C9A 103.1(7)
H8AA C8A H8AB 109.1
C9A C8A H8AA 111.1
C9A C8A H8AB 111.1
C8 C9 H9A 113.2
C8 C9 H9B 113.2
C8 C9 C10 92.4(10)
H9A C9 H9B 110.6
C10 C9 H9A 113.2
C10 C9 H9B 113.2
C8A C9A H9AA 109.8
C8A C9A H9AB 109.8
H9AA C9A H9AB 108.3
C10A C9A C8A 109.2(9)
C10A C9A H9AA 109.8
C10A C9A H9AB 109.8
C9 C10 H10A 109.5
C9 C10 H10B 109.5
C9 C10 H10C 109.5
H10A C10 H10B 109.5
H10A C10 H10C 109.5
H10B C10 H10C 109.5
C9A C10A H10D 109.5
C9A C10A H10E 109.5
C9A C10A H10F 109.5
H10D C10A H10E 109.5
H10D C10A H10F 109.5
H10E C10A H10F 109.5
H1D O1 H1E 106.8
loop_
_geom_bond_atom_site_label_1
_geom_bond_atom_site_label_2
_geom_bond_distance
Cl1 C5 1.703(3)
S1 C2 1.688(2)
N1 H1 0.8600
N1 C4 1.363(3)
N1 C6 1.345(3)
N2 C5 1.364(3)
N2 C6 1.312(3)
N3 N4 1.370(2)
N3 C3 1.270(3)
N4 H4 0.8600
N4 C2 1.345(3)
N5 H5 0.8600
N5 C1 1.448(3)
N5 C2 1.308(3)
C1 H1A 0.9600
C1 H1B 0.9600
C1 H1C 0.9600
C3 H3 0.9300
C3 C4 1.428(3)
C4 C5 1.361(3)
C6 C7 1.488(3)
C7 H7AA 0.9700
C7 H7AB 0.9700
C7 H7BC 0.9700
C7 H7BD 0.9700
C7 C8 1.415(11)
C7 C8A 1.540(9)
C8 H8A 0.9700
C8 H8B 0.9700
C8 C9 1.490(13)
C8A H8AA 0.9700
C8A H8AB 0.9700
C8A C9A 1.617(12)
C9 H9A 0.9700
C9 H9B 0.9700
C9 C10 1.575(12)
C9A H9AA 0.9700
C9A H9AB 0.9700
C9A C10A 1.580(12)
C10 H10A 0.9600
C10 H10B 0.9600
C10 H10C 0.9600
C10A H10D 0.9600
C10A H10E 0.9600
C10A H10F 0.9600
O1 H1D 0.8500
O1 H1E 0.8500
loop_
_geom_hbond_atom_site_label_D
_geom_hbond_atom_site_label_H
_geom_hbond_atom_site_label_A
_geom_hbond_site_symmetry_A
_geom_hbond_distance_DH
_geom_hbond_distance_HA
_geom_hbond_distance_DA
_geom_hbond_angle_DHA
O1 H1E N2 . 0.85 1.94 2.790(3) 174
N1 H1 O1 4_565 0.86 1.97 2.832(3) 177
N5 H5 O1 4_565 0.86 2.30 3.114(3) 159
O1 H1D S1 4_466 0.85 2.51 3.345(2) 169
N4 H4 S1 3_867 0.86 2.52 3.374(2) 169
loop_
_geom_torsion_atom_site_label_1
_geom_torsion_atom_site_label_2
_geom_torsion_atom_site_label_3
_geom_torsion_atom_site_label_4
_geom_torsion
N1 C4 C5 Cl1 178.29(17)
N1 C4 C5 N2 0.0(2)
N1 C6 C7 C8 75.8(8)
N1 C6 C7 C8A 101.2(4)
N2 C6 C7 C8 -100.3(8)
N2 C6 C7 C8A -75.0(5)
N3 N4 C2 S1 -174.50(13)
N3 N4 C2 N5 4.4(3)
N3 C3 C4 N1 -3.0(3)
N3 C3 C4 C5 174.6(2)
N4 N3 C3 C4 -177.68(16)
C1 N5 C2 S1 0.5(3)
C1 N5 C2 N4 -178.3(2)
C3 N3 N4 C2 175.86(17)
C3 C4 C5 Cl1 0.4(4)
C3 C4 C5 N2 -177.9(2)
C4 N1 C6 N2 -0.4(2)
C4 N1 C6 C7 -177.11(19)
C5 N2 C6 N1 0.4(2)
C5 N2 C6 C7 177.0(2)
C6 N1 C4 C3 178.42(17)
C6 N1 C4 C5 0.2(2)
C6 N2 C5 Cl1 -178.66(17)
C6 N2 C5 C4 -0.3(2)
C6 C7 C8 C9 13(2)
C6 C7 C8A C9A -72.0(8)
C7 C8 C9 C10 -146.0(13)
C7 C8A C9A C10A 172.9(8)
C8 C7 C8A C9A 45.5(17)
C8A C7 C8 C9 -60.1(16)

_cod_database_fobs_code 1544227
