#------------------------------------------------------------------------------
#$Date: 2016-11-30 04:38:40 +0200 (Wed, 30 Nov 2016) $
#$Revision: 188756 $
#$URL: file:///home/coder/svn-repositories/cod/cif/1/54/46/1544694.cif $
#------------------------------------------------------------------------------
#
# This file is available in the Crystallography Open Database (COD),
# http://www.crystallography.net/. The original data for this entry
# were provided by IUCr Journals, http://journals.iucr.org/.
#
# The file may be used within the scientific community so long as
# proper attribution is given to the journal article from which the
# data were obtained.
#
data_1544694
loop_
_publ_author_name
'Bakhite, Etify A.'
'Kaur, Manpreet'
'Akkurt, Mehmet'
'Mohamed, Shaaban K.'
'Jasinski, Jerry P.'
'Albayati, Mustafa R.'
_publ_section_title
;
 Ethyl
 8-amino-7-(furan-2-yl)-5,6-dihydrothieno[2,3-<i>b</i>]benzo[<i>h</i>]quinoline-9-carboxylate
;
_journal_coeditor_code           ZP4010
_journal_issue                   11
_journal_name_full               IUCrData
_journal_page_first              x161884
_journal_paper_doi               10.1107/S2414314616018848
_journal_volume                  1
_journal_year                    2016
_chemical_formula_iupac          'C22 H18 N2 O3 S'
_chemical_formula_moiety         'C22 H18 N2 O3 S'
_chemical_formula_sum            'C22 H18 N2 O3 S'
_chemical_formula_weight         390.44
_chemical_name_systematic
'Ethyl 8-amino-7-(furan-2-yl)-5,6-dihydrothieno[2,3-<i>b</i>]benzo[<i>h</i>]quinoline-9-carboxylate'
_space_group_crystal_system      monoclinic
_space_group_IT_number           14
_space_group_name_Hall           '-P 2yn'
_space_group_name_H-M_alt        'P 1 21/n 1'
_symmetry_space_group_name_Hall  '-P 2yn'
_symmetry_space_group_name_H-M   'P 1 21/n 1'
_atom_sites_solution_hydrogens   mixed
_audit_creation_method           SHELXL-2016/4
_cell_angle_alpha                90
_cell_angle_beta                 90.0380(10)
_cell_angle_gamma                90
_cell_formula_units_Z            8
_cell_length_a                   11.52270(10)
_cell_length_b                   25.5293(3)
_cell_length_c                   12.47490(10)
_cell_measurement_reflns_used    11878
_cell_measurement_temperature    173(2)
_cell_measurement_theta_max      71.5130
_cell_measurement_theta_min      3.9450
_cell_volume                     3669.70(6)
_computing_cell_refinement
;
CrysAlis PRO (Agilent, 2014)
;
_computing_data_collection
;
CrysAlis PRO (Agilent, 2014)
;
_computing_data_reduction
;
CrysAlis PRO (Agilent, 2014)
;
_computing_molecular_graphics
;
<i>OLEX2</i> (Dolomanov <i>et al.</i>,  2009)
;
_computing_publication_material
;
<i>OLEX2</i> (Dolomanov <i>et al.</i>,  2009)
;
_computing_structure_refinement
;
SHELXL2014 (Sheldrick, 2015b)
;
_computing_structure_solution
;
SHELXT (Sheldrick, 2015a)
;
_diffrn_ambient_temperature      173(2)
_diffrn_measured_fraction_theta_full 1.000
_diffrn_measured_fraction_theta_max 0.987
_diffrn_measurement_device       'four-circle diffractometer'
_diffrn_measurement_device_type  'Rigaku Oxford Diffraction'
_diffrn_measurement_method       '\w scans'
_diffrn_radiation_monochromator  graphite
_diffrn_radiation_type           CuK\a
_diffrn_radiation_wavelength     1.54184
_diffrn_reflns_av_R_equivalents  0.0410
_diffrn_reflns_limit_h_max       14
_diffrn_reflns_limit_h_min       -14
_diffrn_reflns_limit_k_max       31
_diffrn_reflns_limit_k_min       -31
_diffrn_reflns_limit_l_max       9
_diffrn_reflns_limit_l_min       -15
_diffrn_reflns_number            26340
_diffrn_reflns_theta_full        67.684
_diffrn_reflns_theta_max         71.546
_diffrn_reflns_theta_min         3.462
_diffrn_standards_decay_%        0
_diffrn_standards_interval_count 0
_diffrn_standards_interval_time  0
_diffrn_standards_number         0
_exptl_absorpt_coefficient_mu    1.791
_exptl_absorpt_correction_T_max  1.00000
_exptl_absorpt_correction_T_min  0.85021
_exptl_absorpt_correction_type   multi-scan
_exptl_absorpt_process_details
;
(CrysAlis PRO; Agilent, 2014)
;
_exptl_crystal_colour            yellow
_exptl_crystal_density_diffrn    1.413
_exptl_crystal_description       prism
_exptl_crystal_F_000             1632
_exptl_crystal_size_max          0.24
_exptl_crystal_size_mid          0.22
_exptl_crystal_size_min          0.18
_refine_diff_density_max         0.509
_refine_diff_density_min         -0.347
_refine_ls_extinction_method     none
_refine_ls_goodness_of_fit_ref   1.015
_refine_ls_hydrogen_treatment    mixed
_refine_ls_matrix_type           full
_refine_ls_number_parameters     535
_refine_ls_number_reflns         7070
_refine_ls_number_restraints     6
_refine_ls_restrained_S_all      1.015
_refine_ls_R_factor_all          0.0478
_refine_ls_R_factor_gt           0.0424
_refine_ls_shift/su_max          0.001
_refine_ls_shift/su_mean         0.000
_refine_ls_structure_factor_coef Fsqd
_refine_ls_weighting_details
'w=1/[\s^2^(Fo^2^)+(0.0748P)^2^+1.4658P] where P=(Fo^2^+2Fc^2^)/3'
_refine_ls_weighting_scheme      calc
_refine_ls_wR_factor_gt          0.1147
_refine_ls_wR_factor_ref         0.1206
_reflns_number_gt                6264
_reflns_number_total             7070
_reflns_threshold_expression     'I > 2\s(I)'
_cod_data_source_file            zp4010sup1.cif
_cod_data_source_block           I
_cod_database_code               1544694
_shelx_space_group_comment
;
The symmetry employed for this shelxl refinement is uniquely defined
by the following loop, which should always be used as a source of
symmetry information in preference to the above space-group names.
They are only intended as comments.
;
_shelx_hkl_file
;
   0   0  -1 114.975 20.6081  34
   0   0  -2 83805.3 1316.98  32
   0   0   2 74361.0 1260.20   3
   0   0  -2 72032.9 1328.87  30
   0   0  -2 73166.4 1360.84  34
   0   0  -2 78656.9 1305.11  28
   0   0  -2 83682.9 1301.74   2
   0   0  -3 23.3648 20.5067   2
   0   0   3 5.90812 11.7798   3
   0   0  -3 19.4723 31.0581  30
   0   0   3 4.19261 22.7306  31
   0   0   4 283474. 4679.03  31
   0   0  -4 277684. 4808.83  34
   0   0  -4 278253. 4772.99  30
   0   0   5 46.7473 26.9330  31
   0   0  -5 40.6059 45.0452  30
   0   0  -5 35.6785 58.5452  34
   0   0  -5 93.6182 33.9735   2
   0   0   6 3601.55 196.534  31
   0   0  -6 3343.72 242.934  30
   0   0  -6 3579.19 199.107   2
   0   0  -6 3507.82 262.183  34
   0   0  -7 11.4676 51.4547  34
   0   0  -7-89.4536 85.4060  30
   0   0  -8 6753.22 437.421  34
   0   0  -9 24.1027 46.3618  34
   0   0 -10 9061.96 276.043  14
   0   0 -10 8560.08 285.416  20
   0   0 -10 8978.83 290.013  18
   0   0 -11-35.4844 35.5954  20
   0   0 -11-4.45581 24.1544  18
   0   0 -11-52.7408 32.9771  14
   0   0 -12 2051.98 130.729  18
   0   0 -12 2354.84 130.597  14
   0   0 -12 2274.06 137.065  20
   0   0 -13-25.2608 33.5952  18
   0   0 -14 1986.97 114.050  15
   0   0 -14 1965.35 111.622  18
   0   0 -15-0.70547 18.5517  15
   0   1  -1 93.3143 17.5724  34
   0  -1  -1 78.0722 18.5666  34
   0   1  -1 122.913 18.7537  30
   0  -1   1 43.3807 11.7839   3
   0  -1  -1 127.496 24.0219  29
   0   1  -1 87.8169 13.0392  33
   0  -1  -1 58.9807 13.6832   2
   0   1  -2 64590.6 1093.16  30
   0  -1   2 58316.6 1045.68   3
   0  -1  -2 62749.2 1114.83  34
   0   1   2 61626.0 1018.18  31
   0  -1  -2 63046.6 1078.87  32
   0  -1  -2 60819.5 1056.43  28
   0   1  -2 60594.8 1047.65  33
   0   1  -2 56368.9 1103.52  34
   0  -1  -2 64338.4 1064.96   2
   0  -1  -3 86751.7 1410.48  32
   0  -1  -3 78941.4 1373.86  28
   0  -1  -3 77083.5 1422.33  30
   0  -1   3 80072.8 1347.45   3
   0   1   3 82638.0 1335.65  31
   0   1  -3 81152.2 1463.02  34
   0  -1   3 80682.0 1401.58  31
   0  -1  -3 92920.3 1396.12   2
   0   1  -3 85281.1 1440.86  30
   0  -1  -3 79232.1 1458.77  34
   0   1   3 69955.6 1256.81   3
   0  -1  -4 262086. 4390.08  34
   0  -1  -4 266032. 4256.30   2
   0   1   4 279937. 4219.81  31
   0  -1   4 269913. 4208.12   3
   0   1  -4 260553. 4230.23   2
   0   1  -4 245886. 4372.13  34
   0  -1   4 244309. 4275.51  31
   0  -1  -4 232307. 4323.52  30
   0  -1  -4 272501. 4298.34  32
   0   1  -4 248076. 4336.13  30
   0   1  -5 29197.0 799.562  34
   0   1  -5 26185.4 742.910  30
   0  -1  -5 29383.5 677.691   2
   0   1   5 29492.4 641.253  31
   0  -1   5 30049.5 603.046  35
   0  -1   5 28855.3 699.705  31
   0  -1  -5 31064.2 815.507  34
   0  -1  -5 29072.3 774.077  30
   0   1  -5 31905.3 679.063   2
   0   1  -6 4139.00 286.974  34
   0   1  -6 4758.23 230.011   2
   0  -1   6 4389.42 235.538  31
   0  -1  -6 4318.61 224.481   2
   0   1  -6 4095.18 268.453  30
   0  -1  -6 4063.16 274.192  30
   0  -1  -6 4306.14 291.777  34
   0   1  -7 9.88181 58.3687  30
   0  -1  -7 36.8009 51.0651  34
   0   1  -7 12.6307 49.3704  34
   0  -1  -7 10.6087 60.0275  30
   0  -1  -8 657.874 135.622  34
   0   1  -8 458.502 116.755  34
   0  -1  -8 761.358 140.720  30
   0   1  -9 1890.89 240.051  34
   0  -1  -9 1971.41 252.700  34
   0  -1 -10 47.7381 25.6431  14
   0   1 -10 53.1473 22.3581  20
   0  -1 -10 80.6039 31.2374  18
   0   1 -10 44.0549 26.3968  14
   0  -1 -10 108.102 34.5241  20
   0   1 -10 127.060 37.7681  18
   0   1 -11 131.169 38.5156  18
   0   1 -11 111.029 35.0838  20
   0   1 -11 189.752 43.2590  14
   0  -1 -11 253.894 49.1641  18
   0  -1 -11 133.949 40.4264  20
   0  -1 -11 124.280 27.6593  14
   0  -1 -12 18.4196 31.3389  20
   0   1 -12 36.3618 29.5245  20
   0  -1 -12 116.338 44.1225  14
   0  -1 -12 60.6996 35.0680  18
   0   1 -12 22.2576 30.8276  18
   0   1 -13 370.498 58.3354  18
   0  -1 -13 364.940 55.8559  18
   0   1 -14 1746.39 106.637  15
   0   1 -14 1874.53 108.412  18
   0  -1 -14 1868.25 106.949  18
   0  -1 -15 67.3150 21.0095  18
   0  -1 -15 99.5411 26.8917  15
   0   1 -15 134.525 28.9870  15
   0  -2   0 4607.74 127.338   2
   0  -2  -1 134427. 2183.35   2
   0  -2  -1 129601. 2167.81  34
   0  -2  -1 129074. 2176.93  29
   0  -2  -1 138866. 2137.39  35
   0  -2   1 133430. 2192.90   3
   0   2  -1 120226. 2161.94  34
   0  -2  -1 142668. 2123.83   1
   0  -2   2 18387.2 416.528   3
   0  -2  -2 19535.6 442.652  34
   0   2  -2 20261.9 389.441  33
   0   2  -2 19476.0 443.613  34
   0  -2  -2 18173.1 409.306   2
   0   2  -2 19617.6 420.220  30
   0   2   3 114280. 1836.54  31
   0  -2   3 113892. 1977.51  31
   0   2  -3 118936. 1980.65  30
   0  -2  -3 114178. 1966.58  32
   0  -2   3 111819. 1930.72   3
   0  -2  -3 110721. 1927.97   2
   0  -2  -3 109164. 1998.06  34
   0   2  -3 114674. 1911.94  33
   0  -2  -3 118246. 1937.20  28
   0   2  -3 106111. 1992.37  34
   0  -2  -4 54.1912 38.8436  30
   0  -2  -4 47.1445 43.2354  34
   0   2   4 66.8040 24.5515  31
   0   2  -4 30.3630 36.3155  30
   0  -2   4 91.5144 37.4782   3
   0  -2  -4 49.9420 24.9665   2
   0  -2  -4 73.8569 43.5897  32
   0   2  -4 6.12069 45.9762  34
   0  -2  -4 52.7631 34.1998  28
   0   2   5 7709.52 226.975  31
   0   2  -5 7663.94 271.571   2
   0  -2  -5 7941.35 359.912  34
   0   2  -5 7232.62 324.187  30
   0  -2   5 7623.67 312.140  31
   0  -2  -5 7681.89 289.134   2
   0  -2  -5 7880.26 315.519  32
   0   2  -5 7250.81 346.967  34
   0  -2  -5 6788.35 328.398  30
   0  -2   6 25839.2 713.108  31
   0   2  -6 24467.6 785.737  34
   0  -2  -6 25745.8 800.701  34
   0  -2  -6 24480.6 770.358  30
   0  -2  -6 26100.4 682.595   2
   0  -2  -7 1712.90 197.507  34
   0   2  -7 1701.22 199.577  34
   0  -2  -7 1604.23 187.503  30
   0  -2  -8 1115.25 172.930  34
   0   2  -8 808.472 152.615  34
   0  -2  -8 837.922 149.188  30
   0  -2  -9 347.952 104.075  34
   0   2  -9 373.530 116.874  34
   0   2 -10 4130.63 184.864  18
   0   2 -10 3649.06 163.383  14
   0  -2 -10 4131.87 184.950  20
   0  -2 -10 3882.35 168.961  14
   0   2 -10 4123.13 182.931  20
   0  -2 -10 3729.75 176.584  18
   0  -2 -11 4971.27 209.784  20
   0   2 -11 5039.35 194.168  14
   0  -2 -11 4869.45 208.613  18
   0   2 -11 4714.02 205.928  20
   0  -2 -11 4840.58 195.513  14
   0   2 -11 4955.02 209.958  18
   0  -2 -12 8.41619 24.5055  14
   0  -2 -12 23.1719 32.6022  18
   0   2 -12 31.6786 29.0125  18
   0  -2 -12-6.45786 28.4731  20
   0  -2 -13 3499.45 168.004  20
   0  -2 -13 3397.73 162.814  18
   0   2 -13 3445.22 165.018  18
   0  -2 -13 3836.66 155.422  14
   0   2 -14 57.5179 27.5731  18
   0   2 -14 62.4692 31.9259  15
   0  -2 -14 42.4849 25.3612  18
   0   2 -15 168.527 30.1005  15
   0  -2 -15 171.536 29.5125  15
   0  -2 -15 161.234 27.7911  18
   0  -3   0 14.2215 16.4452   2
   0   3   0-1.47006 13.7629  36
   0  -3   0 32.4928 16.2147   3
   0  -3  -1 15925.1 331.540  29
   0   3  -1 13296.6 319.937  36
   0  -3  -1 14115.6 335.564   2
   0  -3   1 12988.1 337.579   3
   0  -3  -1 13892.8 304.258  35
   0  -3  -1 14291.3 299.021  34
   0   3  -1 14691.4 301.362  34
   0  -3  -1 15979.5 272.233  31
   0  -3   2 39216.1 761.166   3
   0  -3  -2 36008.3 731.898   2
   0   3  -2 38568.6 746.835  34
   0  -3  -2 39840.3 751.696  34
   0  -3  -2 36452.4 749.567  29
   0   3  -3 22.9098 25.2231  33
   0  -3   3 38.5680 29.7574   3
   0  -3  -3 13.4759 36.4890  34
   0  -3   3 79.3018 40.7482  31
   0  -3  -3-12.3023 27.1952   2
   0   3  -3-28.0964 38.6374  34
   0  -3   4 102.586 39.2734   3
   0   3  -4 132.610 37.5780  33
   0  -3  -4 9.49715 40.3740  34
   0  -3   4 109.963 47.8788  31
   0  -3  -4 63.7247 27.9373   2
   0   3  -4 29.8935 39.8589  34
   0  -3  -4 158.943 55.3445  30
   0  -3  -4 218.308 55.1112  32
   0   3   4 162.392 17.8521  31
   0  -3  -4 109.473 35.8491  28
   0  -3  -5 452.307 76.7276  32
   0  -3  -5 417.472 66.6240   2
   0  -3  -5 446.836 90.0406  30
   0  -3  -5 582.279 102.207  34
   0  -3  -5 435.069 68.5360  28
   0   3  -5 417.531 87.4331  34
   0  -3   5 320.168 67.7963  31
   0  -3  -6 48.4608 57.2580  34
   0  -3  -6 17.6844 55.2139  30
   0  -3   6 73.8860 44.7121  31
   0   3  -6-8.24144 47.8159  34
   0   3  -6-5.56310 28.0671   2
   0  -3  -6 26.7219 32.0026   2
   0  -3  -7 41684.9 1190.12  30
   0  -3   7 52476.0 1183.37  31
   0  -3  -7 49218.0 1271.16  34
   0   3  -7 43643.6 1226.60  34
   0   3  -8 5684.14 401.477  34
   0  -3  -8 5542.82 385.109  30
   0  -3  -8 6336.56 424.242  34
   0   3  -9-166.479 79.2922  34
   0  -3  -9-27.1597 42.1334  34
   0  -3 -10 2713.64 140.042  14
   0   3 -10 2815.64 151.358  18
   0  -3 -10 2985.01 155.715  20
   0   3 -10 2717.00 138.280  14
   0   3 -10 2705.04 147.538  20
   0  -3 -10 2885.53 153.293  18
   0  -3 -11 35.5585 24.3253  14
   0   3 -11-15.8515 29.4352  20
   0  -3 -11 27.3631 26.3603  20
   0  -3 -11 16.6464 27.1270  18
   0   3 -11 25.5930 32.2958  18
   0  -3 -12 2981.73 142.246  14
   0  -3 -12 2890.64 157.954  20
   0  -3 -12 3212.99 164.707  18
   0   3 -12 2947.82 158.498  18
   0  -3 -13 712.602 74.1691  18
   0   3 -13 663.825 72.7994  18
   0  -3 -13 693.234 75.8490  20
   0   3 -14 618.457 62.3896  18
   0  -3 -14 563.537 58.8000  18
   0   3 -14 573.870 60.1328  15
   0  -3 -15 612.310 51.7574  15
   0  -3 -15 544.750 44.9693  18
   0   3 -15 574.293 49.0617  15
   0  -4   0 92051.2 1522.10   2
   0  -4   0 92478.1 1537.92   3
   0  -4  -1 134.885 37.1592   2
   0   4  -1 138.969 22.9047  34
   0  -4  -1 134.810 22.1221  34
   0  -4   1 92.0715 35.9576   3
   0  -4  -1 159.549 26.0462  31
   0   4  -1 92.3250 28.9080  36
   0  -4  -2 12317.3 346.211  29
   0   4  -2 11955.4 325.214  34
   0  -4   2 12741.0 361.063   3
   0  -4  -2 12770.0 330.001  34
   0  -4  -2 13204.6 287.416  35
   0  -4  -2 12593.6 258.048   1
   0  -4  -2 13879.8 359.035   2
   0   4  -3 699.110 77.9507  34
   0  -4   3 549.235 79.1535  31
   0  -4   3 543.128 74.4407   3
   0  -4  -3 607.858 74.4938  34
   0  -4  -3 719.060 76.6940   2
   0   4  -3 629.751 58.9296  33
   0   4  -4 5278.07 256.655  34
   0  -4  -4 4913.29 250.064  34
   0   4  -4 4435.92 190.173  33
   0  -4  -4 5172.98 230.397   2
   0  -4  -4 5045.56 221.470  28
   0  -4   4 4843.06 251.055  31
   0  -4   4 5086.62 235.324   3
   0  -4  -4 5352.05 251.338  32
   0  -4  -5 1799.05 169.508  34
   0  -4  -5 1590.55 146.373  32
   0  -4   5 1619.37 152.845  31
   0   4  -5 1543.28 154.922  34
   0  -4  -5 1700.74 136.566  28
   0  -4  -5 1524.71 151.712  30
   0  -4  -5 1875.60 147.922   2
   0  -4  -6 1650.33 145.888  28
   0  -4  -6 1698.18 179.892  30
   0  -4  -6 1612.81 163.019  32
   0  -4  -6 1989.70 165.099   2
   0  -4  -6 1939.56 192.673  34
   0   4  -6 1624.99 178.618  34
   0  -4   6 1803.07 174.040  31
   0  -4  -7 3743.94 296.149  34
   0   4  -7 3522.93 291.154  34
   0  -4   7 4109.10 282.078  31
   0  -4  -7 3708.64 291.794  30
   0  -4  -8 949.758 157.569  30
   0   4  -8 796.253 151.129  34
   0  -4  -8 958.843 165.046  34
   0  -4  -9 176.629 85.2044  30
   0  -4  -9 146.830 85.2449  34
   0   4  -9 103.929 60.9380  34
   0   4 -10 676.570 74.8048  18
   0  -4 -10 715.411 75.8009  20
   0  -4 -10 722.419 71.3222  14
   0  -4 -10 669.392 73.1295  18
   0   4 -10 783.574 77.0876  14
   0   4 -10 669.135 73.7323  20
   0  -4 -11 2.19872 31.0805  14
   0   4 -11 38.1606 24.1573  18
   0  -4 -11 50.6110 37.2300  18
   0  -4 -11 33.0371 26.5263  20
   0  -4 -12 699.915 76.0664  20
   0  -4 -12 689.605 78.9116  18
   0   4 -12 765.082 81.2715  18
   0  -4 -12 672.003 65.5826  14
   0   4 -13 4.28029 25.6916  18
   0   4 -13-22.1876 28.9559  15
   0  -4 -13-70.9331 39.5335  20
   0  -4 -13 1.85710 24.3140  18
   0   4 -14 1597.04 98.2646  15
   0  -4 -14 1582.05 94.7988  18
   0  -4 -15-15.7020 18.8551  15
   0   4 -15-29.1642 20.1747  13
   0   4 -15 31.3217 17.7549  15
   0  -5   0 71.7152 33.0256   2
   0   5   0-7.88653 24.3445  36
   0  -5   0 48.8581 29.5258   3
   0  -5  -1 12487.0 292.897  31
   0  -5  -1 13003.6 361.703   2
   0   5  -1 13780.8 273.760  34
   0  -5  -1 13378.0 271.240  34
   0   5  -1 11637.5 331.569  36
   0  -5   1 14314.8 385.259   3
   0  -5  -1 12355.6 317.191  29
   0  -5  -2 12285.2 301.896  35
   0  -5  -2 12472.7 320.431  34
   0  -5   2 12398.6 376.625   3
   0  -5  -2 11491.9 340.980  29
   0  -5  -2 11303.0 262.613   1
   0   5  -2 12099.2 318.019  34
   0  -5  -3 2003.60 137.126   2
   0  -5   3 2041.59 148.316   3
   0  -5   3 2047.88 153.729  31
   0  -5  -3 2103.76 137.401  34
   0   5  -3 1824.34 127.216  34
   0   5  -4 875.506 83.8543  33
   0  -5  -4 1061.88 115.255  34
   0  -5  -4 1328.83 130.218  32
   0   5  -4 1228.47 122.050  34
   0  -5  -4 1006.20 106.580   2
   0  -5   4 1372.36 127.982   3
   0  -5   4 933.068 117.176  31
   0  -5  -4 1005.29 104.729  28
   0  -5  -5 3.83594 41.2978  30
   0   5  -5-35.6520 51.2055  34
   0  -5  -5 138.350 48.5636  28
   0  -5   5 57.1721 50.4560  31
   0  -5  -5 9.30497 32.4323   2
   0  -5  -5 10.5032 37.2086  32
   0   5  -5 19.4137 27.3833  33
   0  -5  -5-25.8628 44.6324  34
   0   5  -6 82.2150 56.4243  34
   0  -5   6 86.0528 46.0148  35
   0  -5   6 37.0461 41.4305  31
   0  -5  -6 66.0404 46.4326  32
   0  -5  -6 96.6214 37.0125  28
   0  -5  -6 122.465 54.1969  30
   0  -5  -6 189.742 56.2680   2
   0  -5  -6 129.233 53.9676  34
   0  -5  -7 746.208 132.298  34
   0  -5   7 600.876 113.922  31
   0   5  -7 588.218 114.926  34
   0  -5  -7 544.851 117.497  30
   0   5  -8 567.846 129.459  34
   0  -5  -8 634.963 133.971  34
   0  -5  -8 653.424 137.116  30
   0  -5  -9 2728.43 293.250  34
   0  -5  -9 2351.24 273.567  30
   0  -5  -9 2435.47 134.535  20
   0   5  -9 1883.77 248.487  34
   0   5  -9 2519.22 133.856  20
   0  -5  -9 2271.08 131.651   5
   0   5 -10 664.913 73.6587  18
   0  -5 -10 644.667 73.2064  18
   0  -5 -10 624.640 72.8872  20
   0  -5 -10 609.893 73.6689   5
   0   5 -11 373.390 57.5996  18
   0  -5 -11 415.582 62.8703  20
   0  -5 -11 310.380 45.1814  14
   0  -5 -11 414.875 60.9518  18
   0   5 -12 19.0107 26.6495  18
   0  -5 -12-34.4043 29.1921  14
   0  -5 -12-59.4548 38.1628  20
   0  -5 -12-24.4712 32.5810  18
   0  -5 -13 777.537 79.9398  20
   0  -5 -13 728.013 72.1312  18
   0   5 -13 738.639 74.3399  15
   0  -5 -13 895.102 69.8193  14
   0   5 -13 750.683 76.4451  18
   0  -5 -14 402.143 48.1770  18
   0   5 -14 453.127 51.5041  15
   0   5 -15 110.157 24.6910  13
   0  -5 -15 104.456 23.5586  15
   0  -6   0 1106.48 94.1881   2
   0  -6   0 1093.79 101.896   3
   0   6   0 1100.12 94.2032  36
   0  -6  -1 45266.5 791.133  34
   0  -6  -1 43227.0 853.865  31
   0   6  -1 49368.6 796.106  34
   0  -6  -1 47091.4 880.130  29
   0  -6   1 42417.8 955.752   3
   0  -6  -1 44933.7 942.207   2
   0  -6  -2 33.4078 18.8256   1
   0  -6  -2 103.216 38.0248  29
   0  -6  -2 48.9303 13.2627  31
   0  -6  -2 24.0941 20.8489  34
   0  -6  -2 58.2226 29.5474  35
   0   6  -2 18.3425 18.4798  34
   0  -6  -2 4.96267 35.2692   2
   0  -6   3 788.311 99.7772   3
   0  -6  -3 1055.23 96.9323  34
   0   6  -3 751.913 85.5302  34
   0  -6  -3 711.882 86.9444   2
   0  -6   3 743.820 102.158  31
   0   6  -4 45.6532 32.6837  34
   0  -6   4 18.1091 36.3173   3
   0  -6  -4 62.2031 42.2220  32
   0   6  -4 22.5224 23.3993  33
   0  -6   4 9.03149 44.9881  31
   0  -6  -4 21.5362 37.8531   2
   0  -6  -4 20.3796 32.0774  34
   0  -6  -5 331.402 76.0559  32
   0  -6  -5 312.349 77.7617  34
   0   6  -5 371.673 78.5224  34
   0   6  -5 276.679 57.1894  33
   0  -6  -5 381.775 73.6209  28
   0  -6  -5 282.380 74.9883  30
   0  -6   5 421.808 93.4898  31
   0  -6  -5 328.345 69.5489   2
   0  -6  -6 78.9224 69.9758  30
   0  -6  -6 97.6235 56.3824  34
   0  -6   6 99.9732 60.2668  31
   0  -6  -6 108.069 45.0115  28
   0  -6   6 70.4009 33.3513  35
   0  -6  -6 138.338 54.9703   2
   0   6  -6 13.3287 38.8669  34
   0  -6  -7-18.8326 46.4166  34
   0  -6   7-46.2125 54.0177  31
   0  -6  -7 160.119 62.9023  32
   0  -6  -7 102.987 48.1286  30
   0   6  -7 2.71842 43.6817  34
   0  -6  -8 387.757 102.837  34
   0  -6   8 444.351 102.013  31
   0  -6  -8 339.591 93.7126  30
   0   6  -8 253.360 87.5636  34
   0  -6  -9 772.097 77.1543  20
   0   6  -9 818.646 78.3678  18
   0   6  -9 662.455 141.487  34
   0  -6  -9 771.278 77.6069   5
   0  -6  -9 743.422 145.657  34
   0  -6 -10 343.709 57.5064  20
   0   6 -10 308.373 52.2763  18
   0  -6 -10 394.065 60.5373   5
   0  -6 -10 316.747 54.3939  18
   0  -6 -11 2104.36 132.920  18
   0   6 -11 1830.60 126.099  18
   0  -6 -11 2018.02 119.857  14
   0  -6 -11 1989.57 131.052  20
   0   6 -12 339.147 55.1066  18
   0   6 -12 414.042 60.7489  15
   0  -6 -12 367.907 56.9370  18
   0  -6 -12 363.477 48.0664  14
   0  -6 -12 444.186 61.1857  20
   0  -6 -13 455.036 50.2906  14
   0  -6 -13 515.092 65.5379  20
   0   6 -13 401.999 56.2614  18
   0  -6 -13 415.285 54.7509  18
   0   6 -13 437.594 57.9654  15
   0  -6 -14 39.2756 23.5870  20
   0   6 -14 29.8278 19.9672  15
   0  -6 -14 27.0696 23.4707  18
   0  -6 -15 2.73161 13.5491  15
   0   6 -15-36.9312 20.4165  13
   0   7   0-1.14099 32.7504  36
   0  -7   0 12.1323 31.4030  31
   0  -7   0 27.4694 32.4008   2
   0  -7   0 31.1888 45.4574   3
   0  -7  -1 73.1527 29.8998  29
   0  -7   1 9.86580 44.1743   3
   0  -7  -1 63.0413 28.6447  31
   0   7  -1 28.6088 8.80446  34
   0  -7  -1 46.6007 39.5884  35
   0  -7  -1 47.1324 36.7573   2
   0   7  -1 47.7510 38.4111  36
   0  -7  -1 31.6076 9.64642  34
   0  -7   1 48.9885 39.2985  31
   0  -7  -2 385.754 57.0203  35
   0  -7   2 318.619 69.9671   3
   0  -7  -2 370.894 60.7157  29
   0  -7   2 355.539 63.6462  31
   0  -7  -2 397.357 37.9608  31
   0  -7  -2 311.778 44.4490  34
   0  -7  -2 273.278 63.8589   2
   0   7  -2 331.120 44.2757  34
   0  -7  -3 3159.61 114.213   1
   0  -7  -3 2752.65 160.210  34
   0  -7  -3 2731.75 187.330   2
   0  -7   3 2484.96 191.143  31
   0   7  -3 3057.05 168.153  34
   0  -7   3 3515.21 219.153   3
   0  -7  -4 222.650 60.8795   2
   0  -7   4 339.021 83.0181  31
   0   7  -4 202.553 45.6736  33
   0  -7  -4 153.093 51.0348  34
   0   7  -4 283.122 66.7616  34
   0  -7   5 1252.31 152.301  31
   0  -7  -5 1371.32 145.152  34
   0   7  -5 1196.51 109.321  33
   0  -7  -5 1070.33 133.439  30
   0  -7  -5 1382.48 155.874  32
   0  -7  -5 1160.08 136.760   2
   0   7  -5 1227.80 139.226  34
   0  -7  -5 1232.88 131.330  28
   0  -7  -6 2127.39 202.693  34
   0  -7  -6 2267.41 208.975  32
   0  -7   6 1868.66 199.717  31
   0   7  -6 2398.29 215.406  34
   0  -7  -6 1668.99 182.255  30
   0  -7  -6 2206.40 193.962   2
   0  -7   6 1892.44 177.149  35
   0  -7  -6 2018.92 175.957  28
   0  -7  -7 264.855 76.2293  32
   0  -7  -7 119.811 59.8761  34
   0   7  -7 139.628 72.5646  34
   0  -7   7 137.878 63.7661  31
   0  -7  -7 223.929 83.0612  30
   0  -7  -8 1428.57 201.773  30
   0  -7   8 1453.52 195.367  31
   0  -7  -8 1504.56 204.685  34
   0   7  -8 1603.99 211.872  34
   0  -7  -9 4485.59 186.161  19
   0  -7  -9 4571.92 195.518   5
   0   7  -9 4516.96 191.927  18
   0  -7  -9 4720.59 197.591  20
   0  -7 -10 2856.90 156.986   5
   0  -7 -10 2839.96 155.246  20
   0   7 -10 2965.04 156.904  18
   0  -7 -10 2843.46 155.842  18
   0   7 -11 706.589 79.0544  18
   0  -7 -11 660.534 77.6408  20
   0   7 -11 742.809 81.4649  21
   0  -7 -11 697.093 69.6671  14
   0  -7 -11 604.949 72.7991  18
   0  -7 -12 14.5983 29.8147  20
   0  -7 -12-53.7808 32.4654  14
   0   7 -12 37.4183 32.7437  18
   0   7 -12 60.9630 28.0204  21
   0   7 -12 77.4819 33.5792  15
   0  -7 -12 11.4001 24.3052  18
   0   7 -13 659.778 67.9057  15
   0  -7 -13 559.148 64.7816  20
   0  -7 -13 622.220 65.2090  18
   0  -7 -14-19.5410 23.4327  18
   0   7 -14 35.9068 21.9616  15
   0  -7 -14-12.1158 24.6139  20
   0   7 -14-4.73423 27.0435  13
   0  -8   0 223648. 3746.65   2
   0  -8   0 197308. 3677.52  31
   0  -8  -1 19814.0 535.455   2
   0  -8  -1 18151.0 444.129  31
   0  -8   1 18246.1 515.556  31
   0  -8   1 16746.6 524.802   3
   0  -8  -1 19955.3 507.815  35
   0  -8  -1 17017.5 433.594  29
   0  -8  -2 11215.5 287.957  34
   0  -8  -2 11574.9 286.101  31
   0  -8   2 10056.2 394.026  31
   0   8  -2 12467.3 398.874  36
   0   8  -2 11540.8 290.229  34
   0  -8   2 11139.2 421.943   3
   0  -8  -2 11744.8 365.201  29
   0  -8  -2 11213.7 357.125  35
   0  -8  -3 596.210 52.4408   1
   0  -8  -3 663.787 100.489   2
   0  -8   3 677.929 105.822  31
   0  -8  -3 496.497 80.1994  29
   0   8  -3 572.673 72.2281  34
   0  -8  -3 562.063 71.4284  34
   0  -8   3 709.667 108.948   3
   0   8  -4 2043.17 157.917  34
   0  -8   4 2175.01 197.316  31
   0  -8  -4 2126.96 176.251   2
   0   8  -4 2062.28 141.687  33
   0  -8  -4 2030.23 155.342  34
   0  -8  -5 6792.53 332.465  34
   0  -8  -5 6401.03 337.834  30
   0  -8  -5 6223.16 329.507   2
   0  -8  -5 6528.63 350.803  32
   0  -8   5 6674.57 368.780  31
   0   8  -5 5455.34 252.143  33
   0  -8  -5 6613.05 321.233  28
   0   8  -5 5799.28 311.397  34
   0  -8  -6 2071.83 200.030  34
   0  -8  -6 2243.69 203.338   2
   0  -8  -6 2310.80 195.576  28
   0   8  -6 2282.08 210.689  34
   0  -8  -6 2291.75 220.002  30
   0  -8   6 2120.76 223.926  31
   0  -8  -6 2188.10 213.296  32
   0  -8   6 2167.80 198.046  35
   0  -8  -7 2288.99 231.658  32
   0  -8   7 2278.89 240.417  31
   0  -8  -7 2357.81 232.392  34
   0  -8  -7 2125.78 230.235  30
   0   8  -7 2153.10 225.472  34
   0  -8  -8 499.715 122.769  30
   0   8  -8 572.371 130.125  34
   0  -8  -8 481.025 109.537  34
   0  -8   8 486.997 122.680  31
   0  -8  -9 249.859 43.4800  19
   0  -8  -9 204.850 47.1206   5
   0  -8  -9 107.890 31.7937  20
   0   8  -9 245.006 45.3234  18
   0  -8 -10 3603.59 175.866  18
   0  -8 -10 3573.09 174.943   5
   0  -8 -10 3152.35 168.843  20
   0   8 -10 3410.54 170.947  18
   0  -8 -11 839.883 85.0819  20
   0  -8 -11 936.136 88.7048  18
   0  -8 -11 976.274 81.5827  14
   0   8 -11 876.531 87.0013  18
   0   8 -11 987.487 90.0176  15
   0   8 -11 872.055 86.5526  21
   0  -8 -12-19.3717 26.4905  14
   0   8 -12 8.42300 21.5488  21
   0  -8 -12 34.5962 33.6547  18
   0  -8 -12 4.38590 31.0129  20
   0   8 -12 33.0647 30.8237  18
   0   8 -12-2.35532 24.9751  15
   0  -8 -13 518.887 60.5812  20
   0   8 -13 584.576 61.9050  15
   0  -8 -13 534.554 59.7153  18
   0  -8 -14 1623.29 93.9424  20
   0  -8 -14 1731.30 91.1985  18
   0   8 -14 1718.56 90.0535  15
   0   8 -14 1715.51 99.2320  13
   0  -9   0 0.67345 38.1550   2
   0   9   0 7.11908 34.3312  36
   0  -9  -1 2264.19 173.835   2
   0  -9  -1 2265.37 134.622  29
   0   9  -1 2712.56 181.017  36
   0  -9   1 2599.19 181.835  31
   0  -9  -1 2248.78 162.387  35
   0  -9  -1 2143.47 137.935  31
   0  -9  -2 9194.65 249.615  34
   0  -9  -2 10392.2 286.045  31
   0   9  -2 10129.5 377.047  36
   0  -9  -2 8823.78 376.015   2
   0  -9   2 9528.83 394.777  31
   0  -9  -2 11000.9 363.662  35
   0   9  -2 11019.7 261.984  34
   0  -9  -2 9695.89 341.577  29
   0  -9  -3 7933.61 275.587  34
   0  -9   3 7915.52 375.049  31
   0  -9  -3 7520.32 347.941   2
   0  -9  -3 7781.40 289.864  35
   0   9  -3 8157.42 278.670  34
   0  -9   4 5886.35 342.509  31
   0  -9  -4 6857.33 293.041  34
   0   9  -4 6664.48 289.847  34
   0  -9  -4 5997.63 323.968   2
   0  -9  -5 371.781 74.6651  34
   0   9  -5 283.243 65.4732  34
   0  -9  -5 584.574 114.449  32
   0  -9  -5 299.405 78.5712   2
   0  -9   5 295.339 91.9488  31
   0  -9   5 323.501 75.9111  35
   0  -9  -6 31.1006 39.9146  28
   0  -9   6 12.5675 35.5339  35
   0  -9   6 73.7414 58.9463  31
   0  -9  -6 78.5615 56.1072  32
   0  -9  -6 10.0658 51.4161   2
   0   9  -6 36.6814 43.4001  34
   0  -9  -6 53.9023 57.2226  30
   0  -9  -6 32.8728 29.9351  34
   0  -9  -7 10.5162 46.4821  30
   0  -9  -7 75.2976 49.9873  32
   0  -9  -7-22.1377 57.0732  34
   0  -9   7-4.69354 44.6130  31
   0   9  -7-5.81126 38.4673  34
   0  -9  -8 1975.86 243.158  30
   0  -9  -8 2061.68 233.198  32
   0  -9   8 1715.79 225.962  31
   0   9  -9 4327.89 184.549  15
   0  -9  -9 4281.19 190.245   5
   0  -9  -9 4270.32 182.826  19
   0   9  -9 4020.69 182.701  18
   0  -9 -10-3.83462 26.4818   5
   0   9 -10 39.6947 21.7940  15
   0  -9 -10-29.6695 32.2500  20
   0   9 -10 26.9666 24.7453  18
   0   9 -11 99.9819 39.8447  18
   0   9 -11 66.0079 29.8639  15
   0  -9 -11 38.8994 30.9955  20
   0  -9 -11 50.1687 23.3393  14
   0  -9 -11 118.477 37.5367  18
   0   9 -11 116.838 38.5057  21
   0   9 -12 3068.26 158.500  21
   0   9 -12 3284.57 156.369  15
   0  -9 -12 3262.62 160.552  18
   0  -9 -12 3134.73 160.865  20
   0   9 -13 116.452 32.5019  21
   0   9 -13 72.6087 26.6514  15
   0   9 -13 35.2972 29.5193  13
   0  -9 -13 24.2930 22.7772  18
   0  -9 -13 44.0081 28.4410  20
   0  -9 -14 667.822 59.0120  20
   0  -9 -14 684.769 55.3956  18
   0   9 -14 588.746 57.6910  13
   0   9 -14 667.810 52.5076  15
   0  10   0 30847.7 769.611  36
   0 -10   0 29036.0 763.540  35
   0 -10   0 28894.2 760.044   2
   0 -10  -1 40672.6 947.300  35
   0 -10   1 43442.7 981.498  31
   0 -10  -1 43073.8 892.763  31
   0 -10  -1 41330.6 853.651  29
   0 -10  -1 43342.8 994.364   2
   0  10   1 43514.3 989.953  36
   0 -10   2 5183.88 296.557  31
   0  10  -2 5088.41 276.005  36
   0 -10  -2 6611.84 288.797  35
   0 -10  -2 6304.13 269.655  29
   0 -10  -2 6697.29 231.451  31
   0 -10  -2 5447.70 300.132   2
   0 -10   3 10162.5 449.815  31
   0 -10  -3 9893.05 430.781   2
   0 -10  -4 3012.70 233.818   2
   0 -10   4 3407.08 265.099  31
   0 -10  -5 5682.95 340.289   2
   0 -10   5 5858.67 352.602  35
   0 -10  -5 5701.62 352.760  32
   0 -10   5 4996.30 343.977  31
   0 -10  -5 5689.57 326.860  30
   0 -10   6 4598.28 322.298  35
   0 -10  -6 4653.28 332.109  32
   0 -10  -6 4598.09 324.166  30
   0 -10  -6 5248.38 338.780   2
   0 -10  -6 4574.01 299.608  28
   0 -10   6 4156.51 331.838  31
   0 -10  -7 648.035 132.534  30
   0 -10  -7 708.354 134.383  32
   0 -10   7 428.514 108.707  31
   0 -10  -8 173.431 79.4054  30
   0 -10  -8 431.448 117.763  32
   0  10  -8 427.778 54.3331  18
   0 -10   8 342.767 112.548  31
   0  10  -9 513.780 65.1833  17
   0  10  -9 512.249 65.7827  18
   0 -10  -9 586.085 70.2184   5
   0  10  -9 629.425 68.5299  15
   0 -10  -9 457.678 59.2716  19
   0  10 -10 956.519 92.6394  21
   0 -10 -10 986.812 90.7953   5
   0  10 -10 848.221 86.4999  18
   0 -10 -10 960.133 91.8184  20
   0  10 -10 1043.65 88.3146  15
   0 -10 -11 133.160 46.8049  20
   0  10 -11 75.9086 34.7637  21
   0  10 -11 87.1010 30.8789  15
   0 -10 -11 167.368 40.2442  18
   0 -10 -12 455.331 62.4652  18
   0 -10 -12 440.359 65.3246  20
   0  10 -12 459.592 64.6636  13
   0  10 -12 512.150 64.4587  21
   0  10 -12 526.018 63.2151  15
   0 -10 -13 565.622 59.1943  18
   0  10 -13 611.428 65.8883  13
   0  10 -13 589.398 59.6653  21
   0  10 -13 602.744 57.9652  15
   0 -10 -13 620.511 64.9251  20
   0 -10 -14 100.009 22.9516  18
   0 -10 -14 108.314 27.0771  20
   0  10 -14 50.9718 23.9636  13
   0 -11   0 15.2744 42.0498  35
   0  11   0 17.4435 37.3159  36
   0 -11   0 83.3396 45.6533  31
   0 -11   0-6.15614 45.5453   2
   0 -11  -1 2731.48 159.697  29
   0 -11  -1 2463.35 188.844  35
   0 -11  -1 3164.08 186.794  31
   0  11   1 2552.24 203.722  36
   0 -11   1 2550.45 196.698  31
   0  11  -1 2834.32 207.861  36
   0 -11  -1 2768.55 210.590   2
   0 -11  -2 1037.56 109.554  29
   0  11  -2 1002.49 124.930  36
   0 -11  -2 1024.87 119.571  35
   0 -11   2 852.631 127.052  31
   0 -11  -2 949.420 130.063   2
   0 -11  -3 6.29959 28.0063  35
   0 -11  -3 69.7583 48.1240   2
   0 -11   3-17.6390 56.7469  31
   0 -11   4 630.834 121.325  35
   0 -11  -4 452.166 97.2211   2
   0 -11   4 804.194 137.771  31
   0 -11   5 730.942 133.431  31
   0 -11  -5 964.127 143.958   2
   0 -11   5 1026.00 152.655  35
   0 -11  -5 914.905 146.077  32
   0 -11  -5 939.390 134.936  30
   0 -11  -6 4302.51 333.103  32
   0 -11   6 4308.74 324.143  35
   0 -11  -6 4741.14 333.166   2
   0 -11  -6 4061.65 293.512  28
   0 -11   6 4462.94 351.428  31
   0 -11  -6 4020.88 307.742  30
   0 -11  -7 2422.18 256.800  32
   0 -11  -7 2606.28 265.139  30
   0 -11   7 2384.64 269.300  31
   0  11  -8 204.056 41.5281  17
   0 -11  -8 133.024 33.9112  19
   0  11  -8 202.559 41.3639  18
   0 -11  -8 157.525 37.6302   5
   0 -11  -9 564.745 63.2847  19
   0 -11  -9 603.844 69.3269   5
   0  11  -9 629.844 70.7757  17
   0  11  -9 498.603 68.6051  21
   0 -11 -10 17.4851 28.3540  20
   0 -11 -10 35.6753 30.8435   5
   0  11 -10 20.1400 22.8498  15
   0  11 -10 3.83795 27.4144  21
   0 -11 -10 2.78741 27.7770  19
   0  11 -11 1729.32 112.438  15
   0 -11 -11 1501.17 115.594  20
   0 -11 -11 1659.30 115.818  18
   0  11 -11 1618.68 119.967  21
   0  11 -12 1839.95 121.382  13
   0  11 -12 1827.24 108.648  15
   0 -11 -12 1743.13 116.713  20
   0  11 -12 1923.66 122.122  21
   0 -11 -12 1739.46 111.991  18
   0 -11 -13 213.108 36.5287  18
   0  11 -13 269.934 45.5217  13
   0  11 -13 261.655 41.5857  21
   0 -11 -13 325.633 48.4301  20
   0 -11 -14-28.8343 17.6992  18
   0  11 -14-12.4584 18.9501  13
   0 -11 -14-29.2725 21.5479  20
   0  12   0 71049.5 1573.21  36
   0 -12   0 73763.9 1528.11  31
   0 -12   0 73727.6 1586.96   2
   0 -12  -1 28579.9 717.356  31
   0 -12   1 34026.8 842.721  31
   0 -12  -1 29167.2 665.714  29
   0  12  -1 25017.4 758.016  36
   0 -12  -1 25214.4 774.919   2
   0  12   1 22327.9 738.514  36
   0 -12   1 24899.1 783.973  35
   0 -12  -1 29970.9 802.355  35
   0  12   2 6687.91 355.386  36
   0 -12  -2 6598.83 324.921  35
   0  12  -2 5332.67 310.666  36
   0 -12   2 6280.20 348.300  31
   0 -12   2 5760.32 341.520  35
   0 -12  -2 5995.08 278.708  29
   0 -12  -2 6751.30 359.371   2
   0 -12   3 5920.85 353.745  31
   0 -12  -3 5332.17 278.657  35
   0 -12  -3 4759.23 312.752   2
   0 -12   3 5108.18 331.496  35
   0 -12   4 3793.30 301.481  31
   0 -12  -4 3923.95 290.677   2
   0 -12   4 4465.24 316.489  35
   0 -12  -5 763.213 133.031   2
   0 -12  -5 772.009 120.795  30
   0 -12   5 812.615 145.717  35
   0 -12  -5 726.113 133.589  32
   0 -12   5 946.126 161.489  31
   0 -12  -6 3358.36 290.786   2
   0 -12   6 3842.96 336.102  31
   0 -12  -6 3957.33 324.558  32
   0 -12  -6 3564.16 282.945  28
   0 -12   6 3787.58 319.802  35
   0 -12  -6 3640.70 297.576  30
   0 -12  -7 78.3934 40.4110  32
   0 -12   7 114.936 67.1679  31
   0 -12  -8 1929.20 118.307  19
   0  12  -8 2002.64 126.568  17
   0 -12  -8 2007.82 123.826   5
   0  12  -8 1980.26 127.050   8
   0  12  -8 1855.08 127.445  21
   0 -12  -9 88.7871 30.9480   5
   0 -12  -9 49.3415 24.3545  19
   0  12  -9 139.504 40.0297  17
   0  12 -10 399.342 63.0303  21
   0  12 -10 394.056 59.1358  13
   0 -12 -10 494.496 68.5050  20
   0 -12 -10 464.569 64.8882   5
   0  12 -10 535.576 65.5183  17
   0 -12 -10 478.129 59.7439  19
   0 -12 -11 2695.37 151.569  20
   0  12 -11 2826.87 158.858  21
   0  12 -11 2930.71 157.706  13
   0 -12 -11 2939.83 153.556  18
   0 -12 -12 1751.98 114.080  20
   0  12 -12 1530.46 108.996  13
   0 -12 -12 1628.38 106.050  18
   0  12 -12 1607.89 110.098  21
   0  12 -13-0.51982 28.1444  13
   0 -12 -13 30.8824 26.7159  20
   0  12 -13 22.2810 21.4416  21
   0 -12 -13 30.5624 24.0541  18
   0 -12 -14 939.701 60.4322  20
   0  12 -14 943.486 63.5342  13
   0  13   0 1.80619 38.9898  36
   0 -13   0-16.9052 44.6013  35
   0 -13   0-37.6519 43.6928  31
   0  13   1 1408.81 165.097  36
   0 -13  -1 1570.43 143.969  31
   0 -13   1 1895.46 184.159  31
   0 -13  -1 1510.01 162.372  35
   0 -13  -1 1537.10 173.338   2
   0 -13   1 1446.34 171.148  35
   0  13  -1 1827.74 179.205  36
   0 -13  -2 15445.1 544.691  35
   0 -13   2 15112.4 580.899  31
   0 -13  -2 13821.4 555.930   2
   0  13   2 12860.9 542.358  36
   0  13  -2 13692.1 538.154  36
   0 -13   2 12772.1 554.389  35
   0 -13   3 1953.14 211.386  31
   0 -13  -3 1697.10 194.520   2
   0 -13   3 1911.93 207.218  35
   0 -13   4 2381.10 240.234  35
   0 -13  -4 2443.62 233.924   2
   0 -13   4 1974.51 225.909  31
   0 -13   5 12475.4 613.764  31
   0 -13   5 12842.2 600.756  35
   0 -13  -5 12721.7 597.196  32
   0 -13  -5 11597.4 556.359   2
   0 -13  -5 11744.0 517.781  30
   0 -13   6 1552.67 207.945  35
   0 -13  -6 1440.31 185.918  30
   0 -13  -6 1370.06 197.687  32
   0 -13  -6 930.436 159.272   2
   0 -13   6 1258.69 202.299  31
   0 -13  -6 1338.59 178.628  28
   0  13  -7 811.374 77.1951  13
   0 -13  -7 734.546 73.9565  10
   0  13  -7 697.361 72.9091  17
   0  13  -7 681.200 73.6851  21
   0 -13  -8 889.732 82.8626   5
   0 -13  -8 868.895 82.3460   6
   0 -13  -8 891.123 81.2092  19
   0  13  -8 802.239 80.8930  17
   0  13  -8 837.739 83.9287   8
   0  13  -8 851.104 86.6876  21
   0  13  -8 939.299 88.6224  13
   0 -13  -9 2030.10 128.650   5
   0 -13  -9 2222.08 130.149  19
   0  13  -9 2043.66 137.460  21
   0  13  -9 2011.76 132.300  13
   0  13  -9 2039.18 131.736  17
   0 -13 -10 279.040 47.4393  19
   0  13 -10 296.525 56.6762  21
   0  13 -10 308.433 54.9067  13
   0 -13 -10 439.061 64.0153   5
   0 -13 -10 339.025 57.9033  20
   0  13 -11 565.621 70.8559  21
   0 -13 -11 649.167 70.5766  18
   0 -13 -11 551.418 69.7653  20
   0  13 -11 718.683 80.6736  13
   0  13 -12 2289.76 130.821  13
   0 -13 -12 2237.34 126.553  20
   0 -13 -12 2437.27 126.282  18
   0  13 -12 2197.86 127.486  21
   0  13 -13 1812.56 98.4360  21
   0  13 -13 2080.57 110.822  13
   0 -13 -13 1915.22 103.169  20
   0 -13 -13 1902.48 97.0685  18
   0 -14   0 20826.1 661.480  31
   0  14   0 19489.1 685.214  36
   0 -14  -1 35494.9 951.090  35
   0  14   1 28985.4 905.182  36
   0  14  -1 29399.4 895.347  36
   0 -14  -1 31260.1 936.000   2
   0 -14   1 35825.6 996.052  35
   0 -14   1 30742.4 905.702  31
   0 -14   2 1348.27 173.444  31
   0  14   2 1599.74 187.312  36
   0  14  -2 1312.45 165.428  36
   0 -14  -2 1595.25 175.234  35
   0 -14   2 1168.76 165.980  35
   0 -14  -2 1321.68 171.509   2
   0 -14   3 4017.04 316.426  31
   0 -14   3 5070.51 354.555  35
   0  14   3 3899.26 304.403  36
   0 -14  -3 4474.51 320.654   2
   0 -14  -4 1404.67 184.602   2
   0 -14   4 1221.94 186.172  31
   0 -14   4 1459.81 198.252  35
   0 -14  -5 19317.3 773.609  32
   0 -14  -5 15981.4 691.819   2
   0 -14   5 16794.6 729.786  35
   0 -14   5 18819.5 786.947  31
   0 -14  -6 7919.53 455.909  28
   0 -14  -6 7611.63 467.871   2
   0 -14   6 8045.11 520.116  31
   0 -14   6 8305.13 506.458  35
   0 -14  -6 7387.75 477.351  32
   0  14  -7 150.809 38.4815  13
   0 -14  -7 139.768 37.2378  10
   0  14  -7 74.6669 33.5693  21
   0  14  -7 123.337 35.2345  17
   0  14  -7 99.5844 35.2320   8
   0 -14  -7 91.0714 26.2093  19
   0  14  -8 2492.95 149.006   8
   0 -14  -8 2527.16 140.798   5
   0 -14  -8 2448.60 137.586  19
   0 -14  -8 2511.88 142.468   6
   0  14  -8 2546.20 147.090  13
   0  14  -8 2282.01 144.645  21
   0 -14  -9 3640.32 169.494  19
   0  14  -9 3434.00 176.155  13
   0 -14  -9 3512.04 171.018   5
   0  14  -9 3399.43 181.799  21
   0  14  -9 3748.96 182.905   8
   0  14 -10-9.63919 31.9369  13
   0 -14 -10-12.6233 29.5182  20
   0  14 -10 45.0102 35.4391  21
   0 -14 -11-16.5557 30.3076  18
   0  14 -11-2.42582 32.8147  13
   0  14 -11 23.0754 29.5743  21
   0 -14 -11-12.3767 33.6348  20
   0 -14 -12 41.2342 28.7987  20
   0  14 -12 36.1130 24.5125  21
   0 -14 -12 42.5661 24.4775  18
   0  14 -12 16.3846 30.3791  13
   0  14 -13 6328.73 200.545  13
   0  14 -13 6191.17 191.826  21
   0 -14 -13 6080.02 181.317  18
   0 -14 -13 6366.69 193.964  20
   0 -15   0 7.98397 47.1511  35
   0  15   0-35.0273 46.0454  36
   0 -15   0 16.3078 43.7850  31
   0 -15  -1 5747.02 355.247  35
   0 -15   1 6278.52 371.496  31
   0  15   1 5358.48 353.300  36
   0  15  -1 5573.27 355.171  36
   0 -15   1 5683.94 372.101  35
   0 -15  -2 517.528 109.435   2
   0  15  -2 525.434 113.134  36
   0 -15  -2 583.388 114.261  35
   0 -15   2 571.854 118.406  31
   0 -15   2 613.257 131.161  35
   0  15   2 452.739 108.125  36
   0 -15   3 3930.80 329.164  35
   0 -15  -3 4807.58 346.121   2
   0 -15   3 4198.78 331.768  31
   0  15   3 4048.76 322.384  36
   0 -15  -4 21000.2 799.734   2
   0 -15   4 20450.5 825.606  31
   0 -15   4 23244.2 869.108  35
   0 -15   5 2452.69 274.073  35
   0 -15  -5 2790.91 288.112  32
   0 -15   5 2620.24 290.572  31
   0 -15  -5 2701.36 270.264   2
   0 -15  -6-96.5077 52.8527   2
   0 -15   6 143.593 73.8282  35
   0  15  -6-7.57999 26.1546  21
   0  15  -6 25.6382 24.2841   8
   0 -15  -6 65.5947 32.7933  10
   0  15  -6-9.90367 20.6760  13
   0 -15  -7 883.368 79.5376  19
   0  15  -7 821.062 83.6001  21
   0  15  -7 830.170 85.6824   8
   0 -15  -7 821.664 82.6588  10
   0  15  -7 747.163 78.3404  13
   0 -15  -8 807.547 80.6900   6
   0  15  -8 684.156 79.5456  21
   0  15  -8 685.444 78.8972   8
   0 -15  -8 758.002 76.1636  19
   0  15  -8 648.621 75.9007  13
   0 -15  -8 991.537 85.1331   5
   0  15  -9 6565.69 253.368   8
   0  15  -9 6094.27 250.115  21
   0 -15  -9 6824.14 243.801   5
   0  15  -9 6248.25 246.950  13
   0 -15  -9 6501.86 240.406   6
   0 -15  -9 6583.96 236.537  19
   0  15 -10 3553.37 181.565  21
   0  15 -10 3809.55 183.583  13
   0 -15 -10 3391.74 170.988  20
   0 -15 -11 145.934 37.1079  18
   0  15 -11 121.508 41.7732  21
   0 -15 -11 108.692 42.5438  20
   0  15 -11 120.000 40.1070  13
   0 -15 -12 71.3200 27.2019  18
   0 -15 -12 83.1025 30.6699  20
   0  15 -12 63.0695 34.0139  13
   0  15 -12 117.622 38.5395  21
   0  15 -13 3725.89 134.987  21
   0 -15 -13 3509.15 121.735  18
   0 -15 -13 3693.58 133.757  20
   0  15 -13 3773.77 141.063  13
   0  16   0 6968.66 418.060  36
   0 -16   0 7286.36 430.088  35
   0 -16   1 3589.96 305.871  35
   0  16   1 3497.00 293.863  36
   0  16  -1 3525.40 289.673  36
   0 -16   1 4183.71 308.561  31
   0 -16  -1 4235.87 314.856  35
   0 -16  -2 583.012 129.451   2
   0 -16   2 459.424 114.404  35
   0 -16   2 464.620 113.991  31
   0  16   2 419.465 109.753  36
   0 -16  -2 563.898 109.626  35
   0 -16   3 1915.42 238.896  35
   0 -16  -3 1867.56 226.925   2
   0  16   3 1932.69 227.885  36
   0 -16   3 2078.05 246.111  31
   0 -16   4 9796.28 562.091  31
   0  16   4 8783.03 517.877  36
   0 -16   4 10233.3 570.123  35
   0 -16  -4 9679.75 532.505   2
   0 -16  -5 9363.36 542.037   2
   0 -16   5 10895.0 603.372  35
   0 -16  -5 11666.9 612.003  32
   0 -16   5 10826.1 612.835  31
   0  16  -6 3088.75 163.553  21
   0  16  -6 3105.52 160.123  13
   0  16  -6 2960.05 164.078   8
   0 -16  -6 3361.18 169.621  10
   0  16  -7 633.286 76.6281  21
   0  16  -7 657.694 78.3797   8
   0 -16  -7 606.784 73.6318  10
   0  16  -7 566.350 71.0710  13
   0 -16  -7 646.027 69.0898  19
   0 -16  -8 4424.05 199.136   6
   0 -16  -8 5017.94 201.729  19
   0  16  -8 4456.37 208.124   8
   0  16  -8 4966.48 220.345  21
   0  16  -8 4632.63 206.858  13
   0  16  -9 5835.72 236.795  13
   0 -16  -9 5849.51 226.201   6
   0 -16  -9 6209.72 226.712   5
   0  16  -9 5943.10 239.495   8
   0  16  -9 5623.31 238.573  21
   0 -16 -10 980.746 89.1445  20
   0  16 -10 1022.21 97.4107  21
   0  16 -10 1057.64 95.9791  13
   0 -16 -11 2030.31 116.826  18
   0  16 -11 2116.32 126.165  13
   0  16 -11 2075.79 126.174  21
   0 -16 -11 1956.59 119.650  20
   0 -16 -12 304.389 44.9760  20
   0  16 -12 270.525 43.8178  21
   0  16 -12 292.228 46.1230  13
   0 -16 -12 222.427 37.5506  18
   0  16 -13 33.1684 17.7913  21
   0 -16 -13 5.62120 17.3613  20
   0  17   0-132.601 67.3840  36
   0 -17   0 42.7665 40.7910  35
   0 -17   1 40.6223 73.8857  35
   0  17  -1-16.0839 41.5965  36
   0  17   1 62.8757 47.6668  36
   0 -17  -1 36.5638 33.0138  35
   0 -17   1 10.8945 39.1246  31
   0 -17   2 20142.8 822.559  35
   0 -17   2 21313.9 812.064  31
   0  17   2 19343.6 782.462  36
   0  17   3 8085.23 489.862  36
   0 -17  -3 7431.34 472.178   2
   0 -17   3 7505.18 487.302  35
   0 -17   3 7233.17 468.590  31
   0 -17   4 633.795 148.716  31
   0 -17  -4 476.961 121.379   2
   0  17   4 611.225 137.199  36
   0 -17   4 776.135 161.564  35
   0  17  -5 2184.28 130.517  13
   0 -17  -5 2245.45 136.523  10
   0  17  -5 2098.02 135.674   8
   0  17  -5 1970.91 126.608  21
   0  17  -6 977.990 89.3984  13
   0 -17  -6 804.859 83.7265  10
   0  17  -6 744.938 81.9097   8
   0  17  -6 875.092 87.9185  21
   0  17  -7 14417.0 409.915  13
   0  17  -7 14698.7 421.371  21
   0 -17  -7 15187.6 400.273  19
   0  17  -7 14464.7 422.601   8
   0 -17  -7 15896.3 424.995  10
   0  17  -8 2451.29 151.497   8
   0 -17  -8 2812.34 154.079   6
   0 -17  -8 2771.16 145.209  19
   0  17  -8 2528.09 154.041  21
   0  17  -8 2495.63 149.664  13
   0  17  -9 1359.34 113.274  21
   0  17  -9 1180.32 102.453   8
   0  17  -9 1318.13 106.942  13
   0 -17  -9 1340.83 101.759   6
   0  17 -10 144.621 46.0650  13
   0  17 -10 200.830 41.8840   8
   0  17 -10 145.777 39.2787  21
   0 -17 -10 126.967 40.6145  20
   0  17 -11 1552.73 106.858  21
   0 -17 -11 1561.64 102.207  20
   0  17 -11 1515.15 104.488  13
   0 -17 -11 1404.68 93.8529  18
   0 -17 -12 2499.65 108.933  18
   0 -17 -12 2775.22 120.948  20
   0  17 -12 2699.10 124.198  21
   0  17 -12 2594.46 122.539  13
   0  18   0 2002.22 236.201  36
   0 -18   0 1920.62 235.167  35
   0  18   1 97.5698 61.3567  36
   0 -18  -1 7.94543 48.3060  35
   0  18  -1 37.7964 56.1570  36
   0 -18   1 43.4293 41.4757  35
   0 -18   2 8192.83 513.420  35
   0 -18   2 8540.77 503.434  31
   0  18   2 7863.10 495.805  36
   0 -18   3 447.201 125.790  35
   0  18   3 646.709 139.213  36
   0 -18   3 444.755 114.572  31
   0 -18  -4 209.791 42.5204  10
   0  18   4 213.511 40.8956  11
   0  18  -4 251.350 48.4521   8
   0  18  -4 158.908 39.0349  21
   0  18  -5 7509.22 268.791  13
   0 -18  -5 7970.61 277.428  10
   0  18  -5 8075.31 276.194  21
   0  18  -6 4690.64 208.852  21
   0  18  -6 4312.75 206.808   8
   0 -18  -6 4665.60 208.430  10
   0  18  -6 4622.18 203.203  13
   0  18  -7 1471.30 115.741  21
   0 -18  -7 1470.46 105.308  19
   0  18  -7 1589.85 118.183  13
   0  18  -7 1439.90 116.555   8
   0 -18  -7 1404.86 111.985  10
   0  18  -8 12.6470 28.2808  13
   0 -18  -8 47.2938 28.8654   6
   0  18  -8 128.588 42.5334  21
   0  18  -8 105.748 41.0661   8
   0  18  -9 2170.97 134.277   8
   0  18  -9 2003.81 131.360  13
   0 -18  -9 2002.02 123.301   6
   0  18  -9 2017.48 133.303  21
   0  18 -10-2.00915 34.4243  13
   0  18 -10 21.0246 22.3074   8
   0  18 -10 110.220 39.4845  21
   0 -18 -10 33.7666 33.9143  20
   0  18 -11 1461.18 98.4343  13
   0  18 -11 1488.58 99.5218  21
   0 -18 -11 1484.70 90.5256  18
   0 -18 -11 1513.68 95.6593  20
   0 -18 -12 393.814 43.7384  20
   0 -18 -12 347.811 36.5937  18
   0  18 -12 399.973 45.7677  21
   0 -19   0 55.5145 54.2417  35
   0  19   0-7.86866 41.0792  36
   0  19   1 8940.25 532.593  36
   0 -19  -1 8937.88 521.506  35
   0  19   1 9053.30 295.027  11
   0  19  -1 8591.98 518.004  36
   0 -19   1 8312.13 524.276  35
   0  19  -2 258.640 44.5835  11
   0 -19   2 254.427 87.8412  31
   0  19   2 239.995 47.2204  11
   0  19  -2 264.904 45.0059   8
   0  19  -3 1284.66 103.620   8
   0 -19  -3 1249.49 101.932  10
   0  19  -3 1377.48 100.528  21
   0  19   3 1053.02 92.9449  11
   0  19  -3 1216.23 98.1524  11
   0  19  -4 12.6555 21.4374  21
   0  19   4-26.3562 29.4709  11
   0  19  -4-17.2873 36.5972   8
   0 -19  -4 12.6814 22.2528  10
   0  19  -5 52.0915 28.6247  21
   0  19  -5 96.5654 35.1815   8
   0 -19  -5 45.6536 31.1738  10
   0 -19  -6 728.047 79.8733  10
   0  19  -6 835.805 86.4535  21
   0  19  -6 696.051 81.1030   8
   0  19  -7-1.39923 26.4227  21
   0 -19  -7 6.78545 25.6159  19
   0  19  -7 75.7680 34.7962   8
   0 -19  -7-0.34172 35.5012  10
   0  19  -7-30.2325 38.6988  13
   0  19  -8 1000.05 93.4413   8
   0  19  -8 1069.17 96.4723  13
   0 -19  -8 1168.52 97.1019   6
   0  19  -8 1234.16 106.025  21
   0  19  -9 388.314 60.4820  13
   0 -19  -9 354.885 54.0928   6
   0  19  -9 347.865 56.6967  21
   0  19  -9 353.207 57.2227   8
   0  19 -10 300.053 45.4157   8
   0 -19 -10 286.949 51.3447  20
   0  19 -10 256.304 48.5477  21
   0 -19 -11 715.846 63.4524  20
   0 -19 -11 667.324 58.5899  18
   0  19 -11 754.682 69.1719  21
   0  19 -12 212.702 32.7633  21
   0 -19 -12 198.380 30.1122  20
   0  20   0 3909.59 186.970  11
   0  20   1 12589.8 376.771  11
   0  20  -1 13501.8 386.268  11
   0  20  -1 13139.5 370.798   8
   0  20   2-26.1593 31.0460  11
   0 -20  -2-21.1823 25.2881   7
   0  20  -2-10.6432 25.5953   8
   0  20  -2 58.2342 28.6419  11
   0  20  -3 61.5543 31.4785  21
   0  20   3 27.2047 32.5040  11
   0  20  -3 29.0847 25.2756   8
   0  20  -3 11.0472 24.6693  11
   0 -20  -3 56.7822 30.3741  10
   0  20  -4 30.1356 24.0841  21
   0  20  -4 37.9199 25.4402  11
   0 -20  -4 0.68826 28.7581  10
   0  20  -4 5.97243 28.8715   8
   0  20   4 9.53947 26.0524  11
   0  20  -5 41.0678 26.4385  21
   0 -20  -5-26.4038 26.8609  10
   0  20  -5-24.5271 37.8078   8
   0 -20  -6 147.903 43.0256  10
   0  20  -6 87.3252 34.8731  21
   0  20  -6 89.7290 39.1102   8
   0  20  -7 99.4251 34.4779  21
   0 -20  -7 30.9392 30.3062  10
   0  20  -7 78.7259 38.4457   8
   0 -20  -7 58.2671 25.6804  19
   0 -20  -8 2.59995 22.2831   6
   0  20  -8 14.9474 27.9286  21
   0  20  -8 7.69047 30.4134   8
   0 -20  -9 45.1782 23.4542   6
   0  20  -9-34.3894 34.8962   8
   0  20  -9 52.2691 35.7258  21
   0  20 -10 813.297 75.3765  21
   0 -20 -10 908.646 76.5580  20
   0  20 -11 507.500 52.0134  21
   0 -20 -11 461.581 45.2327  18
   0 -20 -11 539.227 52.1079  20
   0  21   0 24.3136 27.3546  11
   0  21   1 181.508 41.8396  11
   0  21  -1 175.142 43.3944  11
   0  21  -1 155.667 38.5428   8
   0  21   2 595.364 74.4026  11
   0  21  -2 471.766 64.6697   8
   0 -21  -2 594.591 69.8280   7
   0  21  -2 457.581 65.9784  11
   0  21  -3 2005.81 133.421   8
   0 -21  -3 1985.99 134.028  10
   0  21   3 2137.70 135.811  11
   0  21  -3 2106.21 134.109  11
   0  21  -4 814.556 84.2678   8
   0  21   4 718.088 77.2017  11
   0 -21  -4 728.255 82.9024  10
   0  21  -4 853.543 83.0957  21
   0  21  -4 807.590 83.2326  11
   0  21  -5 4555.14 200.630  21
   0  21  -5 4550.75 211.375   8
   0  21   5 4645.72 199.468  11
   0  21  -6 811.312 84.6457  21
   0 -21  -6 734.889 81.6304  10
   0  21  -6 750.208 85.4969   8
   0 -21  -7 9723.78 313.568  10
   0  21  -7 10205.7 319.923  21
   0  21  -7 9360.09 317.960   8
   0 -21  -8 29.5834 27.3879   6
   0  21  -8 41.8184 32.7346  21
   0  21  -8-10.5391 32.1735   8
   0 -21  -9 5911.96 206.427   6
   0  21  -9 5749.02 214.975   8
   0  21  -9 5913.42 219.241  21
   0 -21 -10 346.117 46.7507  20
   0  21 -10 349.857 50.7628  21
   0  21 -11 248.450 37.1418  21
   0 -21 -11 271.157 35.9488  20
   0  22   0 61.6880 29.9152  11
   0  22  -1 0.58073 28.6637   8
   0  22   1-2.12793 30.3833  11
   0  22  -1-20.9262 33.2876  11
   0 -22  -1-29.4534 25.8216   7
   0 -22  -2 783.429 80.4121   7
   0  22  -2 641.818 76.2446  11
   0  22   2 586.867 73.2624  11
   0  22  -2 702.327 75.7063   8
   0  22   3 114.347 37.6755  11
   0  22  -3 89.9478 31.4238   8
   0  22  -3 77.8335 33.8958  11
   0 -22  -3 184.115 48.1965  10
   0  22  -4 1732.86 117.005  21
   0 -22  -4 1521.09 118.069  10
   0  22  -4 1552.72 119.686   8
   0  22  -4 1668.84 116.822  11
   0  22   4 1666.31 119.040  11
   0  22   5 1034.48 91.8970  11
   0  22  -5 1101.64 101.674   8
   0  22  -5 1077.67 93.2259  21
   0 -22  -5 1008.92 94.6089  10
   0 -22  -6 1764.24 123.010  10
   0  22  -6 1626.82 123.464   8
   0  22  -6 1595.68 114.181  21
   0 -22  -7 7386.30 261.588   6
   0  22  -7 8143.99 272.003  21
   0  22  -7 7602.13 273.373   8
   0  22  -8 3884.55 178.302   8
   0 -22  -8 3782.33 167.766   6
   0  22  -8 3740.30 170.516  21
   0 -22  -9 551.365 56.6882   6
   0  22  -9 658.637 67.7121  21
   0  22  -9 536.651 60.5308   8
   0 -22 -10 9.99896 20.5252  20
   0  22 -10 36.6720 24.6894  21
   0  23   0 44.5248 29.2569  11
   0  23   1 427.062 64.8479  11
   0  23  -1 386.231 61.5855  11
   0 -23  -1 361.868 55.6929   7
   0 -23  -2 40.4789 32.4129  10
   0 -23  -2-22.5180 26.5171   7
   0  23  -2 35.1388 30.4013  11
   0  23   2-8.45478 35.1706  11
   0  23  -2-10.0796 31.9828   8
   0  23  -3 420.002 62.2867   8
   0  23  -3 544.771 67.7632  11
   0  23   3 299.689 53.0528  11
   0 -23  -3 487.278 67.5876  10
   0  23  -4 123.339 34.2104  21
   0  23   4 54.0846 29.1903  11
   0  23  -4 77.5560 34.6322   8
   0 -23  -4 105.847 37.6336  10
   0  23  -5 1689.73 124.199   8
   0 -23  -5 1674.55 119.671  10
   0  23  -5 1805.24 118.956  21
   0  23  -6 3622.45 169.697  21
   0  23  -6 3476.61 177.247   8
   0 -23  -6 3078.86 163.089  10
   0 -23  -6 3383.52 153.207  19
   0  23  -7-19.6682 32.6001   8
   0 -23  -7 32.1722 27.4932   6
   0  23  -7-7.67948 25.1440  21
   0  23  -8 841.026 77.8089   8
   0  23  -8 759.242 72.2986  21
   0 -23  -8 801.702 73.0237   6
   0 -23  -9 1911.56 98.2195   6
   0  23  -9 1704.90 100.100  21
   0 -23 -10 4069.43 137.622  20
   0  23 -10 4074.02 142.961  21
   0  24   0 54.6386 31.2085  11
   0 -24   0 71.0757 32.2713   7
   0  24   1 187.085 48.2426  11
   0  24  -1 132.641 39.4517  11
   0 -24  -1 109.289 31.5886   7
   0 -24  -2 13.4178 29.9088  10
   0 -24  -2 23.5577 25.1663   7
   0  24  -2 51.3648 26.9534   8
   0  24   2-21.9108 33.8649  11
   0  24   3 138.032 32.8609  11
   0  24  -3 84.1053 36.4537   8
   0 -24  -3 87.0858 36.0044  10
   0  24  -3 64.8652 30.6567  11
   0  24  -4 29.2297 27.8692   8
   0 -24  -4 42.0734 31.2535  10
   0  24   4 40.7687 32.3906  11
   0 -24  -5 368.585 59.0453  10
   0  24  -5 364.189 58.4178   8
   0  24  -5 406.775 57.3262  21
   0  24  -6 273.506 54.1682   8
   0  24  -6 298.747 48.0549  21
   0 -24  -6 341.588 58.2405  10
   0  24  -7 14.1126 23.6894  21
   0  24  -7 0.68808 30.2248   8
   0 -24  -7-2.33141 23.4115   6
   0  24  -8 37.0232 26.1441  21
   0 -24  -8 28.6340 22.7936   6
   0  24  -8-26.7478 28.8108   8
   0 -24  -9 273.548 38.2423  20
   0  24  -9 271.800 38.1089  21
   0 -24  -9 243.583 33.6250   6
   0 -24   9 235.956 32.1463   7
   0 -25   0-0.90971 23.6461   7
   0  25   0 16.6954 30.7157  11
   0  25   1 40.7826 33.5312  11
   0 -25  -1 25.4906 23.4667   7
   0 -25   1 4.11273 25.4595   7
   0  25  -1 36.1482 29.4621  11
   0  25  -2 700.388 75.1845   8
   0  25   2 612.674 75.7901  11
   0 -25  -2 669.298 70.4511   7
   0  25  -2 682.322 78.7625  11
   0 -25  -2 683.348 78.1596  10
   0  25   3 5034.75 210.112  11
   0  25  -3 5091.95 212.434   8
   0 -25  -3 4862.93 209.827  10
   0 -25  -4 381.795 59.4462  10
   0  25  -4 384.752 57.8888   8
   0 -25  -5 79.4813 32.8187  10
   0  25  -5 23.6190 19.1104  21
   0  25  -5-8.30960 34.4022   8
   0  25  -6 1839.33 107.388  21
   0  25  -6 1814.34 116.728   8
   0 -25  -6 1827.45 115.522   6
   0 -25  -6 2009.72 119.069  10
   0  25  -7 1129.34 85.4135   8
   0  25  -7 1051.92 77.9868  21
   0 -25  -7 1050.53 82.8047   6
   0  25  -8 502.979 50.8804  21
   0 -25  -8 576.801 53.9777   6
   0 -25   8 459.118 49.6374   7
   0  25  -9 33.4185 19.1933  21
   0 -25  -9 52.2344 18.7186  20
   0 -26   0 1728.92 115.758   7
   0  26   0 1567.13 116.667  11
   0  26  -1 1916.70 127.360  11
   0 -26  -1 1740.42 121.708  10
   0  26   1 1885.15 127.467  11
   0 -26   1 1729.03 118.684   7
   0 -26  -1 1742.61 114.598   7
   0  26  -2 2221.45 127.675   8
   0 -26   2 2280.24 136.393   7
   0  26   2 2170.08 134.706  11
   0 -26  -2 2358.00 139.088  10
   0 -26  -3 197.873 47.0519  10
   0  26  -3 111.875 34.6647   8
   0 -26  -4-3.22684 28.3497  10
   0  26  -4 8.15235 28.4448   8
   0  26  -5 85.3540 28.8449   8
   0 -26  -5 87.8630 34.6703  10
   0 -26  -6 41.8649 28.5113   6
   0  26  -6 24.2085 26.7533   8
   0  26  -6 16.8154 18.0017  21
   0  26  -7 859.723 63.5136  21
   0 -26  -7 903.200 69.7310   6
   0 -26   7 864.927 70.6301   7
   0 -26   8 1436.20 78.8705   7
   0 -26  -8 1547.59 79.6966   6
   0  26  -8 1493.97 76.2429  21
   0 -27   0-16.0530 25.4601   7
   0 -27   0-31.5261 30.5029  10
   0 -27  -1 724.928 77.0595  10
   0 -27   1 740.696 75.7473   7
   0 -27  -1 764.040 72.2076   7
   0 -27  -2 582.874 70.0068  10
   0 -27   2 639.246 70.3362   7
   0 -27   3 27.0760 30.9268   7
   0 -27  -3 85.8365 38.8038  10
   0 -27  -4 52.5362 27.5208  10
   0 -27   4 78.6234 29.6296   7
   0 -27   5 5.11346 27.3253   7
   0 -27  -5-17.0249 26.5390   6
   0 -27  -5 51.3751 32.2215  10
   0 -27   6 3213.32 139.425   7
   0 -27  -6 3125.01 134.464   6
   0 -27  -7 636.489 53.7464   6
   0 -27   7 627.660 54.8958   7
   0 -28   0 967.868 84.4849  10
   0 -28   0 999.999 79.7803   7
   0 -28   1 28.0386 26.0960   7
   0 -28   1-28.9114 29.9351  10
   0 -28  -1 32.3569 23.5711   7
   0 -28  -1 31.3244 28.6936  10
   0 -28   2 637.859 66.4845   7
   0 -28  -2 592.339 66.2039  10
   0 -28   3 398.697 54.2052   7
   0 -28  -3 531.890 60.2228  10
   0 -28  -4 361.894 49.6435  10
   0 -28   4 327.650 47.8965   7
   0 -28   5 49.5620 23.9927   7
   0 -28  -5 67.2131 22.9769   6
   0 -28  -5 81.3293 27.6474  10
   0 -28   6 1151.41 74.8874   7
   0 -28  -6 1281.77 76.3633   6
   0 -29   0 13.3789 24.8207  10
   0 -29   0 24.6005 21.4767   7
   0 -29   1 1794.10 101.545   7
   0 -29  -1 1665.76 90.8966   7
   0 -29   1 1693.80 102.422  10
   0 -29  -1 1734.53 103.319  10
   0 -29   2 7018.84 220.344  10
   0 -29   2 6715.48 214.671   7
   0 -29  -2 6878.11 219.272  10
   0 -29   3 91.9158 29.0275   7
   0 -29  -3 95.1540 30.5120  10
   0 -29  -4 448.008 47.2580  10
   0 -29  -4 393.486 46.0606   6
   0 -29   4 401.457 46.6434   7
   0 -29   5 78.9199 24.0296   7
   0 -29  -5 73.4042 22.6301   6
   0 -30   0 4849.88 166.407  10
   0 -30   0 4542.14 151.895   7
   0 -30   1 520.434 53.1116  10
   0 -30  -1 493.785 51.2897  10
   0 -30   1 407.892 43.9200   7
   0 -30   2 800.401 62.0080  10
   0 -30  -2 820.529 60.7097   6
   0 -30  -2 770.919 61.4403  10
   0 -30   2 835.277 63.8249   7
   0 -30  -3 719.130 56.7318   6
   0 -30  -3 772.072 58.4064  10
   0 -30   3 849.449 62.2943   7
   0 -30   3 806.633 59.4745  10
   0 -30  -4 1930.73 89.1900   6
   0 -30   4 2118.20 94.4296   7
   0 -31   0-1.18955 16.3862  10
   0 -31  -1 4974.38 153.184  10
   0 -31   1 4819.57 150.738  10
   0 -31  -2 3823.53 127.308  10
   1   0 -15 699.206 56.2891  15
   1   0 -14 28.4753 27.5287  18
   1   0 -14 21.2896 27.5013  15
   1   0 -13 1653.50 104.135  14
   1   0 -13 464.744 62.0287  18
   1   0 -12 32.7230 27.5118  20
   1   0 -12 25.1754 24.2224  18
   1   0 -11 38.9028 29.0414  18
   1   0 -11 6.17862 28.8684  20
   1   0 -11-6.24355 34.0497  14
   1   0 -10 15.3814 23.7247  18
   1   0 -10-10.2816 32.2413  20
   1   0 -10-35.5162 34.3185  14
   1   0  -9 1747.14 239.902  34
   1   0  -8 30.8556 48.3582  34
   1   0  -7 3549.27 286.176  34
  -1   0   6-25.3034 32.8542  31
   1   0  -6 90.2569 57.8885  34
  -1   0   5 3541.50 156.605   3
   1   0  -5 3175.29 226.871  34
   1   0  -5 3369.18 147.097   2
   1   0  -4 13.7204 35.2459   4
   1   0  -4 4.64816 41.8892  34
  -1   0   4 10.9927 14.5966   3
   1   0  -4 15.8063 15.0717   2
   1   0  -4-12.1194 48.7297  30
   1   0  -3 216713. 3428.87   2
   1   0  -3 211058. 3604.91  34
   1   0  -3 217056. 3589.88  30
   1   0  -2 37.0790 8.65246   2
   1   0  -2 64.9462 31.5128  34
   1   0  -1 45704.6 792.000  33
   1   0  -1 43581.1 800.494  34
   1   0   0 15.7715 11.6524   1
   1   0   1 5135.48 149.902  31
   1   0   2 37.4249 21.6100  31
  -1   0  -2 78.3420 29.5347  29
  -1   0  -3 33895.3 700.300   2
  -1   0  -3 33186.2 747.411  34
   1   0   3 33282.2 678.432  31
  -1   0  -3 34484.2 642.648  32
  -1   0  -4 70.7155 38.1693  32
  -1   0  -4 16.8425 35.2868   2
   1   0   4 76.5248 44.4644  31
   1   0   5 5261.78 228.287  31
  -1   0  -5 5759.11 256.909   2
  -1   0  -5 5173.93 295.754  34
  -1   0  -5 4850.99 261.888  30
  -1   0  -6 3.32263 31.0386   2
   1   0   6 11.3954 31.2055  31
  -1   0  -7 27158.3 859.161  30
  -1   0  -7 29778.2 803.030   2
  -1   0  -7 28553.5 920.329  34
  -1   0  -8 64.4652 47.4005  30
  -1   0  -8 25.6722 48.2968  34
  -1   0  -9 4628.31 385.396  34
  -1   0 -10-29.1187 30.8002  14
  -1   0 -10 11.6008 21.8682  18
  -1   0 -11 23358.5 556.041  18
  -1   0 -11 23266.7 554.678  20
  -1   0 -11 22977.5 516.244  14
  -1   0 -12-26.5604 39.1657  20
  -1   0 -12 18.7406 28.3923  18
  -1   0 -13 5249.48 208.332  18
  -1   0 -14-43.7278 27.9112  18
  -1   0 -15 21.1761 16.0305  15
  -1   0 -15-2.39905 17.7026  18
   1  -1 -15 113.444 26.2725  15
   1   1 -15 116.846 27.6506  15
   1  -1 -14 2884.56 129.852  18
   1   1 -14 2945.27 132.958  18
   1   1 -14 3049.57 142.218  15
   1  -1 -14 3007.51 141.437  15
   1  -1 -13 1527.92 106.726  18
   1   1 -13 1598.42 110.100  18
   1  -1 -12 990.245 90.3007  20
   1  -1 -12 1046.80 90.6974  18
   1   1 -12 1132.49 95.0081  18
   1  -1 -12 1029.34 82.4646  14
   1  -1 -11 154.730 34.1804  14
   1   1 -11 190.756 41.8442  20
   1   1 -11 122.296 37.4126  18
   1  -1 -11 158.229 38.6283  18
   1   1 -11 178.249 33.8330  14
   1  -1 -11 188.706 45.9637  20
   1  -1 -10 7437.22 249.024  14
   1  -1 -10 7423.56 260.125  20
   1   1 -10 7142.40 254.473  20
   1  -1 -10 7406.87 257.443  18
   1  -1 -10 7142.49 256.837   5
   1   1 -10 7398.72 247.008  14
   1   1 -10 7454.62 258.141  18
   1  -1  -9-250.532 94.6628  34
   1   1  -9 43.9263 54.0800  34
   1   1  -8-24.2055 47.3978  34
   1  -1  -8 4.01991 52.0872  34
   1  -1  -7 12.2226 49.2404  34
   1   1  -7-7.54482 45.5572  34
   1  -1  -6 1889.27 191.429  34
   1   1  -6 1790.75 189.449  34
  -1  -1   6 1941.75 156.616  31
   1  -1  -6 1892.38 185.206  30
  -1  -1   5 503.041 61.9096   3
   1  -1  -5 609.883 63.0710   2
   1  -1  -5 413.915 85.0112  30
  -1   1   5 455.774 47.8182   3
   1   1  -5 506.445 52.7458   2
   1   1  -5 447.549 88.8078  34
   1  -1  -5 545.071 99.8318  34
  -1  -1   4 489.973 58.3428   3
   1   1  -4 477.974 83.6542  34
   1  -1  -4 471.396 78.9652   4
   1  -1  -4 406.101 45.6138   2
   1  -1  -4 451.811 68.7351  28
   1  -1  -4 355.773 70.3435  34
  -1   1   4 453.815 47.0951   3
   1  -1  -4 401.155 78.9420  30
   1   1  -4 458.199 43.7325   2
   1   1  -4 427.614 77.0911   4
   1   1  -3 73515.5 1179.06   2
   1  -1  -3 73192.7 1307.33  28
   1  -1  -3 73003.0 1357.15  34
   1  -1  -3 70382.1 1332.56  30
  -1  -1   3 70056.4 1261.20   3
   1   1  -3 70140.4 1347.68  34
   1   1  -3 69401.4 1301.68  33
   1  -1  -3 68659.0 1205.88   2
   1   1  -2 72.2001 31.3583  34
   1  -1  -2 49.0387 15.1206   2
   1  -1  -2 59.6760 31.0928  30
   1   1  -2 3.00874 20.1069  33
   1  -1  -2 65.3822 28.2499  34
   1   1  -1 1347.48 71.0550  33
   1   1  -1 1430.71 76.9604  34
   1  -1  -1 1517.30 76.8757   1
   1  -1  -1 1447.55 77.1703  34
   1  -1   0 38406.0 725.831   1
   1  -1   0 37353.1 691.309  33
   1   1   1 8810.35 184.082   1
   1  -1   1 8033.78 221.049  31
  -1   1  -2 93819.3 1540.77  29
   1   1   2 82590.3 1487.69  31
  -1  -1  -2 75745.2 1537.30  29
  -1  -1  -2 98446.3 1450.81  28
   1  -1   2 83068.6 1536.34  31
  -1  -1  -2 94104.5 1549.73   2
  -1  -1  -3 161126. 2598.09  32
   1  -1   3 146712. 2625.86  31
  -1  -1  -3 159018. 2536.93  28
  -1   1  -3 150216. 2684.65  34
  -1  -1  -3 154122. 2638.59   2
  -1  -1  -3 164632. 2694.82  29
   1   1   3 157103. 2575.03  31
  -1  -1  -3 160019. 2699.40  34
  -1   1  -4 379085. 6346.70  34
  -1  -1  -4 375250. 6342.63  34
  -1   1  -4 341633. 6242.14  30
   1   1   4 400649. 6175.74  31
   1  -1   4 350770. 6230.35  31
  -1  -1  -4 430094. 6288.00   2
  -1  -1  -4 415336. 6211.49  32
  -1   1  -5 45984.1 1010.97   2
   1  -1   5 48829.6 1022.30  31
   1   1   5 50601.9 960.976  31
  -1   1  -5 43715.4 1056.87  30
  -1   1  -5 47467.0 1136.81  34
  -1  -1  -5 49856.4 996.261  32
  -1  -1  -5 45614.7 1073.98  30
  -1  -1  -5 52384.6 1066.52   2
  -1  -1  -5 49519.3 1149.10  34
  -1  -1  -6 1013.57 135.512  30
  -1  -1  -6 992.576 116.864   2
  -1  -1  -6 1397.94 170.264  34
  -1   1  -6 1380.03 152.304  30
   1  -1   6 1032.41 113.152  31
  -1   1  -6 886.789 108.392   2
  -1  -1  -7 125319. 2552.32  34
  -1   1  -7 110865. 2425.15  30
  -1  -1  -7 117880. 2469.36  30
  -1   1  -7 129962. 2374.92   2
  -1   1  -7 120542. 2534.50  34
  -1  -1  -7 135818. 2398.65   2
  -1   1  -8 9704.77 501.956  30
  -1  -1  -8 10490.6 551.834  34
  -1   1  -8 10423.3 550.861  34
  -1  -1  -8 10234.3 524.347  30
  -1  -1  -9 302.896 102.044  30
  -1  -1  -9 145.588 73.4954  34
  -1   1  -9 112.782 73.9008  34
  -1  -1 -10 3732.24 161.704  14
  -1   1 -10 4029.99 181.331  20
  -1   1 -10 3708.97 159.413  14
  -1   1 -10 3985.10 180.873  18
  -1  -1 -10 3677.25 175.915  18
  -1  -1 -10 3939.86 180.306  20
  -1  -1 -11 72.6821 41.2646  18
  -1  -1 -11 76.4178 35.1893  14
  -1   1 -11 201.250 57.4224  14
  -1  -1 -11 98.0736 42.7306  20
  -1   1 -11 71.0133 37.7142  18
  -1   1 -11 70.1766 37.4912  20
  -1  -1 -12 343.792 60.0142  18
  -1  -1 -12 300.440 52.9182  20
  -1   1 -12 324.336 57.9440  18
  -1   1 -12 370.727 58.5738  20
  -1  -1 -13 931.485 84.9860  18
  -1   1 -13 880.572 85.9857  18
  -1  -1 -14 1351.61 91.5045  18
  -1   1 -14 1334.16 91.7801  18
  -1  -1 -15 274.106 36.2557  15
  -1  -1 -15 282.212 35.8553  18
  -1   1 -15 301.916 35.4897  15
   1   2 -15 265.514 35.7712  15
   1  -2 -15 247.473 35.5358  15
   1   2 -14 3060.42 135.730  18
   1  -2 -14 3137.62 144.268  15
   1  -2 -14 3172.94 135.116  18
   1   2 -14 3207.46 144.691  15
   1  -2 -13 1040.51 91.0073  20
   1   2 -13 1014.94 91.4148  15
   1  -2 -13 1112.09 87.2303  14
   1  -2 -13 960.109 82.2444  18
   1   2 -13 987.771 85.4010  18
   1  -2 -12-15.1329 27.8224  14
   1  -2 -12 20.3337 27.7095  20
   1   2 -12-16.5926 27.7964  18
   1  -2 -12 31.0294 27.3170  18
   1  -2 -11 11.2872 26.5498  20
   1   2 -11 41.0770 27.6916  18
   1  -2 -11 32.8167 27.6555  18
   1   2 -11 103.347 38.9148  14
   1   2 -11 21.0089 26.2238  20
   1  -2 -11 7.83853 27.6752  14
   1  -2 -10-19.0878 32.7080  14
   1  -2 -10-1.45641 21.5396   5
   1   2 -10-21.4350 34.6147  14
   1  -2 -10-40.5777 31.4904  18
   1  -2 -10-48.5299 32.4131  20
   1   2 -10-27.8783 34.8506  20
   1   2 -10 22.4969 29.5493  18
   1  -2  -9 3586.52 333.192  34
   1   2  -9 3722.41 342.621  34
   1   2  -8 1890.17 228.287  34
   1  -2  -8 1765.70 217.853  34
   1  -2  -7 11689.9 539.558  34
   1   2  -7 11548.1 537.894  34
   1  -2  -6 12054.7 509.671  34
   1   2  -6 12133.2 512.574  34
   1  -2  -6 12366.6 503.863  30
  -1  -2   6 13037.3 463.450  31
   1  -2  -5 198.028 48.9353  28
   1  -2  -5 218.483 68.8089  30
   1   2  -5 226.844 69.5157  34
  -1  -2   5 95.0686 40.0849   3
   1  -2  -5 196.517 39.9796   2
   1  -2  -5 317.303 76.3616  34
  -1   2   5 150.586 30.5020  31
   1  -2  -4 1650.01 145.485  34
   1  -2  -4 1592.67 99.5499   2
   1  -2  -4 1801.69 141.043  32
   1   2  -4 1724.51 84.8972   2
   1  -2  -4 1538.51 139.079  30
   1   2  -4 1614.64 122.779  33
  -1  -2   4 1538.16 114.591   3
   1  -2  -4 1674.79 126.432  28
   1   2  -4 1597.64 145.722  34
   1   2  -4 1484.18 136.347   4
   1  -2  -4 1494.16 136.538   4
   1  -2  -3 5018.36 202.998  28
   1   2  -3 4885.31 194.840  33
   1   2  -3 4744.94 213.599  34
   1  -2  -3 4612.69 213.077   4
   1  -2  -3 4421.95 157.324   2
   1  -2  -3 4631.89 208.107  30
  -1  -2   3 4428.35 182.387   3
   1  -2  -3 4643.73 205.384  32
   1  -2  -3 4484.78 209.514  34
   1  -2  -2 30933.1 629.471  34
   1   2  -2 29443.7 620.707  34
   1  -2  -2 30428.6 621.720  30
   1  -2  -2 29973.2 628.228   4
  -1  -2   2 30740.7 614.369   3
   1   2  -2 28285.7 595.127  33
   1  -2  -2 30554.7 567.255   2
   1  -2  -1 5408.18 163.950   1
   1  -2  -1 5435.98 163.270   4
   1  -2  -1 5539.63 156.543  30
   1  -2  -1 5294.88 147.865   2
   1  -2  -1 5193.91 159.821  34
   1   2  -1 5789.71 166.103  34
  -1  -2   1 5105.45 132.213   2
  -1   2   0 17923.6 350.926  36
  -1  -2   0 16743.9 348.080   2
   1  -2   0 17118.4 358.848  31
  -1   2  -1 6168.02 151.115  29
   1  -2   1 5836.87 183.301  35
   1  -2   2 47629.1 930.537  35
  -1  -2  -2 47029.9 968.837  29
  -1  -2  -3 911959. 15088.3   2
  -1   2  -3 999999. 15141.4  34
  -1  -2  -3 936010. 15119.7  34
  -1  -2  -3 939017. 15126.2  29
  -1   2  -3 998241. 15067.1  30
   1  -2   4 3846.02 161.089  35
  -1  -2  -4 3331.84 186.762   2
   1  -2   4 3573.08 194.970  31
  -1   2  -4 3220.42 184.707  30
  -1  -2  -4 4037.76 187.899  32
  -1   2  -4 3322.60 212.881  34
  -1  -2  -4 3401.51 212.216  34
  -1  -2  -4 3827.18 153.795  28
  -1   2  -5 288.687 71.8669  30
  -1  -2  -5 382.647 67.2794  32
  -1  -2  -5 223.651 56.6006   2
   1  -2   5 278.237 62.2144  31
  -1  -2  -6 4577.28 288.016  30
  -1  -2  -6 4759.48 310.770  34
  -1   2  -6 4356.87 273.988  30
   1  -2   6 4777.33 261.659  31
  -1   2  -6 5396.91 267.314   2
  -1  -2  -6 4819.37 265.003   2
  -1   2  -6 4676.06 309.600  34
  -1   2  -7 68282.7 1562.68  30
  -1   2  -7 66264.6 1622.62  34
  -1  -2  -7 69838.8 1489.52   2
  -1   2  -8 4508.65 358.383  34
  -1  -2  -8 4616.34 363.396  34
  -1  -2  -8 4358.36 340.610  30
  -1  -2  -9 881.894 154.379  30
  -1   2  -9 755.616 158.192  34
  -1  -2  -9 714.799 151.312  34
  -1   2 -10 2394.54 126.904  14
  -1   2 -10 2350.44 138.301  18
  -1  -2 -10 2615.94 144.701  20
  -1   2 -10 2608.43 143.561  20
  -1  -2 -10 2418.35 139.939  18
  -1   2 -11 2883.65 140.102  14
  -1  -2 -11 2369.87 144.972  18
  -1   2 -11 2768.33 151.405  20
  -1  -2 -11 2605.33 148.274  20
  -1   2 -11 2722.42 152.961  18
  -1  -2 -12 286.481 53.9897  18
  -1  -2 -12 209.462 48.0596  20
  -1   2 -12 324.828 56.8859  18
  -1  -2 -13 258.346 48.5248  18
  -1  -2 -13 303.054 53.3383  20
  -1   2 -13 219.731 45.1879  18
  -1  -2 -14 543.823 60.2257  18
  -1   2 -14 575.798 61.2885  18
  -1   2 -14 607.495 60.8655  15
  -1  -2 -15-18.2217 19.2811  18
  -1   2 -15 9.81391 16.1512  15
  -1  -2 -15-0.96774 18.1594  15
   1   3 -15 365.275 39.9710  15
   1  -3 -15 331.715 38.6449  15
   1   3 -14 407.918 53.4975  15
   1  -3 -14 520.245 58.9789  15
   1  -3 -14 434.926 49.4685  18
   1  -3 -13-4.18098 30.0453  20
   1   3 -13 28.8060 29.8074  15
   1  -3 -13 15.9503 23.9849  18
   1   3 -13 47.3620 27.8100  18
   1   3 -12 5587.03 211.815  14
   1  -3 -12 4898.97 193.169  14
   1  -3 -12 4786.64 207.433  20
   1  -3 -12 5210.95 210.482  18
   1   3 -12 4869.99 207.748  18
   1  -3 -11 8948.80 280.614  14
   1  -3 -11 8981.76 294.267  18
   1   3 -11 8490.54 272.042  14
   1  -3 -11 8888.65 294.599  20
   1   3 -11 8658.98 290.667  18
   1   3 -10 5860.05 215.723  14
   1  -3 -10 6106.35 230.293  18
   1  -3 -10 6072.60 233.419   5
   1   3 -10 6364.09 234.784  18
   1  -3 -10 6031.64 222.226  14
   1   3 -10 6154.56 232.177  20
   1  -3 -10 6072.84 234.123  20
   1  -3  -9-113.086 68.0245  34
   1   3  -9 77.1453 60.4300  34
   1  -3  -8 261.610 89.4420  34
   1   3  -8 384.289 103.468  34
   1  -3  -7 27675.6 874.606  30
   1  -3  -7 26005.3 866.213  34
   1   3  -7 25275.2 859.957  34
   1  -3  -6 3918.70 272.709  30
   1   3  -6 3527.80 263.863  34
   1  -3  -6 3562.95 263.551  34
  -1  -3   6 3964.21 253.273  31
  -1  -3   5 4522.37 226.003   3
   1  -3  -5 4200.88 227.215  28
   1  -3  -5 4333.18 201.468   2
   1  -3  -5 4210.39 258.473  34
   1  -3  -5 4547.38 266.188  30
   1   3  -5 4122.16 256.847  34
   1  -3  -5 4127.28 241.897  32
   1   3  -4 3617.94 215.132  34
   1   3  -4 4116.30 198.180  33
   1  -3  -4 4098.65 215.425  32
  -1  -3   4 3982.75 197.849   3
   1  -3  -4 3890.06 173.255   2
   1  -3  -4 4071.85 205.548  28
   1  -3  -4 4126.67 227.187  30
   1  -3  -3 1304.11 87.3257   2
   1  -3  -3 1165.14 103.593   4
   1  -3  -3 1137.25 103.312  34
   1  -3  -3 1159.63 98.3474  28
   1   3  -3 989.730 96.4323  34
  -1  -3   3 1188.99 98.7575   3
   1  -3  -3 1200.52 104.415  30
   1   3  -3 1063.98 92.4959  33
  -1  -3   2 2747.23 136.027   3
   1  -3  -2 2511.62 129.260   4
   1  -3  -2 2424.53 127.243  30
   1   3  -2 2125.67 120.545   4
   1  -3  -2 2424.54 125.835  34
   1  -3  -2 2384.40 112.300   2
   1   3  -2 2619.10 128.160  34
   1  -3  -2 2479.73 111.945   1
   1  -3  -1 56815.8 1039.36  30
   1  -3  -1 61731.4 1078.02   1
   1   3  -1 58477.9 1053.75   4
  -1  -3   1 62102.6 1049.00   2
  -1  -3   1 60081.6 1097.12   3
   1  -3  -1 65872.6 1063.33   4
   1   3  -1 59838.6 1054.40  34
   1  -3  -1 63824.8 1074.18   2
   1  -3  -1 60300.5 1056.75  34
   1   3  -1 62706.9 1040.38  36
   1  -3   0 24802.8 505.047  31
   1  -3   0 24245.1 525.614  35
  -1  -3   0 27110.3 513.101   2
  -1  -3   0 23490.3 500.356   3
  -1   3   0 26678.1 511.702  36
  -1  -3  -1 6627.86 208.826   2
  -1   3  -1 5885.46 133.137  30
   1  -3   1 5856.25 199.684  35
  -1  -3  -1 7256.21 182.497   3
   1  -3   1 7153.08 220.669  31
  -1   3  -2 27789.1 521.172  33
  -1   3  -2 33113.1 595.083  30
  -1  -3  -2 33080.5 673.303  29
  -1  -3  -2 33608.8 554.975   3
   1  -3   2 30167.9 641.238  35
   1  -3   2 30632.8 669.442  31
  -1  -3  -2 35750.4 676.060   2
  -1  -3  -3 265877. 4312.11  34
  -1  -3  -3 269874. 4333.26  29
   1  -3   3 255829. 4310.37  31
   1  -3   3 248190. 4241.16  35
  -1   3  -3 249302. 4229.48  30
  -1   3  -3 249765. 4300.94  34
  -1   3  -4 776.274 105.731  34
   1  -3   4 786.326 79.8610  35
   1  -3   4 707.450 93.7806  31
  -1  -3  -4 899.730 93.2231  32
  -1   3  -4 772.988 89.3817  30
  -1  -3  -4 709.956 68.0935  28
  -1  -3  -4 845.415 107.192  34
  -1  -3  -4 752.248 92.9158   2
  -1  -3  -5 927.689 124.504  34
   1  -3   5 597.754 95.0572  31
  -1   3  -5 695.590 98.0584  30
  -1   3  -5 1005.16 134.396  34
  -1  -3  -5 863.988 103.954   2
   1  -3   5 936.705 90.6324  35
  -1  -3  -5 819.729 81.7136  28
  -1  -3  -5 814.627 98.5180  32
  -1  -3  -6 4379.94 256.343   2
  -1  -3  -6 3514.87 252.905  30
  -1   3  -6 3405.79 238.327  30
  -1  -3  -6 3958.72 235.285  32
  -1   3  -6 3821.47 228.368   2
  -1  -3  -6 4018.74 283.486  34
  -1   3  -6 3882.58 280.693  34
  -1   3  -7 5328.46 332.897  30
  -1  -3  -7 5726.00 319.420   2
   1  -3   7 6177.33 334.124  31
  -1   3  -7 5162.09 354.930  34
  -1  -3  -7 5032.87 338.199  30
  -1  -3  -7 5886.22 376.533  34
  -1  -3  -8 25831.7 920.820  34
  -1   3  -8 23885.1 896.036  34
  -1  -3  -8 25479.5 892.730  30
  -1  -3  -9 807.322 154.349  30
  -1   3  -9 935.314 173.121  34
  -1  -3  -9 1047.45 181.309  34
  -1   3 -10 82.7196 29.4873  20
  -1  -3 -10 205.796 42.8177  20
  -1  -3 -10 130.480 37.8282  18
  -1   3 -10 93.0062 30.9292  18
  -1  -3 -11 498.382 66.5811  18
  -1   3 -11 722.944 79.2791  18
  -1  -3 -11 669.998 76.8061  20
  -1   3 -12 712.199 79.0003  18
  -1  -3 -12 726.146 80.9593  18
  -1  -3 -12 837.220 85.6328  20
  -1  -3 -13-24.5039 38.0973  18
  -1  -3 -13-20.4921 34.4665  20
  -1   3 -13 30.1664 29.7041  18
  -1   3 -14 80.1073 32.5880  18
  -1   3 -14 53.9895 26.4023  15
  -1  -3 -14 78.7490 28.7478  18
  -1  -3 -15 228.982 33.7962  15
  -1   3 -15 272.189 34.5662  15
  -1  -3 -15 263.249 33.4867  18
   1   4 -15 174.815 30.1846  13
   1  -4 -15 155.569 27.5049  15
   1   4 -15 197.409 30.4477  15
   1  -4 -14 256.617 43.6198  15
   1  -4 -14 184.076 34.1673  18
   1  -4 -13 231.488 41.8780  18
   1   4 -13 195.891 41.4676  18
   1   4 -13 208.875 44.4148  15
   1  -4 -13 296.330 46.5564  14
   1  -4 -13 250.170 47.6691  20
   1   4 -12 52.5533 28.4304  18
   1  -4 -12 41.4293 25.0532  14
   1  -4 -12 83.9718 34.8004  18
   1  -4 -12 68.4006 38.8541  20
   1  -4 -11 195.128 44.9320  18
   1   4 -11 238.411 47.7259  18
   1  -4 -11 202.964 52.1649  20
   1  -4 -11 208.724 44.2876  14
   1  -4 -10 4087.96 188.406   5
   1   4 -10 3960.00 171.424  14
   1   4 -10 4177.92 186.476  20
   1   4 -10 4205.36 187.694  18
   1  -4 -10 4467.62 193.141  18
   1  -4 -10 4058.47 186.636  20
   1  -4  -9 935.129 165.124  34
   1   4  -9 827.908 161.363  34
   1   4  -8-1.35734 62.0315  34
   1  -4  -8-202.460 84.3708  34
   1  -4  -7 14451.5 607.540  34
  -1  -4   7 14925.3 575.914  31
   1   4  -7 13782.4 596.936  34
   1  -4  -7 14104.8 599.040  30
   1  -4  -6 428.357 84.2425  28
  -1  -4   6 371.626 78.4830   3
   1  -4  -6 352.459 85.3833  34
   1  -4  -6 358.060 91.6064  30
  -1  -4   6 225.290 67.2497  31
   1   4  -6 338.922 84.7263  34
   1   4  -5 2588.50 202.345  34
   1   4  -5 2892.01 183.988  33
   1  -4  -5 3007.55 217.462  30
   1  -4  -5 2776.80 188.121  28
   1  -4  -5 2894.89 206.177  32
   1  -4  -5 2529.16 159.462   2
  -1  -4   5 2691.60 184.090   3
   1  -4  -5 2524.76 200.099  34
   1  -4  -4 3669.75 198.092  28
   1  -4  -4 3273.15 201.424  30
   1  -4  -4 3172.47 165.611   2
   1   4  -4 3327.54 202.972  34
   1   4  -4 3198.80 174.158  33
  -1  -4   4 3148.83 185.412   3
   1  -4  -4 3532.05 206.771  32
   1  -4  -4 3071.10 196.099  34
   1  -4  -3 114901. 2049.62  34
   1   4  -3 113489. 2047.23  34
   1   4  -3 112985. 2005.86  33
   1  -4  -3 122461. 2017.56   2
   1  -4  -3 114849. 2051.77   4
   1  -4  -3 109393. 2047.30  30
  -1  -4   3 124768. 2080.40   3
   1  -4  -2 1967.72 112.300   2
  -1  -4   2 2125.21 131.010   3
   1  -4  -2 2460.15 123.786  34
   1   4  -2 2449.51 124.312  34
   1  -4  -2 2134.38 118.652  30
   1  -4  -2 2032.81 115.573   4
   1   4  -2 1814.61 109.498   4
   1  -4  -2 1926.23 102.740   1
  -1  -4   1 34647.1 685.620   2
   1  -4  -1 36784.6 710.142   2
   1  -4  -1 37364.7 660.218  30
   1   4  -1 34178.9 660.499   4
  -1  -4   1 34922.8 728.574   3
   1   4  -1 35934.4 677.468  36
   1  -4  -1 38225.1 670.053   4
   1  -4  -1 36431.7 666.968  31
   1  -4  -1 35341.5 662.912  34
   1  -4  -1 37171.3 701.490   1
   1   4  -1 35289.3 662.280  34
  -1   4   0 68569.3 1212.39  36
  -1  -4   0 63022.5 1199.93   3
   1  -4   0 63124.4 1196.02  31
  -1  -4   0 66966.1 1213.21   2
  -1  -4  -1 853.253 66.9152   3
  -1   4  -1 1023.10 80.4710  36
   1  -4   1 890.904 79.7836  31
  -1  -4  -1 783.468 75.8630   2
   1  -4   2 16658.9 428.207  35
  -1  -4  -2 17132.4 431.460   2
  -1   4  -2 16359.5 344.551  30
  -1  -4  -2 16500.7 343.913   3
  -1   4  -3 10528.7 229.571  33
  -1  -4  -3 11001.1 355.601  29
  -1  -4  -3 9967.40 327.931  34
   1  -4   3 9724.14 317.885  35
  -1   4  -3 10672.4 337.959  34
  -1  -4  -3 8150.81 184.730  35
  -1  -4  -3 9646.56 327.565   2
   1  -4   3 9202.30 335.869  31
  -1   4  -3 11100.1 297.619  30
  -1  -4  -4 163722. 3087.99  29
  -1  -4  -4 189179. 3072.03   2
   1  -4   4 163101. 3065.55  31
  -1  -4  -4 183998. 3105.88  34
  -1   4  -4 178773. 3010.71  30
  -1  -4  -4 179227. 2953.50  28
  -1   4  -4 174758. 3094.96  34
   1  -4   4 175279. 3006.55  35
  -1  -4  -5 6636.84 311.199   2
   1  -4   5 6819.40 328.500  31
  -1  -4  -5 8066.81 369.425  34
  -1   4  -5 7876.09 368.005  34
   1  -4   5 7283.85 292.060  35
  -1  -4  -5 8011.25 281.085  28
  -1   4  -5 7248.32 316.611  30
  -1  -4  -5 7919.99 332.367  32
  -1  -4  -6 6643.99 334.679   2
  -1  -4  -6 7497.33 344.691  32
  -1  -4  -6 6173.27 348.580  30
  -1  -4  -6 7374.82 389.851  34
   1  -4   6 6995.06 353.478  31
  -1   4  -6 7537.24 356.075  30
  -1   4  -6 7240.40 387.159  34
  -1  -4  -7 4527.75 327.511  34
  -1  -4  -7 3803.91 298.553  30
  -1  -4  -7 4143.04 271.495  32
  -1   4  -7 4011.24 312.799  34
   1  -4   7 4219.30 287.951  31
  -1  -4  -7 4346.29 280.656   2
  -1   4  -8 8863.79 513.381  34
  -1  -4  -8 10099.1 539.907  34
  -1  -4  -8 9336.75 510.706  30
  -1  -4  -9 230.439 88.2098  30
  -1  -4  -9 281.637 93.5944  34
  -1   4  -9 111.174 65.9861  34
  -1  -4 -10 130.146 41.2262  18
  -1   4 -10 164.826 43.9209  20
  -1   4 -10 73.2253 25.6152  18
  -1  -4 -10 103.344 37.3045  20
  -1   4 -11 15.8622 30.0617  18
  -1  -4 -11 4.21662 34.6842  18
  -1  -4 -11-19.4472 30.8066  20
  -1  -4 -12 3304.28 169.111  20
  -1  -4 -12 3250.83 166.318  18
  -1   4 -12 3336.81 169.745  18
  -1  -4 -13 259.913 49.9775  20
  -1   4 -13 264.777 49.1344  18
  -1  -4 -13 167.406 39.8909  18
  -1   4 -14 1753.29 104.079  18
  -1   4 -14 1922.51 104.609  15
  -1  -4 -14 1941.95 107.225  18
  -1  -4 -15 39.6853 19.8793  15
  -1  -4 -15 16.2992 16.0473  18
  -1   4 -15-11.7932 18.2824  13
   1  -5 -15 1366.49 70.7653  15
   1   5 -15 1358.42 73.5256  13
   1   5 -15 1275.73 69.1074  15
   1   5 -14 119.651 31.8313  15
   1  -5 -14 153.372 36.5640  15
   1  -5 -13 3.12945 28.9035  20
   1   5 -13 10.8079 26.7665  15
   1  -5 -13-9.36035 25.3851  14
   1  -5 -13 22.5007 25.9924  18
   1   5 -13-6.55176 24.7418  18
   1  -5 -12 250.466 40.0194  14
   1   5 -12 314.591 53.2086  18
   1   5 -12 350.050 58.8453  15
   1  -5 -12 353.425 56.8235  20
   1  -5 -12 270.075 46.5612  18
   1  -5 -11 865.611 78.6933  14
   1   5 -11 995.032 92.1206  18
   1  -5 -11 877.066 85.0656  18
   1  -5 -11 906.771 87.9875  20
   1  -5 -10 15.8050 29.5305   5
   1   5 -10 19.8189 24.7943  18
   1  -5 -10 41.2727 26.5167  18
   1  -5 -10-13.9629 22.9900  20
   1   5  -9 4834.47 391.112  34
   1  -5  -9 4821.89 195.610  20
   1  -5  -9 4614.89 195.931   5
   1  -5  -9 4979.66 396.588  34
   1   5  -9 4446.62 176.380  14
   1   5  -8 3850.11 326.461  34
   1  -5  -8 4357.90 344.470  34
   1  -5  -7 179.875 77.9115  30
   1  -5  -7 353.095 90.0192  34
   1   5  -7 250.561 80.6349  34
  -1  -5   7 172.637 72.5767  31
   1  -5  -7 199.786 66.3526  28
   1  -5  -6 30.6991 43.9169  32
   1  -5  -6 63.4390 47.6376  30
   1  -5  -6 80.1956 56.4977  34
   1   5  -6 79.9490 56.2611  34
   1  -5  -6 35.4657 38.0191  28
  -1  -5   6 42.7745 50.2811  31
  -1  -5   6 49.8076 44.0519   3
   1  -5  -5 2222.09 184.688  34
  -1  -5   5 1802.67 161.098   3
   1   5  -5 2012.39 177.172  34
   1  -5  -5 1924.73 174.286  30
   1  -5  -5 1834.48 143.269   2
   1  -5  -5 2090.13 168.766  28
   1   5  -5 1950.87 152.928  33
   1  -5  -5 2127.78 180.822  32
  -1  -5   4 8670.89 344.130   3
   1   5  -4 9134.46 349.404  34
   1  -5  -4 8532.94 343.032  34
   1  -5  -4 8750.82 354.725  32
   1  -5  -4 8824.66 349.988  30
   1  -5  -4 8668.20 312.718   2
   1  -5  -4 9291.08 345.483  28
   1  -5  -3 9086.76 333.005  32
   1  -5  -3 8505.59 299.852   4
  -1  -5   3 8135.14 315.027   3
   1   5  -3 8521.21 299.764  34
   1  -5  -3 8042.54 296.723  30
   1  -5  -3 8328.30 290.942   2
   1  -5  -3 8372.14 297.879  34
   1  -5  -2 16824.4 397.856  34
  -1  -5   2 17797.4 465.255   3
   1   5  -2 14951.6 387.934   4
   1  -5  -2 13588.7 398.161   2
   1  -5  -2 16325.2 386.197   1
   1  -5  -2 15730.5 397.286  30
   1  -5  -2 16389.9 399.277   4
   1   5  -2 17252.0 398.459  34
   1   5  -1 177.593 29.4043   4
   1   5  -1 221.981 39.4433  36
   1  -5  -1 191.703 33.7975  31
   1  -5  -1 188.728 28.1965  30
   1  -5  -1 202.462 43.2684   2
  -1  -5   1 130.518 40.7310   3
  -1  -5   1 170.923 37.0331   2
   1  -5  -1 156.784 28.1406   4
  -1  -5   0 18546.5 452.696   2
  -1  -5   0 19984.4 464.240   3
   1  -5   0 18653.1 467.253  35
   1  -5   0 18817.1 443.949  31
  -1   5   0 17990.9 446.357  36
  -1   5  -1 17194.5 412.800  36
   1  -5   1 15489.9 418.473  31
  -1  -5  -1 15503.0 381.989   3
   1  -5   1 16543.1 429.760  35
   1  -5   2 16831.2 477.419  31
  -1  -5  -2 17347.9 471.477   2
  -1  -5  -2 17877.5 399.134   3
   1  -5   2 17125.5 468.458  35
  -1  -5  -2 17431.5 419.850  34
  -1  -5  -3 379.473 64.8919  34
  -1  -5  -3 360.098 71.0031   2
  -1   5  -3 448.140 69.0123  34
  -1  -5  -3 390.731 35.4158  35
   1  -5   3 330.090 72.9793  31
  -1   5  -3 363.889 36.3238  33
  -1  -5  -3 341.838 71.9473  29
   1  -5   3 327.704 65.0788  35
  -1  -5  -4 98.6635 47.9886  34
  -1   5  -4 105.061 47.4538  34
  -1  -5  -4 100.479 61.7213  29
   1  -5   4 93.2417 43.1350  35
   1  -5   4 166.434 68.1488  31
  -1  -5  -4 70.6279 43.5408   2
  -1   5  -4 122.603 29.2211  33
  -1  -5  -5 2237.97 180.343   2
  -1  -5  -5 2654.57 205.563  34
  -1  -5  -5 3154.12 174.964  28
  -1  -5  -5 2679.46 194.750  32
  -1   5  -5 2277.98 194.592  34
   1  -5   5 2905.73 216.980  31
   1  -5   5 2720.79 182.755  35
  -1  -5  -6 15646.9 587.562  34
   1  -5   6 14548.1 553.760  31
  -1  -5  -6 15049.7 533.423  32
  -1  -5  -6 14741.4 564.096  30
  -1   5  -6 14120.7 566.064  34
  -1  -5  -6 13941.1 520.612   2
  -1  -5  -7 10197.5 454.421  32
   1  -5   7 10898.7 492.449  31
  -1  -5  -7 11147.4 528.527  34
  -1  -5  -7 10932.7 475.530   2
  -1   5  -7 9854.15 505.018  34
  -1  -5  -7 9949.14 496.819  30
  -1  -5  -8 3572.78 317.059  34
  -1   5  -8 2860.64 284.234  34
  -1  -5  -8 2680.20 270.171  30
  -1  -5  -9 2768.78 295.558  30
  -1   5  -9 2922.43 148.228  18
  -1   5  -9 2896.37 146.720  20
  -1  -5  -9 3184.12 317.971  34
  -1   5  -9 2748.87 298.325  34
  -1  -5  -9 3143.74 155.335  20
  -1  -5 -10 4749.93 206.224  18
  -1  -5 -10 4964.07 207.163  20
  -1   5 -10 4846.43 205.141  18
  -1  -5 -11 2636.78 152.183  18
  -1   5 -11 2510.92 147.715  18
  -1  -5 -11 2861.25 155.706  20
  -1   5 -12-8.03429 31.6171  18
  -1  -5 -12 32.7653 34.5959  18
  -1  -5 -12 21.1393 33.6771  20
  -1  -5 -13 50.3120 30.0849  18
  -1  -5 -13 47.7525 29.5769  20
  -1   5 -13-17.1140 27.8228  15
  -1   5 -13 61.3599 32.3291  18
  -1  -5 -14 458.889 53.0112  18
  -1   5 -14 409.564 49.4002  15
  -1   5 -15 153.902 27.6082  13
  -1  -5 -15 180.308 28.8471  15
   1   6 -14 24.9279 20.1852  15
   1  -6 -14-13.2720 20.0752  15
   1   6 -13 1192.87 93.2927  15
   1  -6 -13 1142.65 79.0884  14
   1  -6 -13 1200.54 93.4909  20
   1  -6 -13 1266.73 90.1262  18
   1   6 -12 391.664 57.4487  18
   1  -6 -12 385.549 51.0297  14
   1  -6 -12 344.947 52.9205  18
   1  -6 -12 357.974 56.2800  20
   1   6 -12 450.634 63.3982  15
   1  -6 -11 51.0594 24.4815  18
   1   6 -11 39.3523 27.0331  18
   1   6 -11 146.202 45.0027  15
   1  -6 -11 81.8513 42.2501   5
   1  -6 -11 46.9636 28.4137  14
   1  -6 -11 72.9927 37.3973  20
   1  -6 -10 21.1039 22.7751  18
   1  -6 -10 103.817 36.8588   5
   1  -6 -10 40.2836 27.3011  20
   1   6 -10 88.4483 31.1887  18
   1  -6  -9 3105.16 158.292   5
   1  -6  -9 3222.80 156.392  19
   1  -6  -9 3216.89 158.048  20
   1   6  -9 2800.53 294.857  34
   1   6  -9 3226.30 147.310  14
   1   6  -9 3141.43 154.480  18
   1  -6  -9 3587.55 334.245  34
   1  -6  -8 33.7873 53.5101  30
   1  -6  -8-13.4308 45.1951  34
   1   6  -8-1.59583 54.9507  34
   1  -6  -7 2117.81 224.173  30
   1  -6  -7 2242.79 205.218  28
   1  -6  -7 2017.85 214.887  34
  -1  -6   7 2247.30 225.744  31
   1   6  -7 2206.62 228.373  34
  -1  -6   6 5700.01 341.346  31
   1  -6  -6 4923.38 289.800  28
   1   6  -6 4645.29 303.205  34
  -1  -6   6 5278.23 307.962   3
   1   6  -6 5052.94 275.881  33
   1  -6  -6 4803.97 315.786  30
   1  -6  -6 5606.27 332.070  34
   1  -6  -6 5106.88 316.299  32
   1  -6  -5 633.958 99.2227  28
   1   6  -5 787.424 111.347  34
   1  -6  -5 874.861 116.561  34
   1   6  -5 957.856 110.726  33
   1  -6  -5 879.168 119.316  30
   1  -6  -5 795.293 116.443  32
   1  -6  -5 829.608 102.274   2
  -1  -6   5 860.706 117.344   3
   1   6  -4 934.599 108.884  34
   1   6  -4 795.749 92.2551  33
   1  -6  -4 1054.60 122.066  32
   1  -6  -4 893.962 111.572  30
   1  -6  -4 765.943 94.4654   2
   1  -6  -4 855.922 104.802  28
   1  -6  -4 941.577 113.609  34
   1  -6  -3 32.1080 31.4465  32
   1  -6  -3 66.5878 33.5299   2
   1  -6  -3 43.2644 28.2227  34
   1  -6  -3 65.1955 34.5188  30
  -1  -6   3 48.9890 35.0542   3
   1   6  -3 42.5036 34.4701  34
   1  -6  -3 76.3401 29.5754   1
   1  -6  -2 8876.71 276.527  30
   1  -6  -2 9538.05 274.617  34
   1  -6  -2 9281.29 276.956   4
   1  -6  -2 9283.21 315.653   2
   1  -6  -2 10027.8 285.742   1
   1   6  -2 8354.83 266.014   4
  -1  -6   2 9927.33 345.556   3
   1   6  -2 9045.92 269.127  34
  -1  -6   1 2970.24 169.371   3
   1  -6  -1 2836.74 128.445  31
   1  -6  -1 2746.72 154.067  35
   1  -6  -1 2781.18 107.515   4
  -1  -6   1 2460.00 139.239   2
   1  -6  -1 2573.53 148.302   2
   1   6  -1 2445.07 102.505   4
   1   6  -1 2392.68 134.359  36
   1   6   0 410.770 34.3801   4
  -1   6   0 438.501 64.4982  36
   1  -6   0 395.724 33.4460   4
  -1  -6   0 357.406 61.0042   3
  -1  -6   0 284.511 53.5794   2
   1  -6   0 375.310 65.1683  35
   1  -6   0 414.652 58.9935  31
   1   6   0 365.773 56.5115  36
   1  -6   1 6363.23 263.649  35
  -1   6  -1 6371.57 249.063  36
  -1  -6  -1 7107.93 268.175   2
  -1  -6  -1 7152.25 246.454   3
   1  -6   1 7011.71 271.286  31
  -1  -6  -2 3879.75 163.014  34
   1  -6   2 3528.60 202.241  31
  -1  -6  -2 3444.83 194.023   2
   1  -6   2 3754.87 202.925  35
  -1  -6  -2 3921.04 165.060   3
  -1   6  -2 3186.62 152.716  34
  -1  -6  -3 32250.6 625.181  35
  -1   6  -3 33197.7 742.265  34
   1  -6   3 34514.7 821.996  31
  -1  -6  -3 33145.6 741.526  34
  -1  -6  -3 32197.1 774.467  29
  -1  -6  -3 32422.4 782.970   2
   1  -6   3 30306.5 763.383  35
   1  -6   4 2139.75 183.936  31
  -1   6  -4 2427.14 178.506  34
  -1  -6  -4 2564.51 188.039   2
  -1   6  -4 2518.94 118.163  33
   1  -6   4 2530.54 181.446  35
  -1  -6  -4 2323.99 186.388  29
  -1  -6  -4 2302.72 173.738  34
  -1  -6  -5 6941.46 284.300  28
  -1  -6  -5 6922.40 335.145   2
   1  -6   5 6481.58 345.299  31
  -1  -6  -5 7529.52 354.170  34
  -1   6  -5 6005.25 323.863  34
   1  -6   5 6465.93 310.353  35
  -1  -6  -5 5787.52 311.627  32
  -1   6  -6 203.571 74.5729  34
   1  -6   6 208.642 76.5816  31
   1  -6   6 192.557 59.6278  35
  -1  -6  -6 307.964 85.3446  34
  -1  -6  -6 191.008 67.5127   2
  -1  -6  -6 231.755 67.9182  32
   1  -6   7 14203.0 600.755  31
  -1  -6  -7 16307.9 651.541  34
  -1  -6  -7 14881.8 584.512   2
  -1  -6  -7 13711.8 604.210  30
  -1   6  -7 15938.9 649.412  34
  -1  -6  -7 14188.1 567.307  32
  -1  -6  -8 282.252 88.3003  30
  -1   6  -8 466.129 118.863  34
  -1  -6  -8 313.346 97.3318  34
  -1  -6  -9 920.342 82.3444  20
  -1   6  -9 843.442 79.8242  18
  -1   6  -9 988.015 186.596  34
  -1  -6  -9 976.137 86.8805   5
  -1   6 -10 9042.61 290.453  17
  -1  -6 -10 9312.59 297.437  20
  -1   6 -10 8650.65 290.814  18
  -1   6 -11 725.812 78.5608  18
  -1  -6 -11 847.275 87.3727  20
  -1  -6 -11 707.778 82.1418  18
  -1   6 -12 286.219 51.1217  18
  -1  -6 -12 274.140 53.3254  20
  -1  -6 -12 236.772 49.6517  18
  -1   6 -13-13.8470 23.3249  15
  -1  -6 -13 19.5347 27.6131  18
  -1  -6 -13-20.9198 35.9247  20
  -1   6 -13 13.8750 30.4207  18
  -1  -6 -14 69.4864 28.0023  18
  -1  -6 -14 79.4620 30.9661  20
  -1   6 -14 74.4794 25.2405  15
  -1  -6 -15 1412.68 72.2656  15
   1   7 -14 937.414 70.3212  15
   1  -7 -14 978.481 72.6556  20
   1   7 -14 951.519 74.8368  13
   1  -7 -14 837.512 67.2894  15
   1  -7 -14 914.378 63.5420  18
   1  -7 -13 159.518 44.0381  20
   1  -7 -13 99.7143 26.9510  14
   1  -7 -13 135.396 33.2994  18
   1   7 -13 133.152 37.5999  15
   1  -7 -12-67.6673 40.3841  20
   1   7 -12 2.66562 28.0087  18
   1  -7 -12-2.61019 27.5446  18
   1   7 -12 38.8766 28.3442  15
   1  -7 -12 51.4438 30.1005  14
   1   7 -11 37.2308 23.9852  18
   1  -7 -11 35.2791 26.3520  20
   1   7 -11 18.3360 25.9833  15
   1  -7 -11 73.4875 35.4498   5
   1  -7 -11 55.2942 28.4185  18
   1  -7 -10 2069.32 131.561  20
   1  -7 -10 2024.52 128.046  18
   1   7 -10 2125.91 132.371  15
   1   7 -10 1902.44 123.858  18
   1  -7 -10 1953.64 128.392   5
   1   7 -10 1959.74 130.090  21
   1  -7  -9 3600.91 166.999  19
   1  -7  -9 3552.53 171.501   5
   1  -7  -9 3532.60 167.927  20
   1   7  -9 3359.77 162.899  18
   1   7  -9 3538.39 158.476  14
   1  -7  -8 4017.95 329.681  34
  -1  -7   8 4167.56 334.716  31
   1  -7  -8 3419.13 312.928  30
   1   7  -8 3842.31 324.404  34
   1  -7  -7 1858.91 189.548  28
   1  -7  -7 1844.43 206.236  32
   1  -7  -7 1982.12 218.302  30
   1  -7  -7 2019.30 214.642  34
  -1  -7   7 1702.25 205.924  31
   1   7  -7 1971.43 213.495  34
   1   7  -6 5361.55 325.944  34
  -1  -7   6 5031.24 334.255  31
   1  -7  -6 5317.03 329.508  32
  -1  -7   6 5664.08 338.580   3
   1  -7  -6 5973.53 342.867  34
   1  -7  -6 5547.18 342.974  30
   1  -7  -6 5220.58 307.753  28
   1   7  -6 6132.65 309.042  33
   1  -7  -5 4918.08 282.350  34
   1  -7  -5 4095.50 270.637  30
   1  -7  -5 4473.18 255.916   2
  -1  -7   5 4492.17 284.827   3
   1   7  -5 5167.68 286.344  34
   1  -7  -5 5044.70 282.795  28
   1  -7  -5 4256.05 279.739  32
   1   7  -5 5613.54 270.131  33
   1  -7  -4 110.955 47.9704  30
   1  -7  -4 52.7757 37.2307  34
   1  -7  -4 81.8452 43.0693   2
  -1  -7   4 62.5902 57.1330   3
   1   7  -4 59.0414 39.8468  34
   1   7  -4 55.4883 37.4748  33
   1  -7  -4 32.5127 47.7303  32
   1  -7  -3 8543.27 298.630  34
   1  -7  -3 9005.12 273.268   1
   1   7  -3 8114.98 289.531  34
   1  -7  -3 8189.33 322.865   2
   1  -7  -3 7678.85 339.698  32
   1  -7  -3 7809.98 301.431  30
  -1  -7   3 7849.64 346.523   3
   1  -7  -2 70472.0 1242.76   4
   1  -7  -2 80340.0 1257.63  34
   1   7  -2 67194.2 1221.77  34
   1   7  -2 66675.2 1230.50   4
   1  -7  -2 63129.7 1246.55  30
  -1  -7   2 76171.2 1414.11   3
   1  -7  -2 72169.1 1276.42   1
   1   7  -1 15025.8 413.002  36
   1  -7  -1 16376.9 445.865  35
   1  -7  -1 15994.3 326.572   4
   1  -7  -1 15094.3 383.031  31
   1   7  -1 15010.6 322.812   4
  -1  -7   1 15903.4 467.193   3
   1  -7   0 1569.65 115.401  31
   1  -7   0 1367.66 120.624  35
   1  -7   0 1318.64 55.2744   4
  -1   7   0 1026.89 100.665  36
   1   7   0 1469.39 111.824  36
  -1  -7   0 1183.31 111.584   3
  -1  -7   0 1349.78 114.279   2
   1   7   0 1177.47 54.9965   4
   1  -7   1 897.583 103.033  35
  -1  -7  -1 710.164 88.6709   2
  -1   7  -1 685.073 86.1340  36
  -1  -7  -1 698.017 82.2628   3
   1  -7   1 661.174 88.1675  31
  -1  -7  -2 6006.66 231.891   3
  -1  -7  -2 5781.75 207.287  34
  -1   7  -2 5379.05 205.007  34
   1  -7   2 5532.25 272.107  31
   1  -7   2 6339.93 281.784  35
  -1  -7  -2 5068.74 254.720   2
   1  -7   3 6665.16 306.571  35
  -1  -7  -3 7333.91 317.890   2
  -1  -7  -3 6948.06 225.272  35
  -1   7  -3 6464.49 267.190  34
   1  -7   3 6349.48 313.664  31
  -1  -7  -3 6481.66 295.646  29
  -1  -7  -3 6712.40 266.970  34
  -1   7  -4 2959.60 135.145  33
  -1   7  -4 3036.75 199.828  34
  -1  -7  -4 2834.46 209.024   2
   1  -7   4 3323.39 233.834  31
  -1  -7  -4 2745.92 207.240  29
  -1  -7  -4 2777.99 190.867  34
   1  -7   4 2754.43 202.228  35
  -1  -7  -5 167.207 56.6222  34
  -1  -7  -5 147.905 48.6634  28
   1  -7   5 155.678 57.6679  35
  -1   7  -5 195.438 65.2551  34
  -1  -7  -5 82.9920 45.9579   2
  -1  -7  -5 109.546 58.9007  32
   1  -7   5 134.197 67.0951  31
  -1   7  -6 7412.82 400.450  34
  -1  -7  -6 8221.55 407.035  32
   1  -7   6 9126.68 399.614  35
   1  -7   6 8405.46 433.333  31
  -1  -7  -6 7914.97 400.410   2
  -1  -7  -6 9121.12 434.702  34
  -1  -7  -7 1819.05 210.694  30
  -1  -7  -7 2183.34 217.120   2
  -1  -7  -7 2424.61 243.329  34
  -1   7  -7 1952.57 218.803  34
   1  -7   7 2283.94 235.447  31
  -1  -7  -7 2082.77 208.163  32
  -1   7  -8 139.924 75.6477  34
  -1  -7  -8 73.4884 64.8038  30
   1  -7   8 55.0643 61.4229  31
  -1  -7  -8 141.530 76.4759  34
  -1   7  -9 1892.28 119.672  18
  -1  -7  -9 1826.88 118.626  20
  -1   7  -9 1872.16 117.839  17
  -1  -7  -9 1857.91 120.346   5
  -1  -7 -10 167.834 44.5194  18
  -1   7 -10 266.713 49.1833  17
  -1   7 -10 275.160 52.9064  18
  -1  -7 -10 234.841 48.0656  20
  -1  -7 -11 572.970 72.4208  20
  -1   7 -11 595.527 73.6597  18
  -1  -7 -11 592.063 72.7776  18
  -1   7 -12 198.323 48.3203  18
  -1  -7 -12 254.896 50.1819  18
  -1  -7 -12 223.774 50.1303  20
  -1   7 -12 226.832 45.6283  15
  -1   7 -12 218.023 46.3977  21
  -1  -7 -13-2.62786 30.4631  20
  -1   7 -13 12.8648 21.1983  15
  -1   7 -13-3.83664 22.4915  21
  -1  -7 -13-42.7413 31.0034  18
  -1   7 -14 119.624 26.4463  15
  -1  -7 -14 73.6627 26.4266  18
  -1  -7 -14 72.1851 27.3646  20
  -1   7 -14 84.5706 28.3603  13
   1  -8 -14-7.03850 20.3052  20
   1   8 -14 20.4114 21.0292  15
   1   8 -14 30.7967 24.8390  13
   1  -8 -14 64.4074 26.6065  15
   1  -8 -13 38.6590 21.4834  14
   1  -8 -13 110.178 30.6252  18
   1  -8 -13 121.898 38.0350  20
   1  -8 -12 4185.84 180.975  18
   1  -8 -12 3877.05 180.682  20
   1  -8 -12 4122.73 169.248  14
   1   8 -12 4430.36 191.039  15
   1   8 -11 20.6355 27.8198  15
   1   8 -11 96.4342 34.2198  21
   1  -8 -11-0.19702 32.4726  20
   1  -8 -11-11.7592 24.1741  18
   1   8 -11 13.7904 24.7130  18
   1  -8 -11 12.3868 32.0351   5
   1   8 -10 554.682 69.3790  15
   1   8 -10 424.661 61.5084  18
   1   8 -10 437.941 63.9796  21
   1  -8 -10 424.995 61.1379  20
   1  -8 -10 519.152 64.7860  18
   1  -8 -10 484.463 64.6106   5
   1  -8 -10 517.456 66.5904  19
   1  -8  -9 11.4501 20.8983  20
   1  -8  -9 24.8613 23.9128   5
   1  -8  -9 36.5796 25.3308  19
   1   8  -9 6.24797 19.6798  18
   1   8  -9 11.2675 20.5504  15
   1   8  -9 67.8073 29.2433  21
   1  -8  -8 4720.15 357.470  34
   1   8  -8 4238.81 342.054  34
   1  -8  -8 4348.90 357.315  30
  -1  -8   8 3916.21 339.705  31
   1  -8  -7 919.089 140.475  28
   1  -8  -7 816.086 145.899  30
   1   8  -7 1189.31 167.781  34
  -1  -8   7 1099.35 170.962  31
   1  -8  -7 1034.23 153.799  34
   1  -8  -7 893.770 149.450  32
   1  -8  -6 2054.62 199.887  34
   1  -8  -6 2224.60 203.110  28
  -1  -8   6 2414.95 236.605  31
   1   8  -6 2302.11 187.745  33
   1  -8  -6 2292.20 219.248  32
  -1  -8   6 2534.87 232.725   3
   1  -8  -6 2140.06 213.585  30
   1   8  -6 2333.73 212.715  34
   1   8  -5 7843.66 335.763  33
  -1  -8   5 7955.12 404.083   3
   1   8  -5 7905.18 363.640  34
   1  -8  -5 7458.00 386.414  32
   1  -8  -5 7365.86 362.773  28
  -1  -8   5 8694.69 427.006  31
   1  -8  -5 7366.72 351.343  34
   1  -8  -5 7670.50 359.021   2
   1  -8  -5 7925.66 383.317  30
   1  -8  -4 959.174 117.002   2
   1   8  -4 1078.44 112.998  33
   1  -8  -4 1008.63 134.083  32
   1  -8  -4 1036.15 120.651  30
   1   8  -4 1201.29 120.173  34
  -1  -8   4 1115.60 139.080   3
   1  -8  -4 1203.81 120.808  34
   1   8  -3 2678.25 154.156  34
   1  -8  -3 2584.39 141.791   1
   1  -8  -3 2243.39 157.503  30
   1  -8  -3 2530.75 150.924  34
   1  -8  -3 2618.26 185.895   2
  -1  -8   3 2563.82 198.726   3
   1  -8  -2 18773.5 543.972   2
   1  -8  -2 19405.5 436.193  34
   1  -8  -2 17756.9 460.577  30
   1  -8  -2 20137.7 435.001  31
   1   8  -2 17076.9 500.054  36
  -1  -8   2 17461.9 563.976   3
   1   8  -2 20143.4 437.892  34
   1  -8  -2 18960.0 487.813   1
  -1  -8   1 3711.27 216.690   3
  -1  -8   1 2928.68 176.555   2
   1  -8  -1 3381.69 165.135  31
   1   8  -1 3198.19 109.354   4
   1  -8  -1 3201.88 187.230  35
   1  -8  -1 2711.43 180.250   2
   1   8  -1 3422.87 185.151  36
  -1   8   1 2581.06 176.119  36
  -1  -8   0 3422.77 199.952   3
   1  -8   0 2826.32 167.011  31
  -1   8   0 2570.18 172.518  36
   1  -8   0 2924.75 185.089  35
  -1  -8   0 2692.42 172.912   2
   1   8   0 2360.47 70.7637   4
   1   8   0 2956.34 172.123  36
  -1   8  -1 626.768 48.7629  34
  -1   8  -1 763.330 94.7163  36
   1  -8   1 634.535 90.9003  31
  -1  -8  -1 736.877 49.3155  34
  -1  -8  -1 605.075 81.8468   3
  -1  -8  -1 526.420 87.6067   2
   1  -8   1 754.726 102.864  35
  -1  -8  -2 10493.8 291.740  34
   1  -8   2 9838.80 387.057  35
  -1  -8  -2 10215.7 358.639  29
  -1  -8  -2 9544.72 377.537   2
  -1   8  -2 8891.93 279.427  34
   1  -8   2 9069.59 376.436  31
  -1  -8  -2 10857.7 348.091   3
  -1  -8  -3 37.4200 34.2118  35
  -1  -8  -3 20.9207 42.4235   2
   1  -8   3 20.0090 41.6759  35
   1  -8   3 58.2479 53.2685  31
  -1   8  -3 29.7349 27.6691  34
  -1  -8  -3 29.3986 45.6013  29
  -1  -8  -3 43.4415 32.0187  34
  -1  -8  -4 6871.30 312.889  34
  -1   8  -4 8202.10 340.949  34
  -1  -8  -4 7450.78 356.599   2
  -1  -8  -4 7762.25 362.490  29
   1  -8   4 7233.42 349.176  35
   1  -8   4 7454.53 375.756  31
  -1  -8  -5 69.9814 57.8480  34
  -1  -8  -5 8.02825 48.6657   2
  -1   8  -5 267.725 70.3756  34
   1  -8   5-26.1271 54.2928  31
   1  -8   5 222.211 71.6659  35
  -1  -8  -6 182.830 78.0423  32
   1  -8   6 218.403 77.7677  31
  -1  -8  -6 242.627 76.2236   2
  -1   8  -6 231.170 76.7012  34
  -1  -8  -6 264.256 76.8166  34
   1  -8   6 200.120 65.5455  35
  -1  -8  -7 3452.69 279.696   2
   1  -8   7 2783.41 270.339  31
  -1  -8  -7 3487.54 281.299  32
  -1  -8  -7 3361.92 287.736  30
  -1  -8  -7 3972.61 303.942  34
  -1   8  -7 3676.86 300.105  34
  -1  -8  -8 270.940 90.3609  34
  -1  -8  -8 416.390 106.992  32
  -1  -8  -8 391.670 109.277  30
  -1   8  -8 217.916 83.6648  34
   1  -8   8 372.936 108.223  31
  -1  -8  -9 90.4862 32.1166  20
  -1   8  -9 45.7829 23.5570  17
  -1  -8  -9 39.7886 26.3244   5
  -1   8  -9 66.3532 25.9464  18
  -1  -8 -10 986.293 90.4449  20
  -1   8 -10 956.361 90.1952  18
  -1   8 -10 927.296 89.0049  17
  -1  -8 -11 567.349 72.2594  20
  -1  -8 -11 567.461 73.2150  18
  -1   8 -11 647.953 73.0542  17
  -1   8 -11 507.938 67.9614  18
  -1   8 -11 690.321 73.0675  15
  -1   8 -12 192.624 41.8245  15
  -1   8 -12 134.646 42.2070  18
  -1  -8 -12 129.265 37.8795  20
  -1   8 -12 131.116 35.5277  21
  -1  -8 -12 142.559 37.0014  18
  -1  -8 -13 3.80300 30.1206  18
  -1   8 -13 2.31076 20.3450  21
  -1   8 -13-4.59543 27.5575  15
  -1  -8 -13-34.5230 31.1443  20
  -1   8 -14 122.723 30.4149  13
  -1  -8 -14 156.154 33.8094  20
  -1  -8 -14 154.866 31.1972  18
   1  -9 -14 3836.51 142.152  20
   1  -9 -14 3699.90 134.809  15
   1   9 -14 3651.20 134.558  15
   1   9 -14 3912.31 148.447  13
   1   9 -13 1237.34 88.4883  15
   1  -9 -13 1187.60 75.6880  14
   1   9 -13 1184.45 91.8324  13
   1  -9 -13 1209.08 83.4996  18
   1  -9 -13 1283.94 92.6661  20
   1   9 -12 49.5838 29.3404  15
   1  -9 -12 28.6469 26.6345  18
   1  -9 -12 85.7944 36.9817  20
   1  -9 -12 32.9527 26.3577  14
   1   9 -12 40.2818 28.9360  21
   1  -9 -11 34.4746 28.2884   5
   1   9 -11 56.1221 29.7339  15
   1   9 -11 19.6465 23.9629  21
   1  -9 -11 16.6657 27.9032  18
   1  -9 -11 12.3934 30.4927  20
   1   9 -10 1592.45 120.203  21
   1   9 -10 1782.66 121.093  18
   1  -9 -10 1585.78 112.830  18
   1  -9 -10 1777.46 122.922   5
   1   9 -10 1871.36 122.700  15
   1  -9 -10 1653.84 115.148  19
   1  -9 -10 1581.18 115.036  20
   1  -9  -9 902.235 82.4942  19
   1  -9  -9 823.071 83.0025   5
   1   9  -9 780.992 77.4782  18
   1   9  -9 837.244 80.1711  15
   1  -9  -9 900.711 86.0870  20
   1   9  -9 857.953 84.6839  21
  -1  -9   8 1149.36 190.483  31
   1  -9  -8 1095.21 180.057  30
   1   9  -7 450.469 102.304  34
   1  -9  -7 581.417 123.159  32
   1  -9  -7 405.400 104.449  30
  -1  -9   7 579.818 128.159  31
   1  -9  -7 651.346 118.087  34
   1  -9  -7 535.155 109.416  28
   1  -9  -6 1232.42 154.196  34
   1  -9  -6 1337.08 162.771  28
   1  -9  -6 1260.43 169.120  32
  -1  -9   6 1075.33 166.834  31
   1  -9  -6 1240.58 164.066  30
   1   9  -6 1327.35 162.927  34
   1   9  -5 5936.32 309.614  34
   1   9  -5 6800.63 313.368  33
   1  -9  -5 6347.98 318.087  34
   1  -9  -5 5580.70 342.042  32
   1  -9  -5 5491.67 323.344  30
  -1  -9   5 6453.87 378.064  31
   1  -9  -5 5824.38 322.131   2
   1  -9  -5 5699.23 326.504  28
  -1  -9   5 5957.15 360.408   3
   1  -9  -4 7.70705 31.3366  30
   1  -9  -4 56.6777 35.8050  34
   1  -9  -4 20.5484 37.6897   2
   1  -9  -4 14.0737 43.0412  32
  -1  -9   4-17.7858 54.8268   3
   1   9  -4-15.6644 27.7066  34
   1  -9  -3 2454.67 168.311  30
  -1  -9   3 2984.33 226.660   3
   1  -9  -3 2490.27 149.500  34
   1  -9  -3 2701.07 153.188   1
   1  -9  -3 2550.11 192.409   2
   1   9  -2 772.532 97.7967  36
   1  -9  -2 912.368 93.1873   1
   1  -9  -2 800.271 80.7111  30
  -1  -9   2 1183.42 138.541   3
   1  -9  -2 1053.26 82.1333  31
   1  -9  -2 898.136 112.132   2
   1  -9  -1 104.640 48.5019  35
  -1  -9   1 119.964 52.6209   3
  -1   9   1 154.222 58.2321  36
   1   9  -1 153.714 55.7317  36
  -1  -9   1 162.794 55.4695   2
   1  -9  -1 274.799 67.0311   2
   1  -9  -1 145.103 40.0491  31
   1  -9   0 63.7957 50.4892  35
   1  -9   0 61.2763 41.9914  31
   1   9   0 34.7709 34.9198  36
  -1  -9   0 60.3805 46.3162   2
  -1  -9   0 35.8845 38.3924   3
  -1   9   0 53.3448 41.2761  36
  -1   9  -1 176.816 59.3556  36
   1  -9   1 198.443 66.7368  35
  -1  -9  -1 95.5556 14.1405  34
  -1  -9  -1 88.1363 47.7990   2
  -1  -9  -1 149.661 54.4628   3
   1  -9   1 142.456 47.3361  31
   1  -9   2 6819.85 327.424  35
   1  -9   2 5995.90 310.446  31
  -1  -9  -2 7037.20 298.505  29
  -1  -9  -2 6966.45 330.053   2
  -1   9  -2 6590.34 217.786  34
  -1   9  -2 6068.00 295.222  36
  -1  -9  -2 6790.36 216.267  34
  -1  -9  -3 12260.7 373.482  35
  -1   9  -3 12306.0 378.129  34
   1  -9   3 10371.3 452.891  31
  -1  -9  -3 12996.6 382.482  34
   1  -9   3 11493.2 458.841  35
  -1  -9  -3 11399.2 430.175  29
  -1  -9  -3 12522.7 469.398   2
   1  -9   4 20685.8 686.475  35
  -1  -9  -4 20745.3 684.534   2
  -1   9  -4 25375.5 658.574  34
  -1  -9  -4 25026.4 648.526  34
   1  -9   4 21412.4 723.659  31
  -1  -9  -4 23248.4 699.233  29
   1  -9   5 78.9363 56.2496  35
  -1  -9  -5 21.1754 32.2096  34
  -1  -9  -5 72.7002 52.9437   2
   1  -9   5 37.2092 55.9212  31
  -1   9  -5 34.6578 37.5941  34
  -1  -9  -6 4401.41 314.956  32
   1  -9   6 5007.25 350.928  31
  -1  -9  -6 5370.86 328.087  34
   1  -9   6 4690.84 311.010  35
  -1   9  -6 4867.01 315.881  34
  -1  -9  -6 4104.99 302.189   2
  -1  -9  -7 3300.17 280.973  32
   1  -9   7 2343.50 252.201  31
  -1   9  -7 2800.36 261.494  34
  -1  -9  -7 3044.67 278.724  30
  -1  -9  -7 2549.19 247.175   2
  -1  -9  -7 3325.53 283.330  34
   1  -9   8 3001.15 298.032  31
  -1  -9  -8 2786.66 267.493  32
  -1  -9  -8 2794.04 287.730  30
  -1   9  -9 252.555 45.8813  18
  -1  -9  -9 285.663 47.8812  20
  -1  -9  -9 332.777 53.2425   5
  -1   9  -9 267.525 47.6473  17
  -1   9 -10 417.218 59.0150  17
  -1  -9 -10 368.360 60.1304  20
  -1   9 -10 517.722 64.0464  15
  -1   9 -10 399.171 61.0877  18
  -1   9 -11 144.004 37.9672  17
  -1  -9 -11 151.504 47.4478  20
  -1  -9 -11 196.984 49.1267  18
  -1   9 -11 171.223 37.9226  15
  -1   9 -11 75.7256 35.2470  18
  -1   9 -12 309.051 53.6408  21
  -1  -9 -12 355.074 57.3757  18
  -1   9 -12 420.726 55.2896  15
  -1  -9 -12 346.518 57.8317  20
  -1  -9 -13 413.597 55.1726  20
  -1   9 -13 363.981 54.4756  13
  -1   9 -13 310.456 46.0944  21
  -1  -9 -13 370.972 50.6602  18
  -1  -9 -14 123.115 30.9416  20
  -1  -9 -14 91.3314 25.5402  18
  -1   9 -14 65.9310 20.9244  13
   1  10 -14 3203.69 128.631  13
   1 -10 -14 3228.97 124.216  20
   1 -10 -14 2967.59 111.280  15
   1  10 -14 2882.15 111.236  15
   1 -10 -13 136.226 32.3806  18
   1  10 -13 66.9176 26.2764  13
   1 -10 -13 130.219 35.4720  20
   1 -10 -13 61.7099 23.5253  14
   1  10 -13 156.328 34.1763  15
   1 -10 -12 46.6452 27.8995  20
   1  10 -12 59.4344 28.7929  21
   1 -10 -12-10.7775 27.0158  14
   1 -10 -12 50.0984 28.3380  18
   1  10 -12 10.9938 32.3995  13
   1  10 -11 314.152 55.3197  21
   1 -10 -11 435.058 64.6842  20
   1 -10 -11 280.445 51.8963  18
   1 -10 -11 310.675 55.4092   5
   1  10 -11 380.823 58.1653  15
   1 -10 -10 37.0862 28.4202   5
   1 -10 -10 117.235 41.8159  20
   1 -10 -10-1.05838 30.8948  19
   1  10 -10 22.7833 23.3421  21
   1  10 -10 65.2185 37.1504  15
   1 -10  -9 55.4856 27.6566  19
   1  10  -9 50.8971 28.1348  21
   1  10  -9 59.3213 31.8119  18
   1  10  -9 34.1195 26.1251  15
   1 -10  -9 13.7231 22.8311   5
   1  10  -8 4219.08 181.966  18
   1 -10  -8 4212.63 184.621   5
   1 -10  -8 4330.14 358.862  30
  -1 -10   8 4660.73 387.463  31
   1  10  -8 4130.34 188.158  21
   1 -10  -7 3859.67 300.963  28
   1 -10  -7 3944.65 329.073  32
  -1 -10   7 4307.81 358.202  31
   1 -10  -7 4346.95 341.129  30
   1 -10  -6 1734.79 193.420  28
  -1 -10   6 1646.46 207.699  31
   1 -10  -6 1816.08 210.643  32
   1 -10  -6 1989.46 208.834  30
   1 -10  -5 4492.46 291.407   2
  -1 -10   5 4521.52 327.263  31
   1  10  -5 4683.62 267.954  33
  -1 -10   5 4850.78 337.617   3
   1 -10  -5 4696.39 300.403  30
   1 -10  -5 4463.92 315.425  32
  -1 -10   4 5300.20 339.099   3
   1 -10  -4 5240.41 325.006  32
   1 -10  -4 5069.57 298.006   2
   1 -10  -4 5448.67 291.845  30
  -1 -10   4 5111.47 330.320  31
  -1 -10   3 11923.7 491.554   3
   1 -10  -3 9556.64 410.121   2
   1 -10  -3 11776.1 358.480   1
   1 -10  -3 8534.03 344.262  30
   1 -10  -2 3625.86 199.612   1
   1 -10  -2 3708.18 235.795   2
   1 -10  -2 3310.61 171.016  30
  -1 -10   2 3308.73 244.183   3
   1 -10  -2 3518.23 166.340  31
   1 -10  -1 1068.21 128.284   2
   1 -10  -1 821.224 112.055  35
  -1  10   1 912.814 118.934  36
   1 -10  -1 1013.53 100.387  31
   1  10  -1 834.181 107.160  36
  -1 -10   1 945.444 124.670   3
  -1 -10   1 898.328 113.422   2
  -1  10   0 13364.5 491.620  36
   1  10   0 15843.6 503.382  36
   1 -10   0 16558.5 537.187  35
   1 -10   0 14594.8 481.379  31
  -1 -10   0 16549.1 528.968   2
  -1 -10   0 17536.6 557.211   3
   1 -10   1 1679.27 155.481  31
  -1  10  -1 1833.32 160.358  36
   1 -10   1 1938.15 174.925  35
  -1 -10  -1 1872.79 162.371   3
  -1 -10  -1 1945.97 174.744   2
  -1 -10  -2 35.5936 38.8731   2
  -1 -10  -2-4.70646 42.1623  29
   1 -10   2 56.7189 45.1432  31
  -1  10  -2 27.3812 36.0722  36
   1 -10   2 101.828 63.4639  35
  -1 -10  -2 133.831 40.3564  31
  -1 -10  -3 10212.1 447.423   2
  -1 -10  -3 11731.8 387.729  35
   1 -10   3 11056.4 476.816  31
  -1 -10  -3 11409.0 436.828  29
   1 -10   4 3033.24 241.568  35
  -1 -10  -4 2723.50 221.741  29
  -1 -10  -4 2634.06 224.539   2
   1 -10   4 3035.17 252.417  31
   1 -10   5 8037.65 441.101  31
   1 -10   5 7845.30 414.620  35
  -1 -10  -5 7771.15 413.554   2
  -1 -10  -6 1016.21 152.749   2
   1 -10   6 1102.36 153.209  35
  -1 -10  -6 901.187 144.125  32
   1 -10   6 1002.63 162.888  31
  -1 -10  -7 142.873 80.2353  32
  -1 -10  -7 37.3578 31.1597   2
   1 -10   7 41.5945 51.0619  31
  -1 -10  -7 103.161 67.6839  30
  -1  10  -8 322.042 49.3058  18
   1 -10   8 332.749 110.295  31
  -1 -10  -8 225.950 83.2992  32
  -1 -10  -8 210.007 89.0144  30
  -1 -10  -9 5587.20 221.124   5
  -1  10  -9 5709.91 224.983  17
  -1  10  -9 5486.01 220.064  18
  -1 -10 -10 7947.33 279.430  20
  -1  10 -10 8099.22 280.488  17
  -1  10 -10 7918.48 276.828  18
  -1 -10 -11 775.255 81.4231  20
  -1  10 -11 782.915 77.7785  17
  -1 -10 -11 664.537 75.6717  18
  -1  10 -11 655.340 79.0587  21
  -1 -10 -12 92.4863 40.4303  20
  -1 -10 -12 41.4122 29.8543  18
  -1  10 -12 73.1854 28.0200  21
  -1  10 -12 28.4477 29.7451  13
  -1 -10 -13-17.0570 24.3856  20
  -1  10 -13-32.7354 26.2492  21
  -1 -10 -13 8.02981 22.3181  18
  -1  10 -13 14.4375 24.5949  13
  -1  10 -14 115.409 28.6721  13
  -1 -10 -14 119.014 26.1781  18
  -1 -10 -14 119.117 29.2566  20
   1 -11 -14 58.7020 22.7364  20
   1  11 -14 25.5042 20.0487  13
   1  11 -13 274.938 45.2860  13
   1 -11 -13 336.763 43.2753  18
   1 -11 -13 251.102 34.5001  14
   1  11 -13 304.462 42.2589  15
   1 -11 -13 293.494 44.8215  20
   1 -11 -12 109.737 37.2403  20
   1  11 -12 116.042 39.3672  13
   1 -11 -12 111.463 24.6964  18
   1  11 -12 177.782 41.1317  21
   1 -11 -12 169.593 34.1580  14
   1  11 -12 206.230 38.5243  15
   1  11 -11 6446.18 248.451  13
   1 -11 -11 7090.75 247.978  18
   1 -11 -11 6617.52 247.339   5
   1  11 -11 7309.48 249.390  15
   1 -11 -11 6478.12 245.410  20
   1  11 -11 6548.31 252.067  21
   1 -11 -10-16.4179 27.6987  19
   1  11 -10-3.39474 21.2331  15
   1  11 -10 14.7831 25.7575  21
   1 -11 -10 24.8608 29.6723   5
   1 -11 -10-28.6227 29.5269  20
   1 -11  -9 1892.34 125.974   5
   1 -11  -9 1680.76 115.723  19
   1  11  -9 2068.07 125.471  15
   1  11  -9 1976.20 131.745  21
   1  11  -8 5064.69 197.154  15
   1 -11  -8 5028.02 200.803  19
   1  11  -8 4626.32 205.164  21
   1 -11  -8 4589.55 197.963   5
   1 -11  -7 11349.1 586.003  32
   1 -11  -7 11685.3 556.177  28
   1 -11  -7 12102.9 590.377  30
  -1 -11   7 12232.2 633.895  31
   1 -11  -6 1210.89 167.022  30
   1 -11  -6 1220.11 173.419  32
  -1 -11   6 1167.42 177.744  31
   1 -11  -6 1401.40 179.534  28
   1 -11  -5 11316.3 532.691  32
   1  11  -5 12160.2 465.468  33
   1 -11  -5 12339.3 508.465  30
  -1 -11   5 10883.5 542.841  31
   1 -11  -5 11293.1 500.850   2
  -1 -11   4 9257.41 478.182   3
   1 -11  -4 9425.32 460.697  32
  -1 -11   4 9851.52 484.461  31
   1 -11  -4 9390.83 434.885   2
   1 -11  -4 10346.7 419.022  30
   1 -11  -3 344.891 66.0391  30
   1 -11  -3 382.211 84.9545   2
   1 -11  -2 11998.6 368.642  30
  -1 -11   2 11754.9 509.564   3
   1  11  -2 11985.9 447.023  36
  -1  11   2 12907.4 496.121  36
   1 -11  -2 10880.5 455.803   2
  -1 -11   1 428.010 97.9099   3
   1  11  -1 610.683 95.8082  36
   1 -11  -1 690.989 87.4587  31
  -1  11   1 580.563 102.315  36
   1 -11  -1 603.385 99.3768  35
  -1 -11   1 516.787 93.0746   2
   1 -11   0 1975.08 178.914  35
   1  11   0 1857.84 165.393  36
   1 -11   0 1963.55 161.700  31
  -1 -11   0 2205.00 187.238   2
  -1  11   0 1810.19 172.022  36
  -1 -11  -1 38748.2 947.595   3
   1  11   1 33007.5 898.499  36
   1 -11   1 32361.1 923.625  35
  -1 -11  -1 39717.8 971.712   2
   1 -11   1 38077.4 939.568  31
  -1  11  -1 39503.5 956.192  36
  -1 -11  -2 624.400 113.238   2
  -1 -11  -2 1237.07 130.629  35
   1 -11   2 1584.31 171.530  35
   1 -11   2 1543.34 166.260  31
  -1 -11  -2 1280.24 130.345  29
  -1  11  -2 815.493 117.273  36
  -1 -11  -3 68211.2 1442.42  29
   1 -11   3 70235.1 1540.21  35
  -1 -11  -3 69508.5 1367.23  35
   1 -11   3 65724.9 1521.91  31
   1 -11   4 185.505 71.8114  31
  -1 -11  -4 82.8700 58.1916   2
   1 -11   4 68.7375 55.4250  35
  -1 -11  -4 81.7701 44.8457  29
  -1 -11  -5 222.805 71.6582   2
   1 -11   5 307.573 90.4550  35
   1 -11   5 244.143 81.0338  31
  -1 -11  -6 46.1614 46.8839  32
  -1 -11  -6-28.8140 50.0173   2
   1 -11   6-7.48169 58.1129  31
  -1 -11  -7 11411.7 573.200   2
  -1 -11  -7 11635.5 582.430  30
  -1 -11  -7 11509.3 575.251  32
   1 -11   7 10945.8 598.774  31
  -1  11  -8 4091.29 185.433  17
  -1  11  -8 4387.85 188.793  18
  -1 -11  -8 4406.83 187.823   5
  -1 -11  -8 4229.27 185.059   6
  -1 -11  -9 117.855 39.1572   5
  -1  11  -9 115.694 36.1290  17
  -1  11  -9 92.7504 30.9660  18
  -1 -11 -10 418.487 62.8293  20
  -1  11 -10 473.989 64.5217  17
  -1  11 -11 49.9479 29.8525  13
  -1  11 -11 68.9456 32.2078  17
  -1 -11 -11 103.737 44.0040  20
  -1 -11 -11 70.3831 35.8542  18
  -1  11 -11 67.0098 29.0915  21
  -1  11 -12 77.1723 33.4622  13
  -1 -11 -12 125.762 41.1758  18
  -1  11 -12 51.0403 36.8327  21
  -1 -11 -12 39.3116 34.3636  20
  -1 -11 -13 790.356 70.8820  20
  -1  11 -13 770.528 72.1035  13
  -1  11 -13 845.040 72.0241  21
  -1 -11 -13 739.630 67.3494  18
  -1  11 -14 123.861 28.0247  13
  -1 -11 -14 128.600 25.3435  18
  -1 -11 -14 75.2510 21.6254  20
   1  12 -14 23.2712 15.8357  13
   1 -12 -14 14.7362 14.9307  20
   1  12 -13 1254.41 77.4682  15
   1  12 -13 1379.67 92.5053  13
   1 -12 -13 1167.07 82.0026  20
   1  12 -13 1343.94 83.4334  21
   1 -12 -12 2507.85 134.831  20
   1  12 -12 2679.41 139.506  21
   1 -12 -12 2525.37 128.304  18
   1  12 -12 2542.77 127.976  15
   1 -12 -12 2559.79 120.259  14
   1  12 -12 2507.40 138.324  13
   1 -12 -11 107.756 41.5696   5
   1 -12 -11 136.764 36.7953  18
   1 -12 -11 56.3721 33.6217  20
   1  12 -11 79.5898 31.4502  15
   1  12 -11 89.2473 37.6092  13
   1  12 -11 90.6196 34.6033  21
   1 -12 -10 60.0433 34.2233  20
   1  12 -10 55.8301 31.4182  21
   1 -12 -10 74.2688 33.6031   5
   1 -12 -10 19.0826 24.1299  19
   1  12 -10 39.2568 27.2377  15
   1  12 -10 10.6279 35.6937  13
   1  12  -9 368.252 60.8488  21
   1  12  -9 382.059 56.5360  13
   1 -12  -9 287.276 50.3870   5
   1 -12  -9 350.894 53.1082  19
   1  12  -9 399.003 56.8681  15
   1  12  -8 1953.67 131.343  21
   1  12  -8 2131.52 123.316  15
   1 -12  -8 2212.16 129.942  19
   1  12  -8 2118.20 130.862   8
   1 -12  -8 2128.05 130.188   5
   1 -12  -7 11239.1 569.160  30
   1 -12  -7 10378.9 567.757  32
  -1 -12   7 10731.8 601.958  31
   1 -12  -7 10475.2 534.758  28
   1 -12  -6 2031.68 216.749  30
  -1 -12   6 2307.28 244.983  35
   1 -12  -6 1910.37 225.770  32
   1 -12  -6 2172.59 229.594  28
  -1 -12   6 2507.20 268.794  31
   1 -12  -5 780.109 140.218  32
   1 -12  -5 756.316 122.533  30
  -1 -12   5 797.820 147.564  31
   1 -12  -5 838.997 133.275   2
  -1 -12   4 1050.71 162.392  31
   1 -12  -4 1168.09 154.065   2
   1 -12  -4 1257.69 142.009  30
   1 -12  -4 1176.15 164.655  32
  -1 -12   4 1213.61 175.566   3
   1 -12  -3 1070.10 142.897   2
  -1 -12   3 911.438 142.731  31
  -1 -12   2 16401.6 611.984  31
   1 -12  -2 17346.5 610.835   2
   1 -12  -2 19070.7 556.891   1
   1  12  -2 15871.7 564.196  36
  -1 -12   2 18169.1 667.217   3
  -1  12   2 18681.7 637.315  36
   1 -12  -1 8396.65 339.120  31
  -1  12   1 8826.79 408.447  36
  -1 -12   1 9147.50 400.172   2
  -1 -12   1 9198.75 437.706   3
   1  12   0 995.052 128.569  36
   1 -12   0 1003.75 121.700  31
  -1  12   0 1103.95 140.594  36
  -1 -12   0 1141.79 130.988  31
   1 -12   0 1072.55 139.575  35
  -1 -12   0 1251.42 156.424   3
  -1 -12   0 1129.13 139.490   2
  -1 -12  -1 5175.04 264.452  31
   1 -12   1 5055.67 296.999  31
   1  12   1 5247.70 303.789  36
  -1 -12  -1 5289.06 312.327   2
  -1  12  -1 4423.03 282.188  36
   1 -12   1 5236.31 319.220  35
   1 -12   2 22320.1 739.433  35
  -1 -12  -2 20439.3 708.086   2
  -1  12  -2 19785.7 677.753  36
   1 -12   2 21872.8 725.717  31
  -1 -12  -2 25093.0 679.858  29
  -1 -12  -2 25916.2 705.864  35
   1 -12   3 1594.32 186.319  31
  -1 -12  -3 1198.54 160.304   2
   1 -12   3 1557.94 182.178  35
  -1 -12  -3 1709.15 168.313  29
   1 -12   4 505.728 113.643  35
  -1 -12  -4 363.115 91.6651   2
  -1 -12  -4 372.598 87.7346  29
   1 -12   4 496.066 111.592  31
   1 -12   5 3436.69 301.160  31
  -1 -12  -5 3179.05 279.434   2
   1 -12   5 3516.18 294.551  35
   1 -12   6 4.31069 42.5627  35
   1 -12   6 24.8118 58.5781  31
  -1 -12  -6 23.5994 48.4825   2
  -1 -12  -6-24.1546 44.5765  30
  -1 -12  -6 78.5910 72.0206  32
  -1 -12  -7 1844.13 228.011  30
   1 -12   7 1592.13 223.159  31
  -1 -12  -7 1980.08 238.922  32
  -1 -12  -7 1657.22 218.226   2
  -1 -12  -8 961.477 84.3383   5
  -1  12  -8 959.761 87.7383  17
  -1  12  -8 1141.22 97.2000   8
  -1 -12  -8 906.001 84.8941   6
  -1 -12  -9 1952.55 126.738   5
  -1  12  -9 1903.49 127.000  17
  -1 -12  -9 1909.14 122.693   6
  -1  12 -10 66.0634 34.9987  21
  -1 -12 -10 100.465 33.8486  20
  -1  12 -10 96.3561 37.9356  13
  -1  12 -10 98.1662 30.5610  17
  -1  12 -11 691.325 73.8252  17
  -1 -12 -11 664.191 74.4345  20
  -1  12 -11 682.000 80.2988  21
  -1 -12 -11 729.693 78.0787  18
  -1  12 -11 665.329 74.9850  13
  -1 -12 -12 5581.42 212.346  20
  -1  12 -12 6167.27 228.081  21
  -1  12 -12 5825.63 221.839  13
  -1 -12 -12 6070.14 218.753  18
  -1 -12 -13 1930.37 106.105  20
  -1  12 -13 1921.18 108.430  13
  -1 -12 -13 2032.37 106.012  18
  -1  12 -13 1966.12 107.415  21
  -1 -12 -14 66.6716 21.6871  20
  -1  12 -14 54.0602 21.1773  13
   1 -13 -13 117.016 29.3396  20
   1  13 -13 65.2418 27.4582  13
   1  13 -13 64.7231 24.8609  21
   1  13 -12-9.37799 29.3995  13
   1 -13 -12 32.8634 30.4263  20
   1  13 -12-16.9992 23.0193  21
   1 -13 -12-72.0419 29.5898  14
   1 -13 -12-1.07336 21.7363  18
   1  13 -11-38.1209 36.5073  13
   1  13 -11 16.8318 26.7836  21
   1 -13 -11 43.6554 28.4513  18
   1 -13 -11 20.1582 29.1591  20
   1  13 -11 18.0416 23.1787  15
   1  13 -10 2282.37 145.780  21
   1 -13 -10 2538.43 144.998   5
   1  13 -10 2400.93 145.950  13
   1  13 -10 2751.00 143.519  15
   1 -13 -10 2671.35 145.944  19
   1 -13 -10 2418.59 144.195  20
   1  13  -9 3772.70 191.223  21
   1  13  -9 4259.11 183.316  15
   1  13  -9 3785.23 184.447  13
   1 -13  -9 4012.78 182.768  19
   1 -13  -9 3964.22 186.053   5
   1  13  -8 1431.28 109.564  13
   1 -13  -8 1505.73 107.945  19
   1  13  -8 1387.42 111.244  21
   1  13  -8 1472.22 111.568   8
   1  13  -7 3615.40 176.350  21
   1 -13  -7 3328.73 164.785  10
   1  13  -7 3448.57 171.660   8
   1  13  -7 3554.73 168.375  13
   1 -13  -7 3632.55 166.270  19
   1 -13  -7 3741.36 314.888  28
  -1 -13   6 25.6100 51.7873  35
   1 -13  -6 42.6819 49.1188  32
   1 -13  -6-41.5826 53.9387  28
  -1 -13   6 8.73942 60.6974  31
   1 -13  -5 3211.48 290.396  32
  -1 -13   5 3130.35 298.622  31
   1 -13  -5 3476.24 284.207   2
  -1 -13   4 1487.85 193.796  31
   1 -13  -4 1653.37 204.329  32
   1 -13  -4 2006.65 206.655   2
   1 -13  -3 2969.54 251.626   2
  -1  13   3 3635.49 284.023  36
  -1 -13   3 3406.41 282.650  31
   1  13  -2 905.228 126.970  36
   1 -13  -2 746.790 124.034   2
   1 -13  -2 849.896 109.588   1
  -1 -13   2 1179.40 164.132   3
  -1 -13   2 924.917 143.618  31
  -1  13   2 1194.75 160.051  36
  -1 -13   1 22327.6 712.892  31
   1  13  -1 20559.7 675.995  36
   1 -13  -1 23074.2 644.420  31
  -1  13   1 21317.8 718.472  36
  -1 -13   1 22594.8 763.827   3
   1 -13  -1 20599.1 694.886  35
   1 -13   0 12826.4 536.378  35
   1  13   0 13004.9 523.490  36
  -1 -13   0 14143.1 521.347  31
  -1 -13   0 15226.0 564.069   2
  -1  13   0 12769.3 533.689  36
   1 -13   0 16238.5 545.632  31
  -1 -13  -1 1519.64 166.676  35
   1 -13   1 1516.91 167.135  31
  -1 -13  -1 1789.41 187.687   2
   1  13   1 1893.79 190.095  36
  -1  13  -1 1686.43 180.026  36
   1 -13   1 1768.38 192.716  35
  -1 -13  -1 1764.76 153.580  29
  -1 -13  -1 1745.15 155.794  31
   1 -13   2 53475.1 1278.16  31
  -1 -13  -2 51968.0 1151.44  29
  -1 -13  -2 50014.1 1257.10   2
  -1 -13  -2 48031.6 1164.15  35
   1  13   2 50587.3 1240.86  36
  -1  13  -2 49377.0 1231.28  36
   1 -13   3-25.5287 60.2958  31
  -1 -13  -3 30.8603 38.9980   2
  -1 -13  -3 19.3117 34.1524  29
  -1 -13  -4 19461.5 739.370   2
   1 -13   4 20965.8 773.390  35
   1 -13   4 20557.9 776.484  31
  -1 -13  -5 171.759 74.2707   2
   1 -13   5 110.119 55.3368  31
   1 -13   5 196.234 80.9899  35
  -1 -13  -6 10322.6 522.246  30
  -1 -13  -6 9431.85 527.508   2
   1 -13   6 10794.8 591.499  31
  -1 -13  -6 10333.5 556.785  32
   1 -13   6 10501.2 557.715  35
  -1 -13  -7 297.203 48.4398   6
  -1  13  -7 279.130 46.6170  17
  -1 -13  -7 162.711 60.8634  30
  -1  13  -7 278.364 46.4948  13
  -1 -13  -7 334.831 99.4721   2
  -1  13  -7 391.172 56.5039   8
  -1 -13  -8 22.9923 24.5418   5
  -1  13  -8 41.2554 21.9777  17
  -1  13  -8 28.3466 27.0735  13
  -1  13  -8 62.0968 32.1050   8
  -1 -13  -8 46.1748 27.4236   6
  -1  13  -9 1797.16 129.173  21
  -1  13  -9 2130.47 133.875  13
  -1  13  -9 2065.76 132.850   8
  -1  13  -9 1949.55 129.438  17
  -1 -13  -9 1945.98 125.562   6
  -1  13 -10 341.934 57.3281  13
  -1 -13 -10 351.222 59.9911  20
  -1  13 -10 297.748 53.9206  17
  -1  13 -10 307.651 56.7438  21
  -1 -13 -11 92.7464 31.9416  20
  -1 -13 -11 114.238 35.2335  18
  -1  13 -11 68.4525 35.5629  21
  -1  13 -11 87.8410 40.3596  13
  -1 -13 -12 1324.94 98.3062  20
  -1 -13 -12 1488.83 101.021  18
  -1  13 -12 1395.93 101.857  13
  -1  13 -12 1520.06 106.130  21
  -1  13 -13 991.012 73.5164  21
  -1  13 -13 1069.05 78.7352  13
  -1 -13 -13 1070.43 73.1133  18
  -1 -13 -13 1100.52 76.7476  20
   1 -14 -13 859.128 64.1392  20
   1  14 -13 961.088 66.3183  21
   1  14 -13 964.357 72.3924  13
   1 -14 -12 1263.92 83.0119  18
   1 -14 -12 1135.37 85.2863  20
   1 -14 -12 1143.78 72.7826  14
   1  14 -12 1212.29 91.3832  13
   1  14 -12 1216.52 89.7465  21
   1  14 -11 12.4492 29.0187  21
   1 -14 -11-46.9045 38.1267  20
   1  14 -11-8.15450 34.8302  13
   1 -14 -11-6.47226 23.2438  18
   1 -14 -10 2078.70 127.961   5
   1 -14 -10 1820.91 123.704  20
   1 -14 -10 1963.01 122.489  19
   1  14 -10 1748.62 123.693  13
   1  14 -10 1633.10 123.326  21
   1  14  -9 5727.80 236.543  13
   1 -14  -9 6682.81 241.807  19
   1 -14  -9 6375.95 240.847   5
   1  14  -9 5854.44 246.033  21
   1  14  -9 6709.76 250.957   8
   1 -14  -8 1501.09 108.737   5
   1  14  -8 1269.85 109.186  21
   1 -14  -8 1426.64 107.313  19
   1  14  -8 1688.76 120.936   8
   1  14  -8 1455.95 109.252  13
   1 -14  -7 157.940 36.5391  19
   1  14  -7 103.531 35.3398  21
   1 -14  -7 113.913 33.2086  10
   1  14  -7 113.457 27.8831  13
   1 -14  -7 105.471 33.2627   5
   1  14  -7 86.6219 36.1559   8
   1 -14  -6 510.801 118.964  28
  -1 -14   6 361.176 102.233  35
  -1 -14   6 392.692 115.889  31
   1 -14  -6 414.046 110.225  32
   1 -14  -5 1878.09 221.096   2
  -1 -14   5 1489.61 215.056  31
  -1 -14   5 1770.21 225.088  35
   1 -14  -5 1682.76 214.590  32
  -1 -14   4 14802.2 659.052  31
   1 -14  -4 14998.4 649.185  32
   1 -14  -3 2302.07 227.780   2
  -1 -14   3 3069.59 276.278  31
  -1  14   3 3040.04 269.267  36
  -1  14   2 7938.19 433.759  36
  -1 -14   2 8155.05 439.602  31
   1  14  -1 22847.0 758.685  36
  -1 -14   1 27444.1 824.618  31
  -1  14   1 27038.6 844.512  36
   1 -14  -1 24561.9 795.582  35
   1  14   0 17833.9 663.233  36
   1 -14   0 18667.7 694.237  35
  -1 -14   0 22902.9 744.033   2
  -1 -14   0 21936.0 685.567  31
  -1  14   0 19033.8 692.933  36
   1 -14   0 21943.2 684.156  31
   1 -14   1 3010.38 247.862  31
   1  14   1 3533.06 269.662  36
  -1 -14  -1 3518.23 274.942   2
  -1  14  -1 2887.12 247.773  36
  -1 -14  -1 3271.98 250.937  35
   1 -14   1 2800.36 252.387  35
   1 -14   2 5236.74 342.179  31
  -1  14  -2 4328.43 307.014  36
   1  14   2 4549.71 317.684  36
  -1 -14  -2 4948.24 304.988  35
   1 -14   2 5425.23 359.800  35
  -1 -14  -2 3608.85 289.802   2
  -1 -14  -3 3734.55 263.611  29
   1 -14   3 3682.08 306.154  31
   1 -14   3 3605.84 305.313  35
  -1 -14  -3 3096.46 273.481   2
   1 -14   4 7432.21 453.878  31
  -1 -14  -4 6789.21 424.051   2
   1 -14   4 6751.00 431.769  35
   1 -14   5 12087.5 623.754  31
   1 -14   5 13900.5 648.918  35
  -1 -14  -5 13588.5 631.588   2
  -1 -14  -6 5457.04 404.427   2
   1 -14   6 5275.54 399.288  35
  -1 -14  -6 5560.96 408.431  32
  -1 -14  -6 5469.14 375.951  30
   1 -14   6 4721.28 396.054  31
  -1  14  -7 6470.47 240.302  17
  -1 -14  -7 5695.91 230.169  10
  -1  14  -7 6137.67 243.456   8
  -1  14  -7 6368.88 236.041  13
  -1  14  -8 2564.40 147.739  13
  -1  14  -8 2425.55 147.501   8
  -1 -14  -8 2451.57 143.495   6
  -1  14  -8 2499.55 147.361  17
  -1  14  -8 2424.02 149.800  21
  -1 -14  -9-13.5789 27.1881   6
  -1  14  -9-23.8883 28.8232   8
  -1  14  -9-8.15613 25.8254  13
  -1  14  -9 29.4034 30.5358  21
  -1  14  -9-29.8860 28.2307  17
  -1  14 -10 3975.27 194.669  21
  -1 -14 -10 3998.51 188.606  20
  -1  14 -10 4164.18 193.262  13
  -1 -14 -11 476.855 65.0203  18
  -1  14 -11 603.543 73.8318  13
  -1  14 -11 495.171 68.8770  21
  -1 -14 -11 529.660 66.8230  20
  -1 -14 -12 400.986 54.9852  20
  -1 -14 -12 441.599 57.4276  18
  -1  14 -12 404.168 57.3467  13
  -1  14 -12 374.218 54.2361  21
  -1  14 -13 2442.50 113.157  21
  -1 -14 -13 2537.22 112.319  20
  -1 -14 -13 2359.95 106.815  18
  -1  14 -13 2588.12 117.575  13
   1 -15 -13 841.800 59.7721  20
   1  15 -13 896.208 64.8544  13
   1  15 -13 817.387 57.7571  21
   1  15 -12 51.1676 25.0207  21
   1 -15 -12 43.4161 29.5786  20
   1 -15 -12 51.3224 23.0120  18
   1  15 -12 96.7850 35.1595  13
   1  15 -11 2805.01 150.845  21
   1  15 -11 2721.84 147.997  13
   1 -15 -11 2991.58 141.611  18
   1 -15 -11 2718.38 143.197  20
   1 -15 -10 2871.93 153.695  20
   1 -15 -10 2951.17 148.733  19
   1 -15 -10 2870.78 149.713   5
   1  15 -10 2611.75 154.237  21
   1  15 -10 2663.09 152.025  13
   1  15  -9 1640.79 123.300  21
   1 -15  -9 1846.41 121.512   5
   1  15  -9 1576.35 117.446   8
   1 -15  -9 1590.47 112.052  19
   1  15  -9 1580.23 118.748  13
   1  15  -8 3304.51 171.136  13
   1 -15  -8 3532.70 170.705  19
   1  15  -8 3371.81 175.235   8
   1 -15  -8 3694.87 173.712   5
   1  15  -8 3408.21 179.659  21
   1 -15  -7 146.945 38.3416  10
   1 -15  -7 155.743 33.5980   5
   1  15  -7 129.771 36.1734  13
   1 -15  -7 187.184 38.4940  19
   1  15  -7 224.693 48.5366  21
   1  15  -7 150.531 40.7172   8
   1 -15  -6 1575.79 212.090  28
   1  15  -6 1944.29 127.571   8
   1 -15  -6 1953.46 123.621  10
  -1 -15   6 1444.82 218.097  35
   1  15  -6 1708.21 114.538  13
   1  15  -6 1923.20 126.151  21
   1 -15  -5 1094.97 183.002  32
   1 -15  -5 1101.57 168.608   2
  -1 -15   5 870.200 167.683  35
  -1 -15   5 1024.27 173.369  31
   1 -15  -4 8946.47 489.152   2
   1 -15  -4 8605.01 493.728  32
  -1 -15   4 8836.59 512.749  35
  -1  15   4 9041.38 505.453  36
  -1 -15   4 7158.06 468.126  31
  -1 -15   3 89.4957 62.4082  31
  -1  15   3 58.2502 51.2040  36
  -1 -15   2 1276.19 176.238  31
  -1  15   2 1094.07 161.426  36
   1  15  -2 1064.26 152.348  36
   1  15  -1 15020.3 589.861  36
  -1 -15   1 14235.3 581.922  31
   1 -15  -1 14697.8 598.627  35
  -1 -15   1 12584.4 576.532  35
  -1  15   1 12309.0 567.613  36
   1 -15   0 873.682 128.853  31
  -1  15   0 686.339 126.138  36
   1  15   0 616.608 118.530  36
   1 -15   0 1022.71 150.470  35
  -1 -15   0 809.862 132.458  35
  -1 -15   0 540.360 122.141   2
  -1 -15   0 844.704 128.454  31
  -1  15  -1 2661.12 242.534  36
  -1 -15  -1 2289.98 231.271   2
   1 -15   1 2401.55 241.119  35
   1  15   1 2260.14 223.985  36
   1 -15   1 2084.35 212.421  31
  -1 -15  -1 2369.38 224.120  35
  -1 -15  -2 1349.08 184.019   2
   1  15   2 2077.86 221.245  36
   1 -15   2 1691.82 212.862  35
  -1 -15  -2 1857.44 191.671  35
   1 -15   2 2159.51 224.477  31
   1 -15   3 24780.7 861.539  31
   1 -15   3 24748.1 872.055  35
   1 -15   4 24.9890 61.4186  31
  -1 -15  -4 96.3327 63.1113   2
   1 -15   4 86.0200 67.6781  35
   1 -15   5 3956.24 355.661  31
  -1 -15  -5 3864.64 332.469   2
   1 -15   5 3823.19 340.578  35
  -1  15  -6 33.8387 30.4944   8
  -1  15  -6 45.3816 27.8741  21
  -1  15  -6 70.3771 29.6270  13
   1 -15   6 170.770 76.2203  35
  -1 -15  -6 78.1473 30.8271  10
  -1 -15  -6 53.3261 40.5018   2
  -1  15  -6 51.2702 25.7042  17
  -1 -15  -7 2911.79 158.168  10
  -1  15  -7 2941.79 156.028  13
  -1  15  -7 2749.54 156.472  21
  -1  15  -7 2613.91 150.076  17
  -1  15  -7 2704.37 158.644   8
  -1  15  -8 17919.1 479.418   8
  -1  15  -8 16846.0 461.846  17
  -1  15  -8 18407.0 482.843  21
  -1 -15  -8 17952.4 467.339   6
  -1  15  -8 18555.6 471.979  13
  -1  15  -9 1038.88 96.0677   8
  -1  15  -9 1088.32 102.841  21
  -1 -15  -9 1064.60 93.6560   6
  -1  15  -9 1022.94 96.3891  13
  -1 -15 -10 3805.08 179.766  20
  -1  15 -10 3461.45 179.586  21
  -1  15 -10 3674.50 180.356  13
  -1 -15 -10 3859.21 172.651   6
  -1  15 -11 304.719 55.9088  21
  -1 -15 -11 254.356 51.2445  20
  -1  15 -11 296.779 54.0203  13
  -1 -15 -11 305.020 50.8384  18
  -1 -15 -12 2119.72 113.505  20
  -1 -15 -12 2181.93 113.900  18
  -1  15 -12 2056.90 117.351  21
  -1  15 -12 2131.41 117.641  13
  -1 -15 -13 605.268 51.8391  20
  -1  15 -13 589.244 53.0474  21
  -1  15 -13 669.484 55.8443  13
  -1 -15 -13 556.146 47.6975  18
   1 -16 -13 1533.63 75.5616  20
   1  16 -12 59.7795 29.7750  13
   1 -16 -12 74.6744 27.0909  20
   1  16 -12 54.1374 27.2565  21
   1 -16 -11 2988.52 146.314  20
   1 -16 -11 3102.59 140.766  18
   1  16 -11 3032.21 152.345  13
   1  16 -11 2905.31 150.484  21
   1 -16 -10 12231.2 338.933   5
   1  16 -10 11711.4 355.437  21
   1 -16 -10 12798.2 340.960  19
   1  16 -10 11095.4 346.084  13
   1 -16 -10 11725.4 344.899  20
   1  16  -9 4636.06 205.614   8
   1  16  -9 4150.70 201.984  21
   1  16  -9 4308.48 199.932  13
   1 -16  -9 4601.24 195.496  19
   1 -16  -9 4763.27 197.378   5
   1 -16  -8 3027.88 157.969  19
   1  16  -8 3178.55 172.507   8
   1  16  -8 3159.18 167.958  13
   1  16  -8 3219.38 174.853  21
   1 -16  -8 3338.45 163.671   5
   1  16  -7 272.244 53.7431  21
   1 -16  -7 365.242 54.7783  19
   1 -16  -7 332.288 54.8032  10
   1  16  -7 327.051 56.1877  13
   1  16  -7 323.057 57.0050   8
   1  16  -6 6376.18 248.315  21
   1  16  -6 6851.00 259.117   8
   1 -16  -6 6538.75 246.937  10
   1  16  -6 6640.87 246.541  13
   1  16  -5-6.08399 20.3036   8
  -1 -16   5 27.5426 63.1207  35
   1  16  -5 8.52541 17.8111  13
  -1 -16   5 21.3814 74.4233  31
   1 -16  -5-6.65108 63.0519  32
  -1  16   5 20.4153 60.1787  36
   1 -16  -4-5.27639 73.0021  32
  -1  16   4-27.2709 46.6200  36
  -1 -16   4-95.2521 82.0337  31
  -1 -16   4 14.4339 60.7960  35
  -1  16   3 1155.73 177.226  36
  -1 -16   3 986.289 167.322  31
  -1 -16   3 732.172 151.519  35
  -1 -16   2 1900.52 226.647  35
  -1 -16   2 1168.35 174.673  31
  -1  16   2 1390.92 189.992  36
   1  16  -2 1535.57 187.989  36
  -1 -16   1 1698.94 209.121  35
  -1 -16   1 1609.50 191.545  31
   1 -16  -1 1330.45 180.209  35
  -1  16   1 1631.89 201.972  36
   1  16  -1 1642.99 192.437  36
  -1 -16   0 1.41415 43.8961  35
   1 -16   0 13.0708 38.0045  35
  -1  16   0 25.4582 47.0367  36
   1  16   0 40.9997 41.1313  36
  -1 -16  -1 5772.38 371.644  35
  -1 -16  -1 6938.54 422.863   2
   1 -16   1 6788.63 426.461  35
   1  16   1 5500.59 373.018  36
   1 -16   1 6420.36 389.837  31
  -1  16  -1 6029.17 388.349  36
  -1 -16  -2 2818.09 271.214   2
   1  16   2 2864.80 271.482  36
   1 -16   2 2553.91 257.964  31
  -1 -16  -3 3644.41 313.358   2
   1 -16   3 3361.59 312.080  35
   1 -16   3 2899.87 289.805  31
   1  16   3 2961.12 279.786  36
  -1 -16  -4 15149.5 689.785   2
   1 -16   4 15195.1 706.390  35
   1 -16   4 14322.4 688.074  31
   1  16   4 14362.7 672.294  36
  -1 -16  -5 6551.03 239.331  10
  -1 -16  -5 5640.40 421.116   2
   1 -16   5 5595.47 429.910  35
  -1  16  -5 5850.37 235.199   8
   1 -16   5 5645.07 440.529  31
  -1 -16  -6 49.4362 28.2163  10
  -1  16  -6-9.11200 26.1064  21
  -1  16  -6 52.5834 27.3079  13
  -1 -16  -7 919.026 89.7061  10
  -1  16  -7 797.512 83.8471  21
  -1  16  -7 701.744 77.8920  13
  -1  16  -7 784.800 85.8195   8
  -1  16  -8 3523.47 182.633  21
  -1  16  -8 3487.57 182.914   8
  -1  16  -8 3612.26 180.366  13
  -1 -16  -8 3456.92 175.147   6
  -1  16  -9 2831.02 157.637  13
  -1  16  -9 3059.14 168.935  21
  -1  16  -9 2994.59 163.800   8
  -1 -16  -9 2962.53 157.490   6
  -1 -16 -10 1230.21 100.978  20
  -1  16 -10 1331.97 100.161   8
  -1  16 -10 1250.40 107.338  21
  -1  16 -10 1315.82 104.845  13
  -1 -16 -10 1346.37 97.4148   6
  -1  16 -11 4602.07 194.091  21
  -1  16 -11 4474.65 188.051  13
  -1 -16 -11 4506.89 182.846  18
  -1 -16 -11 4575.23 184.867  20
  -1  16 -12 357.231 48.4454  13
  -1 -16 -12 271.002 45.0162  20
  -1  16 -12 304.769 48.1680  21
  -1 -16 -12 350.141 45.7770  18
  -1  16 -13 15.3237 15.8259  21
  -1 -16 -13-21.5067 19.8880  20
   1 -17 -12 2147.76 104.633  20
   1  17 -12 2221.59 110.589  21
   1  17 -12 2381.25 114.943  13
   1  17 -11 55.5085 28.3266  21
   1 -17 -11 54.4712 27.3180  20
   1  17 -11 89.1451 33.2354  13
   1 -17 -11 35.6448 19.2163  18
   1 -17 -10 2534.68 140.580  20
   1  17 -10 2605.78 146.177  13
   1  17 -10 2508.83 147.023  21
   1 -17 -10 2526.46 131.453  19
   1 -17 -10 2577.97 132.577   5
   1  17  -9 4027.61 192.695  13
   1 -17  -9 4557.69 189.054   5
   1  17  -9 4056.14 196.780  21
   1 -17  -9 4609.55 191.552  19
   1  17  -9 4437.81 199.883   8
   1 -17  -8 4011.70 182.409  19
   1  17  -8 3346.42 176.609  13
   1  17  -8 3690.79 187.931  21
   1 -17  -8 4107.01 185.697   6
   1  17  -8 3773.83 188.700   8
   1  17  -7 2190.01 137.806  13
   1  17  -7 2303.73 146.909   8
   1 -17  -7 2274.83 135.522  19
   1 -17  -7 2178.75 136.154  10
   1  17  -7 2229.77 143.638  21
   1  17  -6 1246.58 104.135  21
   1 -17  -6 1336.48 106.485  10
   1  17  -6 1246.26 105.435   8
   1  17  -6 1238.24 101.548  13
   1  17  -5 21139.7 511.085  21
   1  17  -5 19816.8 495.718  13
   1  17  -5 20673.7 518.782   8
   1 -17  -5 20171.1 504.199  10
  -1  17   4 64.9895 59.9294  36
   1 -17  -4-84.3911 62.4483  32
  -1 -17   4 76.5647 84.4863  35
  -1 -17   4 44.5152 59.8848  31
  -1 -17   3 5614.58 414.088  31
  -1 -17   3 5711.90 421.736  35
  -1  17   3 5322.76 398.480  36
   1 -17  -3 5906.82 421.360  32
  -1 -17   2 1471.69 204.002  35
  -1 -17   2 1393.22 200.060  31
  -1  17   2 1405.37 203.216  36
  -1 -17   1 4740.62 344.678  31
   1  17  -1 4175.57 328.187  36
  -1  17   1 4244.00 343.289  36
  -1 -17   1 4124.75 342.181  35
   1  17   0 312.087 95.7694  36
  -1  17   0 290.754 98.1219  36
   1 -17   0 124.615 63.9320  35
  -1 -17   0 335.237 102.496  35
   1  17   1 202.167 83.6963  36
  -1  17  -1 162.245 77.0085  36
  -1 -17  -1 116.177 63.6650  35
   1 -17   1 134.550 75.8634  35
   1 -17   1 230.162 85.8902  31
  -1 -17  -1 254.443 92.5940   2
  -1 -17  -2 2016.10 239.613   2
   1 -17   2 2332.17 267.904  35
   1  17   2 1875.74 224.583  36
   1 -17   2 2282.72 249.436  31
   1  17   3-18.7951 44.4999  36
  -1 -17  -3 17.7330 37.5610   2
   1 -17   3 64.0001 73.0894  35
   1 -17   3 62.9082 55.9280  31
   1 -17   4 1902.96 250.251  31
   1 -17   4 1944.84 251.228  35
  -1 -17  -4 1652.89 222.862   2
   1  17   4 1775.80 233.919  36
  -1 -17  -5 411.531 59.2314  10
  -1  17  -5 582.310 67.5786  21
  -1  17  -5 448.190 67.1350   8
  -1  17  -5 375.359 54.8998  13
  -1  17  -6 3184.92 168.642  21
  -1 -17  -6 3185.46 167.735  10
  -1  17  -6 3128.60 172.715   8
  -1  17  -6 3228.98 164.705  13
  -1  17  -7 1681.93 124.492   8
  -1 -17  -7 1695.51 120.917  10
  -1  17  -7 2120.85 134.239  13
  -1  17  -7 1617.08 119.137  21
  -1 -17  -7 1773.76 124.159   6
  -1  17  -8 1384.58 109.869  13
  -1  17  -8 1202.82 106.079   8
  -1  17  -8 1242.31 107.032  21
  -1 -17  -8 1364.01 108.084   6
  -1  17  -9 2099.69 134.525   8
  -1  17  -9 2209.57 141.625  21
  -1  17  -9 2141.37 135.542  13
  -1 -17  -9 2240.56 133.779   6
  -1  17 -10 386.751 64.4093  21
  -1 -17 -10 369.568 53.3011   6
  -1  17 -10 353.824 59.3101  13
  -1 -17 -10 335.012 54.7561  20
  -1  17 -10 412.658 56.7910   8
  -1 -17 -11 1484.56 99.2073  20
  -1  17 -11 1618.06 106.167  13
  -1 -17 -11 1516.72 97.5407  18
  -1  17 -11 1548.85 105.672  21
  -1 -17 -12 147.561 29.4825  20
  -1 -17 -12 138.342 28.6388  18
  -1  17 -12 200.329 37.3597  13
  -1  17 -12 147.598 35.4397  21
   1 -18 -12 376.051 41.1375  20
   1  18 -12 340.046 40.3540  21
   1 -18 -11-5.28623 27.2163  20
   1  18 -11 24.2109 24.6940  21
   1  18 -11 10.4500 25.1594  13
   1 -18 -11 21.5525 16.2934  18
   1 -18 -10 906.625 81.0473  20
   1  18 -10 854.454 82.2638  13
   1 -18 -10 900.867 74.1079  19
   1  18 -10 1016.36 89.6093  21
   1  18  -9 3229.55 165.845   8
   1 -18  -9 3293.58 155.829  19
   1  18  -9 3026.35 162.194  13
   1  18  -9 2962.73 163.045  21
   1  18  -8 43.8202 35.9041   8
   1  18  -8-38.6276 35.8906  13
   1 -18  -8 35.2469 26.5958   6
   1 -18  -8-1.80315 29.9767  19
   1  18  -8-27.6096 37.6034  21
   1 -18  -7 10843.4 323.686  19
   1  18  -7 10293.4 338.821   8
   1  18  -7 10732.3 340.664  21
   1  18  -7 9778.11 323.715  13
   1 -18  -7 10024.4 326.674  10
   1  18  -6 2291.21 147.055   8
   1  18  -6 2162.24 139.071  21
   1 -18  -6 2245.93 139.592  10
   1  18  -6 2243.51 138.719  13
   1 -18  -5 5293.10 222.685  10
   1  18  -5 5502.38 232.824   8
   1  18  -5 5221.45 218.798  13
   1  18  -5 5887.44 233.240  21
   1  18  -4 850.628 82.6774  21
   1  18  -4 798.927 83.9223   8
  -1  18   4 942.459 84.9799  11
   1 -18  -4 903.131 84.9586  10
   1 -18  -3 2670.36 285.837  32
  -1 -18   3 2674.15 290.614  31
  -1  18   3 2468.30 276.727  36
  -1 -18   3 2245.99 271.660  35
  -1  18   2 15007.9 711.954  36
  -1 -18   2 16658.6 757.235  35
  -1  18   1 83.4684 71.8764  36
  -1 -18   1 16.6306 40.5019  35
   1  18  -1-26.4710 54.0189  36
  -1 -18   0 4784.17 372.199  35
  -1  18   0 4173.25 348.036  36
   1 -18   0 5342.41 394.673  35
   1  18   0 4994.95 369.832  36
  -1  18  -1 0.70890 42.0620  36
  -1 -18  -1 170.261 75.4705  35
   1  18   1 26.7581 42.4311  36
   1 -18   1 68.7133 54.7906  35
   1  18   2 979.680 173.433  36
   1 -18   2 802.920 158.768  35
   1 -18   2 1232.92 191.395  31
  -1 -18  -2 1060.89 179.069   2
  -1 -18  -3 1645.01 227.431   2
   1 -18   3 2080.60 260.676  31
  -1 -18  -3 1596.50 112.421  10
   1 -18   3 1183.60 201.243  35
   1  18   3 1703.38 229.819  36
  -1  18  -4 11134.3 327.755  21
  -1  18  -4 11013.0 344.456   8
   1  18   4 11137.5 331.639  11
  -1 -18  -4 10673.2 333.265  10
  -1 -18  -5 2323.45 142.256  10
  -1  18  -5 2251.84 136.107  21
  -1  18  -5 2206.46 136.550  13
  -1  18  -5 2367.75 147.324   8
  -1  18  -6 706.839 80.8017   8
  -1  18  -6 909.302 90.3646  21
  -1  18  -6 755.869 78.3277  13
  -1 -18  -6 699.630 81.6190  10
  -1 -18  -7 3684.46 182.964   6
  -1  18  -7 3675.62 185.449  21
  -1  18  -7 3595.81 186.933   8
  -1 -18  -7 4016.62 192.092  10
  -1  18  -7 3965.94 188.272  13
  -1  18  -8-12.4397 32.2599   8
  -1  18  -8 24.8796 31.6094  13
  -1  18  -8 61.2827 34.5373  21
  -1 -18  -8 22.8987 25.5191   6
  -1  18  -9 1370.91 105.955  13
  -1 -18  -9 1428.72 104.799   6
  -1  18  -9 1425.79 111.676  21
  -1  18  -9 1451.52 109.837   8
  -1  18 -10 507.052 60.0910   8
  -1  18 -10 445.764 62.1028  21
  -1 -18 -10 402.792 56.0367  20
  -1  18 -10 424.237 59.2062  13
  -1 -18 -10 535.580 58.9566   6
  -1  18 -11 245.239 46.3576  21
  -1 -18 -11 216.923 41.2428  20
  -1  18 -11 224.074 42.5094  13
  -1 -18 -11 161.059 35.2388  18
  -1 -18 -12 1216.75 72.6857  20
  -1 -18 -12 1132.43 68.3145  18
  -1  18 -12 1278.86 79.2483  21
   1  19 -12 36.9549 19.9665  21
   1 -19 -12-5.27305 18.3626  20
   1 -19 -11 779.041 64.3006  20
   1  19 -11 835.414 71.1326  21
   1  19 -10 300.860 54.2152  21
   1 -19 -10 368.657 52.4612  20
   1 -19 -10 291.641 41.8256  19
   1 -19  -9 155.746 36.7356  19
   1 -19  -9 165.706 37.0613   6
   1  19  -9 202.901 47.0860   8
   1  19  -9 186.095 47.5524  21
   1  19  -9 142.514 44.8888  13
   1 -19  -8-11.7156 30.8373  19
   1  19  -8 40.3235 32.2785   8
   1  19  -8 12.2208 29.6365  21
   1  19  -8-11.4512 37.9905  13
   1 -19  -8 32.5603 23.0284   6
   1  19  -7 438.573 66.2665  21
   1 -19  -7 315.022 58.0665  10
   1  19  -7 380.285 60.6459  13
   1 -19  -7 431.217 57.5059  19
   1  19  -7 420.961 66.2151   8
   1 -19  -6 14036.2 406.701  10
   1  19  -6 14240.6 419.314   8
   1  19  -5 2008.60 137.311   8
   1 -19  -5 2005.47 132.503  10
   1  19  -5 2058.95 133.763  21
   1 -19  -4 18679.9 475.944  10
   1  19  -4 17775.4 464.566  21
   1  19  -4 17739.0 477.824   8
  -1  19   4 18499.1 469.511  11
   1  19  -3 2155.50 130.542  21
  -1  19   3 2211.68 136.433  11
   1  19  -3 2166.43 133.415  11
   1  19  -3 2215.17 138.500   8
   1 -19  -2 11233.2 344.482  27
  -1 -19   2 11186.8 604.150  31
   1  19  -2 12308.7 355.118   8
  -1  19   2 12281.4 355.328  11
   1  19  -2 10624.2 335.871  11
   1  19  -1 453.754 60.6356  11
  -1 -19   1 419.787 116.260  35
   1  19  -1 272.818 87.5534  36
   1 -19  -1 593.865 69.6244  27
  -1  19   1 521.685 131.652  36
  -1 -19   0 3632.60 333.601  35
   1  19   0 3889.45 340.537  36
   1  19   0 4327.28 193.109  11
   1  19   1 13960.9 390.696  11
   1 -19   1 14744.3 711.013  35
  -1 -19  -1 14802.4 676.508  35
  -1  19  -1 14131.6 679.230  36
   1  19   2 399.659 57.8123  11
  -1  19  -2 312.148 52.3849   8
  -1 -19  -2 362.119 54.0194   7
  -1  19  -2 257.059 46.4619  11
   1 -19   2 405.751 111.340  31
   1 -19   2 314.369 50.4177  27
   1  19   3 3181.43 163.837  11
  -1  19  -3 3070.86 161.146  11
  -1 -19  -3 2956.57 152.641   7
  -1 -19  -3 3159.10 165.068  10
  -1  19  -3 3139.64 167.065   8
  -1  19  -4 6.94507 22.4456  21
   1  19   4 10.6074 23.3054  11
  -1 -19  -4 35.8875 30.7222  10
  -1  19  -4-11.1494 27.8315   8
  -1 -19  -5 807.213 85.6224  10
  -1  19  -5 705.966 81.5470   8
  -1  19  -5 633.018 73.3652  21
  -1  19  -6 1741.22 128.077   8
  -1  19  -6 1735.50 122.279  21
  -1 -19  -6 1846.26 126.525  10
  -1  19  -7 941.985 89.4470  13
  -1  19  -7 1070.30 96.4561  21
  -1  19  -7 972.916 96.0658   8
  -1 -19  -7 866.089 89.5956  10
  -1 -19  -7 1018.43 95.4840   6
  -1 -19  -8 355.678 55.3675   6
  -1  19  -8 371.917 57.2699  13
  -1  19  -8 383.464 61.1304  21
  -1  19  -8 286.158 53.8067   8
  -1  19  -9 542.711 68.6038  21
  -1  19  -9 513.728 64.5667   8
  -1  19  -9 485.226 65.4539  13
  -1 -19  -9 515.147 63.1826   6
  -1  19 -10 3230.64 156.827  21
  -1  19 -10 3321.52 150.984   8
  -1 -19 -10 3179.59 142.380   6
  -1 -19 -10 3040.99 146.879  20
  -1 -19 -11 208.660 35.7998  18
  -1 -19 -11 202.541 37.5252  20
  -1  19 -11 228.100 40.2493  21
  -1  19 -12 111.158 25.4347  21
  -1 -19 -12 114.713 24.4156  20
   1 -20 -11 88.1302 26.0750  20
   1  20 -11 125.571 29.2873  21
   1  20 -10 1236.76 92.1408  21
   1 -20 -10 1432.55 93.1475  20
   1  20  -9 2037.13 124.371   8
   1 -20  -9 1899.20 108.748  19
   1 -20  -9 1969.92 112.143   6
   1  20  -9 1944.11 125.239  21
   1 -20  -8 368.792 55.9827   6
   1 -20  -8 380.496 53.9125  19
   1  20  -8 455.138 67.1438  21
   1  20  -8 343.546 59.2849   8
   1 -20  -7 413.988 59.6673  10
   1  20  -7 429.616 65.2382   8
   1  20  -7 336.506 57.7527  21
   1 -20  -7 382.130 55.0557  19
   1 -20  -6 379.954 62.8095  10
   1  20  -6 519.764 69.0894  21
   1  20  -6 470.765 71.0041   8
   1  20  -5 8590.02 302.861   8
   1  20  -5 8383.54 290.107  21
  -1  20   5 8770.80 287.649  11
   1  20  -4 8542.72 288.906  21
   1  20  -4 7980.40 290.825   8
   1  20  -4 8468.21 285.939  11
   1 -20  -4 8083.10 287.041  10
  -1  20   4 8452.59 288.881  11
  -1  20   3 2421.12 146.116  11
   1  20  -3 2250.48 142.043   8
   1 -20  -3 2239.08 140.843  10
   1  20  -3 2404.26 139.633  21
   1  20  -3 2160.26 136.632  11
   1  20  -2 1704.58 121.875  11
   1  20  -2 1836.65 117.848  21
   1  20  -2 1805.79 122.948   8
  -1  20   2 1963.59 130.196  11
  -1  20   1 2126.78 135.651  11
   1 -20  -1 2190.72 138.426  27
   1  20  -1 2220.99 132.931   8
   1  20  -1 1866.61 126.856  11
   1  20   0 238.207 47.1904  11
   1 -20   0 232.677 50.0104  27
  -1  20   0 266.323 48.6385  11
   1  20   1 8010.28 281.539  11
  -1  20  -1 7843.01 269.266   8
  -1  20  -1 8143.48 283.988  11
   1 -20   1 8566.23 286.531  27
   1  20   2 1523.99 115.907  11
  -1  20  -2 1794.29 122.256   8
  -1  20  -2 1522.19 114.114  11
   1 -20   2 1689.76 118.965  27
  -1 -20  -2 1562.19 111.830   7
  -1  20  -3 570.328 71.6406   8
  -1  20  -3 485.724 67.2363  11
  -1 -20  -3 470.668 67.9345  10
   1  20   3 587.959 71.6903  11
  -1 -20  -3 526.128 65.3749   7
  -1  20  -4 1772.23 126.211   8
   1  20   4 1373.71 107.985  11
  -1  20  -4 1612.17 114.494  11
  -1  20  -4 1685.92 113.487  21
  -1 -20  -4 1500.11 113.932  10
  -1 -20  -5 21.2590 27.7317  10
  -1  20  -5 58.0579 32.4189   8
  -1  20  -5 79.7470 31.6957  21
  -1  20  -6 549.024 75.0172   8
  -1  20  -6 533.120 67.1211  21
  -1 -20  -6 418.651 63.6844  10
  -1  20  -7 858.393 89.4921   8
  -1 -20  -7 762.464 82.0926   6
  -1  20  -7 970.247 90.4564  21
  -1  20  -8 3211.16 164.836  21
  -1 -20  -8 2866.74 153.748   6
  -1  20  -8 2897.70 161.218   8
  -1  20  -9 1862.01 120.175  21
  -1  20  -9 1974.51 123.302   8
  -1 -20  -9 1844.70 113.543   6
  -1 -20 -10 2347.02 121.365  20
  -1  20 -10 2464.87 124.216   8
  -1  20 -10 2308.56 125.694  21
  -1 -20 -10 2426.85 117.071   6
  -1 -20 -11 1193.62 75.6959  20
  -1 -20 -11 1139.64 71.3249  18
  -1  20 -11 1123.82 78.2543  21
   1  21 -11 911.271 64.0860  21
   1 -21 -11 885.250 58.3305  20
   1  21 -10 32.7631 27.2472  21
   1 -21 -10 41.3316 24.7897  20
   1 -21  -9-21.7043 23.6710  19
   1  21  -9-6.55149 27.3015  21
   1 -21  -9 8.58761 17.9752   6
   1  21  -8 1338.68 107.943   8
   1 -21  -8 1333.02 99.8946   6
   1  21  -8 1382.27 107.491  21
   1 -21  -8 1192.07 89.2082  19
   1 -21  -7 3405.55 161.091  19
   1  21  -7 3244.26 173.296   8
   1 -21  -7 3302.58 167.805  10
   1  21  -7 3255.68 169.534  21
   1  21  -6 54.9527 36.6297  21
   1  21  -6 63.3378 38.1787   8
   1 -21  -6 41.5577 33.1569  10
   1 -21  -5 19.4211 27.4680  10
   1  21  -5 69.6105 31.2249  21
  -1  21   5 121.525 36.3649  11
   1  21  -5 53.0525 32.4274   8
  -1  21   4 856.127 85.0184  11
   1 -21  -4 660.676 78.6122  10
   1  21  -4 786.446 80.1834  21
   1  21  -4 928.636 92.0156   8
   1 -21  -3 61.8826 36.2007  10
   1  21  -3 125.385 35.2944  11
   1  21  -3 23.7494 24.7823  21
   1  21  -3 41.5886 29.3671   8
  -1  21   3 77.8586 32.6746  11
   1  21  -2 3971.47 188.794   8
   1  21  -2 3907.82 191.305  11
  -1  21   2 4156.22 195.855  11
  -1  21   1 329.041 55.9932  11
   1  21  -1 387.732 61.7463  11
   1  21  -1 334.510 52.6216   8
  -1  21   0 52.3887 36.5607  11
   1 -21   0 64.6636 29.0302  27
  -1  21  -1 2748.28 150.807   8
   1 -21   1 2752.53 155.646  27
  -1 -21  -1 2472.42 146.156   7
   1  21   1 2405.56 149.123  11
  -1  21  -1 2777.93 159.764  11
  -1 -21  -2 4088.38 189.975   7
   1 -21   2 4490.86 200.755  27
   1  21   2 4308.92 200.944  11
  -1  21  -2 4083.35 196.187  11
  -1  21  -2 4390.86 199.609   8
  -1  21  -3 1710.58 121.243  11
  -1 -21  -3 1738.79 123.927  10
  -1 -21  -3 1782.90 118.551   7
  -1  21  -3 1815.20 128.188   8
   1  21   3 1717.71 122.885  11
  -1  21  -4 164.983 37.5458  11
  -1 -21  -4 193.683 46.5759  10
  -1  21  -4 200.560 41.3851  21
   1  21   4 151.254 40.1552  11
  -1  21  -4 150.564 42.8352   8
  -1  21  -5 982.340 89.7318  21
  -1  21  -5 1079.57 99.7831   8
  -1 -21  -5 1118.80 100.044  10
  -1  21  -6 1592.79 121.528   8
  -1 -21  -6 1628.62 119.609  10
  -1  21  -6 1663.65 116.832  21
  -1 -21  -7 570.852 71.2785   6
  -1  21  -7 550.098 72.9080   8
  -1  21  -7 579.580 69.2504  21
  -1  21  -8-0.78770 25.9366  21
  -1  21  -8-41.9411 34.3251   8
  -1 -21  -8 13.4182 24.2726   6
  -1  21  -9 1004.99 85.3217   8
  -1 -21  -9 820.041 74.3999   6
  -1  21  -9 863.527 79.8145  21
  -1  21 -10 50.8650 28.6803  21
  -1 -21 -10 24.8063 23.2187  20
  -1  21 -10 71.8738 26.0794   8
  -1 -21 -11 1526.42 78.9667  20
  -1 -21 -11 1620.98 77.9537  18
  -1  21 -11 1641.71 86.3850  21
   1  22 -10 3.13960 20.6951  21
   1 -22 -10-12.7510 20.8368  20
   1 -22  -9 168.006 31.2915   6
   1  22  -9 141.322 36.6928  21
   1 -22  -9 178.742 32.1509  19
   1 -22  -8 160.316 35.0103  19
   1  22  -8 156.275 40.6491  21
   1  22  -8 175.454 41.9947   8
   1 -22  -8 201.725 39.2936   6
   1  22  -7 7222.46 267.009   8
   1 -22  -7 7519.42 247.920  19
   1  22  -7 8022.73 271.663  21
   1 -22  -6 3659.98 180.308  10
   1  22  -6 4189.29 190.119  21
   1  22  -6 4099.97 196.325   8
   1 -22  -5 293.033 55.9342  10
   1  22  -5 349.222 61.3444   8
   1  22  -5 261.304 49.1283  21
  -1  22   5 347.894 55.6900  11
   1 -22  -4 3159.38 170.738  10
   1  22  -4 3189.95 173.095   8
  -1  22   4 2991.44 161.598  11
   1  22  -4 3353.36 168.380  21
   1  22  -3 7726.97 277.925   8
   1 -22  -3 6393.88 255.625  10
   1  22  -3 6741.49 260.035  11
  -1  22   3 7737.84 274.563  11
   1  22  -3 7473.56 261.790  21
   1  22  -2 2664.92 153.636   8
   1  22  -2 2195.81 140.666  11
  -1  22   2 2358.30 146.676  11
  -1  22   1 136.553 44.4122  11
   1  22  -1 136.639 41.3303   8
   1  22  -1 131.992 44.0229  11
   1  22   0 3885.56 189.254  11
  -1 -22   0 3742.96 184.203   7
  -1  22   0 3597.09 182.693  11
  -1  22  -1 217.824 48.6479  11
  -1 -22  -1 223.215 44.3354   7
  -1  22  -1 246.536 45.6213   8
   1  22   1 279.129 55.6347  11
  -1 -22  -2 6300.13 248.508  10
  -1  22  -2 6453.55 249.308   8
  -1  22  -2 6642.49 253.782  11
   1  22   2 6446.95 252.051  11
  -1 -22  -2 6088.85 238.850   7
  -1 -22  -3 1366.94 112.245  10
  -1 -22  -3 1452.12 107.947   7
  -1  22  -3 1606.39 120.174   8
   1  22   3 1401.65 111.331  11
  -1  22  -3 1488.39 114.563  11
  -1 -22  -4 974.242 95.8396  10
  -1  22  -4 1070.94 98.3582   8
  -1  22  -4 1077.79 92.5035  11
  -1 -22  -5 69.2496 34.6296  10
  -1  22  -5 47.1269 32.1432   8
  -1  22  -5 116.403 37.3260  21
  -1  22  -6 311.851 52.9721  21
  -1 -22  -6 315.078 58.4180  10
  -1  22  -6 237.337 50.6810   8
  -1  22  -7 1027.19 94.9809   8
  -1  22  -7 1010.16 88.6059  21
  -1 -22  -7 1028.09 91.8898   6
  -1 -22  -8 1158.22 91.6430   6
  -1  22  -8 1296.63 99.9009   8
  -1  22  -8 1190.86 92.8188  21
  -1 -22  -9 1251.91 85.4145   6
  -1  22  -9 1263.20 89.3161   8
  -1  22  -9 1314.64 90.9591  21
  -1 -22 -10 846.747 62.7881  20
  -1  22 -10 864.318 66.9982  21
   1 -23 -10-2.36532 18.4703  20
   1  23 -10 34.1388 20.5732  21
   1  23  -9 43.7930 24.3129  21
   1 -23  -9 65.9833 21.6185   6
   1 -23  -9 75.0100 28.2727  20
   1 -23  -8 2466.49 115.876  19
   1  23  -8 2467.23 131.023  21
   1 -23  -8 2482.96 124.979   6
   1  23  -7 813.863 80.5415  21
   1  23  -7 770.925 82.2601   8
   1 -23  -7 750.415 71.2833  19
   1  23  -6 229.738 53.1018   8
   1  23  -6 90.5156 34.6375  21
   1 -23  -6 152.939 43.0360  10
   1 -23  -5 1080.28 98.9862  10
   1  23  -5 1272.18 110.061   8
   1  23  -5 1213.81 99.9351  21
  -1  23   5 1254.93 99.0060  11
   1  23  -4 3622.97 184.000   8
   1 -23  -4 3281.53 172.739  10
  -1  23   4 3730.90 180.163  11
   1  23  -4 3774.96 179.510  21
   1  23  -3 3706.07 183.837   8
  -1  23   3 3950.28 188.795  11
   1 -23  -3 3407.01 177.527  10
   1  23  -3 3505.76 170.761  21
  -1  23   2 5.26230 32.0971  11
   1  23  -2 14.6158 27.3630  11
   1  23  -2 30.2619 30.8726   8
  -1  23   1 293.728 57.6091  11
   1  23  -1 308.651 58.1220   8
   1 -23  -1 323.024 51.8564   7
   1  23  -1 302.419 57.9993  11
  -1  23   0 975.001 94.9068  11
   1  23   0 929.250 93.2182  11
  -1 -23   0 913.029 89.2995   7
  -1 -23  -1 1119.96 97.0940   7
  -1  23  -1 940.567 94.1502  11
   1  23   1 989.668 97.4347  11
   1  23   2-9.67331 35.5478  11
  -1 -23  -2 9.01399 20.9100   7
  -1 -23  -2 27.3373 32.4193  10
  -1  23  -2 7.70116 25.7918  11
  -1  23  -2 23.3820 22.8172   8
  -1  23  -3 9.55216 25.6850  11
  -1 -23  -3 34.8101 19.4764   7
  -1 -23  -3 54.2431 37.0603  10
  -1  23  -3 18.3864 28.4051   8
   1  23   3-42.7744 39.8207  11
  -1  23  -4-17.8701 30.2571  11
  -1 -23  -4 41.6408 30.4287  10
  -1  23  -4 36.8676 31.1751   8
  -1  23  -5 4154.94 182.475  21
  -1 -23  -5 4080.25 191.208  10
  -1  23  -5 4400.47 202.450   8
  -1 -23  -6 358.026 56.1654   6
  -1 -23  -6 373.581 60.2948  10
  -1  23  -6 339.362 56.5256   8
  -1  23  -6 373.732 55.7422  21
  -1  23  -7 626.874 68.3147  21
  -1  23  -7 714.426 75.8082   8
  -1 -23  -7 717.112 74.0977   6
  -1  23  -8 185.976 44.1337   8
  -1 -23  -8 137.418 34.1722   6
  -1  23  -8 130.987 34.7683  21
  -1  23  -9 0.17763 23.1483   8
  -1  23  -9 31.8728 20.1082  21
  -1 -23  -9-14.7287 21.1166   6
  -1 -23 -10 33.7144 16.9797  20
  -1 -23 -10 11.1200 17.6903  18
  -1  23 -10 48.1767 20.2917  21
   1 -24  -9 2468.93 106.818  20
   1 -24  -9 2201.58 94.3232   6
   1  24  -9 2510.93 112.804  21
   1  24  -8 2012.22 111.394  21
  -1 -24   8 2087.77 111.590   7
   1 -24  -8 2300.18 112.923   6
   1 -24  -7 7370.51 239.779   6
   1 -24  -7 6946.16 219.073  19
   1  24  -7 7256.75 239.408  21
   1 -24  -6 476.291 57.5690  19
   1 -24  -6 546.896 68.9786  10
   1  24  -6 459.510 66.2250   8
   1  24  -6 468.564 58.3564  21
   1 -24  -5 3283.82 166.089  10
  -1  24   5 3175.87 155.014  11
   1  24  -5 3327.38 161.672  21
   1  24  -4 23369.9 536.533  21
   1 -24  -4 21316.5 536.260  10
   1  24  -4 21796.9 543.662   8
  -1  24   4 23569.2 543.895  11
   1  24  -3 1462.74 113.524   8
   1 -24  -3 1289.80 105.765  10
  -1  24   3 1296.35 105.789  11
   1  24  -2 3854.87 184.139   8
  -1  24   2 3801.02 185.769  11
   1  24  -1 1561.56 119.854  11
   1 -24  -1 1692.08 115.334   7
  -1 -24   1 1558.63 119.043   7
  -1  24   1 1767.57 126.534  11
  -1  24   0 720.114 81.9573  11
  -1 -24   0 695.139 78.1535   7
   1  24   0 599.387 76.6801  11
  -1 -24  -1 184.193 43.8977   7
   1  24   1 152.222 40.9384  11
  -1  24  -1 150.036 37.8710  11
  -1  24  -2 551.038 67.7324   8
  -1 -24  -2 541.058 71.6383  10
  -1  24  -2 511.089 69.3076  11
  -1 -24  -2 570.771 68.1729   7
  -1 -24  -3 147.884 38.5150  10
  -1  24  -3 202.231 43.8512  11
  -1  24  -3 194.957 45.4722   8
  -1 -24  -3 163.191 38.2041   7
  -1 -24  -4 120.166 36.7830  10
  -1  24  -4 87.8075 22.8041  11
  -1  24  -4 134.886 42.5673   8
  -1 -24  -5 2057.18 130.209  10
  -1  24  -5 2128.46 134.889   8
  -1 -24  -6 22.2689 28.0023  10
  -1  24  -6 22.1880 30.6003   8
  -1 -24  -6 45.9511 27.3769   6
  -1  24  -6 54.6386 27.8346  21
  -1  24  -7 159.012 35.1720  21
  -1 -24  -7 157.647 36.7742   6
  -1  24  -7 110.035 38.3240   8
  -1  24  -8 132.415 32.5986  21
  -1  24  -8 133.983 34.1467   8
  -1 -24  -8 109.373 30.1611   6
  -1  24  -9 194.030 31.8047  21
  -1 -24  -9 131.815 30.8820  20
  -1 -24  -9 220.148 33.6148   6
   1 -25  -9 3816.30 126.260  20
   1  25  -9 4078.03 134.825  21
   1 -25  -8 3453.29 133.897   6
  -1 -25   8 3712.46 139.523   7
   1  25  -8 3782.06 143.492  21
  -1 -25   7 1850.11 108.957   7
   1 -25  -7 1849.82 105.158   6
   1 -25  -7 1755.12 92.7036  19
   1  25  -7 1790.21 103.388  21
   1  25  -6 412.380 53.6284  21
  -1 -25   6 377.572 57.9309   7
   1 -25  -6 372.410 47.4898  19
   1 -25  -6 387.274 56.1363  10
   1 -25  -5 1774.25 116.613  10
   1  25  -5 1769.04 110.284  21
   1  25  -5 1743.09 119.023   8
   1  25  -4 1.26181 22.8140  21
   1  25  -4 21.9945 32.9565   8
  -1  25   4 33.0639 32.0101  11
   1 -25  -4-2.66694 30.7725  10
   1 -25  -3-2.51481 33.0700  10
  -1 -25   3 45.5980 33.5694   7
   1  25  -3 25.2388 27.1103   8
  -1  25   3 25.5962 29.7397  11
  -1 -25   2 1294.88 107.869   7
  -1  25   2 1522.26 114.387  11
   1 -25  -2 1348.58 109.107  10
  -1  25   1 1460.97 113.425  11
  -1 -25   1 1392.23 110.460   7
   1 -25  -1 1426.70 103.451   7
   1 -25   0 1113.68 93.6701   7
  -1  25   0 1118.95 102.939  11
  -1 -25   0 1002.82 91.3636   7
  -1 -25  -1 702.866 80.2298  10
  -1  25  -1 655.383 76.9604  11
  -1 -25  -1 700.786 75.4902   7
  -1 -25  -2 1853.53 126.763  10
  -1 -25  -2 2081.46 126.481   7
  -1  25  -2 1837.45 125.999  11
  -1  25  -2 2078.20 127.245   8
  -1 -25  -3-27.4505 29.0693  10
  -1  25  -3-30.4665 35.1150  11
  -1  25  -3 16.6851 24.9355   8
  -1  25  -4 223.040 48.0118   8
  -1 -25  -4 231.294 47.7152  10
  -1  25  -5 1188.54 96.9551   8
  -1 -25  -5 1138.61 92.6277  10
  -1  25  -6 2935.79 148.941   8
  -1 -25  -6 3135.30 151.916   6
  -1  25  -6 3097.57 137.789  21
  -1  25  -7 70.7827 29.9720   8
  -1 -25  -7 104.414 31.6731   6
  -1  25  -7 67.8769 27.1773  21
  -1  25  -8 110.989 24.9861  21
  -1  25  -8 94.1777 28.2690   8
  -1 -25  -8 80.6796 23.0078   6
  -1 -25  -9 113.100 24.8161  20
   1 -26  -8 3526.51 122.100   6
  -1 -26   7 3320.11 137.938   7
   1 -26  -7 3342.64 135.624   6
   1  26  -7 3483.70 136.521  21
  -1 -26   6 162.278 39.1394   7
   1 -26  -6 99.0440 32.1156   6
   1  26  -6 75.9452 27.4174  21
   1 -26  -6 79.9109 23.0770  19
   1  26  -5 124.843 32.5881  21
  -1 -26   5 166.535 43.8425   7
   1 -26  -5 132.936 38.0701  10
  -1 -26   4 1151.92 96.0672   7
   1 -26  -4 1183.08 94.3356  10
  -1 -26   3 632.066 72.5904   7
  -1  26   3 711.090 75.8454  11
   1 -26  -3 613.192 70.6410  10
  -1 -26   2 80.7362 38.6867   7
   1 -26  -2 145.674 43.3854  10
  -1  26   2 146.566 42.9550  11
  -1  26   1 1982.10 132.009  11
   1 -26  -1 2043.59 129.841  10
  -1 -26   1 1808.79 123.209   7
   1 -26  -1 1924.24 116.411   7
  -1  26   0 46.5607 33.7888  11
   1 -26   0 30.1823 22.8913   7
  -1 -26   0 26.3125 24.5070   7
  -1 -26  -1 92.1123 33.5310  10
  -1 -26  -1 100.710 34.6079   7
  -1  26  -1 116.406 40.2867  11
   1 -26   1 126.680 35.7105   7
  -1 -26  -2 2547.45 143.951  10
  -1  26  -2 2850.76 143.179   8
  -1 -26  -2 2578.34 137.580   7
  -1  26  -2 2499.05 144.260  11
  -1  26  -3 174.870 41.4248   8
  -1 -26  -3 155.286 42.3182  10
  -1  26  -3 236.251 46.2183  11
  -1 -26  -4 70.7596 34.2978  10
  -1  26  -4 44.6585 26.8780   8
  -1 -26  -5-23.6784 30.5440  10
  -1 -26  -5-9.55561 27.9844   6
  -1  26  -5 30.2251 25.6954   8
  -1 -26  -6 907.397 76.1752   6
  -1  26  -6 991.826 81.5357   8
  -1  26  -7 336.033 38.9874  21
  -1 -26  -7 342.716 43.6494   6
  -1  26  -7 309.711 44.6700   8
   1 -26   8 13.8958 17.1710   7
  -1 -26  -8 20.0214 15.9423   6
  -1 -27   7 685.811 55.1296   7
   1  27  -7 640.838 52.1332  16
   1 -27  -7 698.247 54.0811   6
   1 -27  -6 151.645 31.8694   6
  -1 -27   6 108.844 28.8199   7
   1 -27  -6 138.512 25.7806  19
  -1 -27   5 1149.14 87.1063   7
   1 -27  -5 1032.35 80.0480  10
   1 -27  -5 1001.23 69.7816  19
   1 -27  -4 57.9274 31.7536  10
  -1 -27   4 7.61585 28.5070   7
   1 -27  -3-1.70065 31.0401  10
  -1 -27   3 15.6966 26.5075   7
  -1 -27   2 2644.16 143.390   7
   1 -27  -2 2643.56 144.562  10
  -1  27   2 2957.02 151.111  11
  -1  27   1 276.544 54.5582  11
   1 -27  -1 284.405 51.3485  10
  -1 -27   1 284.707 51.2907   7
  -1 -27   0 950.666 86.2490  10
  -1 -27   0 946.203 83.9616   7
  -1  27   0 838.556 84.6995  11
   1 -27   0 935.832 79.8671   7
  -1 -27  -1 41.5850 27.5155  10
  -1 -27  -1 59.8540 25.8166   7
   1 -27   1 19.4263 27.3855   7
  -1  27  -1 18.0864 28.8307  11
  -1 -27  -2 45.8438 30.0106  10
  -1  27  -2 14.4391 28.2996  11
   1 -27   2 49.2875 31.5603   7
  -1 -27  -2-0.05049 21.2250   7
  -1 -27  -3 183.201 39.9142  10
  -1  27  -3 242.904 42.7170   8
  -1 -27  -4-6.64047 23.9140   6
  -1  27  -4-59.9281 33.6947   8
  -1 -27  -4 15.2342 25.3351  10
  -1  27  -5 1246.56 87.8400   8
  -1 -27  -5 1223.36 86.5067  10
  -1 -27  -5 1201.05 86.8885   6
  -1  27  -6 2.38619 21.4394   8
  -1 -27  -6 29.1286 24.3600   6
   1 -27   7 132.983 29.5440   7
  -1 -27  -7 125.322 27.9978   6
  -1 -28   6 396.548 43.3438   7
   1 -28  -6 336.363 38.1859   6
   1 -28  -5 22.1310 20.0198   6
   1 -28  -5 9.65079 22.0422  10
   1 -28  -5 1.92830 15.8283  19
  -1 -28   5 44.6891 23.5555   7
   1 -28  -4 551.643 57.4270  10
  -1 -28   4 595.699 61.4067   7
  -1 -28   3 515.146 60.2816   7
   1 -28  -3 551.839 61.1624  10
   1 -28  -2 623.155 67.1102  10
  -1 -28   2 621.195 65.9080   7
  -1 -28   1 773.176 73.3340  10
  -1 -28   1 719.645 70.8630   7
   1 -28  -1 846.017 78.7417  10
  -1 -28   0 219.645 43.3982  10
  -1 -28   0 261.497 43.3153   7
   1 -28   0 283.405 44.9889   7
   1 -28   0 284.673 50.7426  10
  -1 -28  -1 3015.50 138.708   7
  -1 -28  -1 3100.38 146.687  10
   1 -28   1 3039.53 141.292   7
  -1 -28  -2 27.4422 25.2040  10
   1 -28   2 52.8134 29.2496   7
  -1 -28  -3 2109.21 114.932   6
  -1 -28  -3 2045.38 112.842  10
   1 -28   3 2072.23 115.894   7
  -1 -28  -4 1228.51 83.5693  10
   1 -28   4 1194.78 85.2854   7
  -1 -28  -4 1163.61 82.3851   6
   1 -28   5 4388.34 163.698   7
  -1 -28  -5 4425.95 161.137   6
  -1 -28  -6 244.788 34.5980   6
   1 -28   6 233.624 34.5069   7
   1 -29  -5 1144.78 69.2763   6
  -1 -29   5 1203.25 73.3211   7
  -1 -29   4-29.1396 20.1307  10
  -1 -29   4 7.17551 19.2385   7
   1 -29  -4 20.8096 21.5687  10
   1 -29  -4-1.07163 14.1997  19
  -1 -29   3 848.776 68.9965   7
  -1 -29   3 902.878 68.2560  10
   1 -29  -3 889.009 69.7148  10
  -1 -29   2 826.488 69.0596  10
   1 -29  -2 882.719 72.3811  10
  -1 -29   2 837.012 69.8425   7
  -1 -29   1 57.3133 26.5548  10
   1 -29  -1-30.5512 27.3651  10
  -1 -29   1 1.69039 22.2876   7
   1 -29   0 77.1678 30.2834  10
   1 -29   0 82.3072 25.2199   7
  -1 -29   0 61.8154 24.6240  10
  -1 -29   0 38.5931 19.1986   7
  -1 -29  -1 1006.83 77.5780  10
   1 -29   1 991.688 79.3257  10
  -1 -29  -1 1002.14 72.2579   7
   1 -29   1 984.132 72.7714   7
   1 -29   2 470.133 51.7888   7
  -1 -29  -2 521.482 56.0273  10
  -1 -29  -2 557.809 55.2286   6
  -1 -29  -3 591.294 57.6513  10
   1 -29   3 707.313 61.7695   7
  -1 -29  -3 695.250 60.8141   6
   1 -29   4 1906.99 98.9356   7
  -1 -29  -4 1788.15 93.9901   6
  -1 -29  -4 1892.43 95.7653  10
   1  29   4 1922.97 91.5773  12
  -1 -29  -5 3315.32 124.203   6
   1 -29   5 3287.08 126.329   7
   1 -30  -4 74.1050 20.1737   6
  -1 -30   4 69.2105 18.5835   7
  -1 -30   3 21.6559 16.0571   7
   1  30  -3 34.0141 15.1101  12
  -1 -30   3 69.6515 21.1685  10
   1 -30  -3 77.0038 24.7301  10
   1 -30  -2 7.86642 19.4349  10
  -1 -30   2-15.8766 21.0096   7
  -1 -30   2 14.1621 17.3101  10
  -1 -30   1 207.115 33.9660  10
   1 -30  -1 216.027 37.1858  10
  -1 -30   1 159.575 28.1162   7
  -1 -30   0 101.142 27.7835  10
   1 -30   0 69.3773 26.3627  10
  -1 -30   0 42.9448 19.9080   7
  -1 -30  -1 802.204 62.1234  10
   1 -30   1 713.962 54.8176   7
   1 -30   1 707.371 60.6006  10
  -1 -30  -1 683.205 52.3017   6
   1 -30   2 1592.46 88.3854  10
  -1 -30  -2 1513.22 84.1950  10
   1 -30   2 1677.46 86.2906   7
  -1 -30  -2 1552.77 81.0116   6
   1  30   3 809.980 58.1026  12
  -1 -30  -3 706.910 53.4590   6
   1 -30   3 593.830 52.5741  10
  -1 -30  -3 677.614 54.7343  10
   1 -30   3 724.118 55.6419   7
   1 -30   4 5935.09 169.198   7
  -1 -30  -4 5722.97 163.376   6
   1 -31  -2 2512.56 99.5811  10
   1 -31  -1 201.768 29.6223  10
   1  31  -1 198.162 29.3143  12
   1 -31   0 65.8910 22.1289  10
   1  31   0 50.7338 20.1139  12
   1 -31   1 1017.80 63.9448  10
   1  31   1 1075.89 66.0906  12
   1 -31   2 1825.41 84.0835  10
   2   0 -15 70.7056 25.3896  15
   2   0 -14 356.851 51.3745  15
   2   0 -13 12.7992 22.9569  18
   2   0 -13-14.8438 31.2988  15
   2   0 -12 924.190 85.5495  20
   2   0 -12 1166.43 92.4620  18
   2   0 -12 1048.44 85.9269  14
   2   0 -11-38.2795 37.7249  14
   2   0 -11-81.6117 41.4445  20
   2   0 -11-32.9372 27.9618  18
   2   0 -10 45.5838 28.3775   5
   2   0 -10 82.8968 29.3936  18
   2   0 -10 29.0248 25.8368  14
   2   0 -10 61.0681 25.1783  20
   2   0  -9-44.4508 78.6542  34
   2   0  -8 4217.72 343.512  34
   2   0  -7 41.9951 50.5469  34
   2   0  -6 4238.03 293.477  34
   2   0  -5 15.8895 44.1962   4
  -2   0   5 67.0492 31.8871   3
   2   0  -5-31.9741 47.4470  34
   2   0  -4 15958.6 507.522  34
   2   0  -4 15844.4 510.197   4
   2   0  -3 24.1004 37.5795  33
   2   0  -3 31.0104 38.2087  34
   2   0  -2 9159.69 294.424  34
   2   0  -2 9287.82 288.036  33
  -2   0   1 47.0017 7.90522  36
   2   0  -1 6.85642 20.6326  33
   2   0   0 342.244 34.9387  28
   2   0   0 391.187 39.5294  33
   2   0   1 42.5114 24.7055   1
   2   0   2 1838.59 99.4459   1
  -2   0  -3 14.8068 38.0528  29
   2   0   3 19.0043 27.1352  31
  -2   0  -4 16393.5 512.607  29
  -2   0  -4 18934.1 524.191   2
  -2   0  -4 20276.3 415.636  32
   2   0   4 15894.2 467.947  31
  -2   0  -5 26.6487 54.5627  34
   2   0   5 14.3113 34.3834  31
  -2   0  -5-1.15750 38.9032   2
  -2   0  -6 7827.88 411.001  34
   2   0   6 7977.94 322.156  31
  -2   0  -6 7169.09 348.190   2
  -2   0  -6 7376.97 365.329  30
  -2   0  -7 80.6717 84.9835  34
  -2   0  -7-22.4789 51.9060   2
  -2   0  -7 96.7722 66.9728  30
  -2   0  -8 545.630 121.356  30
  -2   0  -8 814.550 160.286  34
  -2   0  -9 81.6041 64.5819  30
  -2   0  -9 38.0661 45.2702  34
  -2   0 -10 3387.47 166.377  20
  -2   0 -10 3497.14 170.475  18
  -2   0 -11-94.3223 43.6811  18
  -2   0 -11-68.2090 47.5701  20
  -2   0 -12-1.75272 30.9980  20
  -2   0 -12-29.7677 28.1475  18
  -2   0 -13 2.68070 29.4942  18
  -2   0 -14 1172.80 85.4991  18
  -2   0 -15-13.2550 15.8483  15
  -2   0 -15 1.68362 16.9695  18
   2   1 -15 5227.63 162.280  15
   2  -1 -15 5463.08 163.129  15
   2  -1 -14 943.044 77.2153  15
   2   1 -14 948.674 78.3399  15
   2  -1 -13 20.4165 31.7734  15
   2   1 -13 15.3012 21.8123  18
   2   1 -13-20.9935 32.2511  15
   2  -1 -12 986.557 85.1112  18
   2   1 -12 971.525 85.6357  18
   2  -1 -12 906.942 86.8539  20
   2  -1 -12 825.456 77.0378  14
   2   1 -12 1032.50 86.7482  14
   2  -1 -11 2112.33 131.534  20
   2   1 -11 1985.60 128.426  20
   2   1 -11 2010.80 121.884  14
   2  -1 -11 1966.26 121.653  14
   2   1 -11 2196.82 132.811  18
   2  -1 -11 2210.81 131.596  18
   2  -1 -10 5118.85 211.266   5
   2  -1 -10 5291.32 205.003  14
   2   1 -10 4768.43 203.226  20
   2   1 -10 5491.66 211.709  18
   2   1 -10 5021.66 207.409   5
   2   1 -10 5184.71 201.332  14
   2  -1 -10 4984.19 208.731  20
   2  -1 -10 5279.80 207.385  18
   2   1  -9 3677.27 343.605  34
   2  -1  -9 3637.35 342.319  34
   2  -1  -8 147.964 62.3482  34
   2   1  -8 155.011 73.6279  34
   2   1  -7 71.6006 51.6389  34
   2  -1  -7 190.821 57.7456  34
   2  -1  -6 2139.86 207.792  34
   2   1  -6 2269.83 213.724  34
   2  -1  -5 1277.06 149.792  34
   2   1  -5 1028.95 130.797  34
  -2   1   5 1240.48 102.307   3
  -2  -1   5 1201.98 108.802   3
   2   1  -5 1176.58 141.382   4
   2  -1  -5 1209.85 144.134   4
   2   1  -4 36305.7 881.676  34
   2  -1  -4 37664.1 894.602   4
   2   1  -4 36583.7 888.236   4
  -2  -1   4 37157.2 800.863   3
   2  -1  -4 38949.9 855.545  28
   2  -1  -4 36460.0 883.056  34
   2   1  -4 36161.8 843.337  33
   2   1  -3 33890.7 735.899  33
   2  -1  -3 32220.1 754.035  34
   2   1  -3 32170.3 753.197  34
   2   1  -2 10190.9 317.877  34
   2  -1  -2 10918.4 317.816  33
   2   1  -2 10354.9 306.431  33
   2  -1  -2 10590.4 322.519  34
  -2  -1   1 1997.06 78.5052   2
   2  -1  -1 2257.34 112.944  33
   2   1  -1 1915.02 104.327  33
   2  -1  -1 2063.34 116.075   1
   2  -1   0 15220.0 344.786  33
   2  -1   0 16041.0 347.978  28
   2  -1   0 16025.0 388.632   1
   2  -1   1 29752.8 643.992   1
  -2  -1  -1 30014.2 646.855   2
   2  -1   1 34046.2 568.478  33
   2   1   1 33942.6 628.692   1
   2  -1   2 7135.51 246.695  31
  -2   1  -2 6577.94 227.709  29
   2   1   2 6916.78 198.918   1
  -2   1  -3 19984.8 354.029  32
   2   1   3 20018.5 415.344   1
  -2  -1  -3 18861.5 503.329   2
  -2  -1  -3 16356.8 488.884  29
  -2   1  -3 20203.2 503.744  29
   2  -1   3 15363.6 462.163  31
   2  -1   4 5753.66 256.322  31
  -2  -1  -4 7260.72 297.426   2
  -2  -1  -4 5928.36 285.612  29
  -2  -1  -4 7186.06 231.671  32
  -2  -1  -5 32765.6 878.383  34
  -2   1  -5 26843.2 761.606   2
  -2  -1  -5 29151.2 791.225   2
  -2  -1  -5 37057.6 723.579  32
   2  -1   5 33196.3 785.573  31
  -2   1  -5 33285.3 883.512  34
  -2  -1  -6 1009.71 135.337  30
  -2  -1  -6 1193.27 163.242  34
   2  -1   6 1227.33 129.918  31
  -2   1  -6 1138.26 162.505  34
  -2   1  -6 1390.33 144.468   2
  -2   1  -6 1123.10 137.466  30
  -2   1  -7 49589.0 1328.79  34
  -2  -1  -7 50545.4 1335.22  34
  -2   1  -7 46032.0 1225.25  30
  -2   1  -7 53309.0 1239.81   2
  -2  -1  -7 50479.0 1221.90   2
  -2  -1  -7 46050.8 1235.80  30
  -2  -1  -8 4254.11 332.582  30
  -2   1  -8 4362.60 331.571  30
  -2   1  -8 4315.52 357.780  34
  -2  -1  -8 4945.18 383.196  34
  -2  -1  -9 2073.88 248.796  30
  -2   1  -9 1913.64 256.829  34
  -2  -1  -9 1957.77 256.390  34
  -2   1  -9 1608.73 217.664  30
  -2  -1 -10 3074.67 160.543  18
  -2  -1 -10 3214.80 161.346  20
  -2   1 -10 3407.82 167.047  18
  -2   1 -10 3048.50 157.002  20
  -2  -1 -11 1708.19 117.250  20
  -2  -1 -11 1673.60 120.138  18
  -2   1 -11 1850.88 126.564  18
  -2   1 -11 1824.77 120.373  20
  -2  -1 -12 506.281 63.1652  20
  -2   1 -12 474.686 65.1824  18
  -2  -1 -12 464.910 65.7050  18
  -2  -1 -13 2716.09 145.211  18
  -2   1 -13 2743.93 146.599  18
  -2   1 -14 27.1936 29.5307  18
  -2  -1 -14 8.36771 24.3910  18
  -2   1 -15 90.0556 23.6652  18
  -2  -1 -15 77.6479 23.8419  18
  -2  -1 -15 70.3810 18.9254  15
   2   2 -15 105.767 24.9257  15
   2  -2 -15 88.4140 24.5518  15
   2   2 -15 79.5082 23.5061  13
   2  -2 -14 275.235 44.4450  15
   2   2 -14 291.968 44.9409  15
   2  -2 -13 511.142 62.3511  14
   2   2 -13 482.486 64.9831  15
   2   2 -13 520.309 59.2499  18
   2  -2 -13 434.850 61.0047  15
   2  -2 -12 12.0959 27.1296  20
   2   2 -12 9.80367 32.0715  15
   2   2 -12-19.3741 24.2005  18
   2  -2 -12-39.3170 31.1363  14
   2  -2 -12 8.07677 21.5654  18
   2  -2 -11 7982.88 267.151  18
   2   2 -11 7748.63 266.020  18
   2  -2 -11 7194.62 261.303  20
   2   2 -11 7352.78 250.883  14
   2  -2 -11 7265.02 252.786  14
   2   2 -11 7359.27 263.726  20
   2  -2 -10 623.139 67.6680  14
   2   2 -10 615.645 70.3494  20
   2   2 -10 554.347 60.5429  14
   2   2 -10 830.942 79.0736  18
   2  -2 -10 688.727 70.6530  18
   2  -2 -10 719.545 76.2533  20
   2  -2 -10 609.766 70.7357   5
   2  -2  -9 133.869 74.0817  34
   2   2  -9 211.589 70.3139  34
   2   2  -8 523.920 125.667  34
   2  -2  -8 610.663 134.330  34
   2  -2  -7 4559.10 328.920  34
   2   2  -7 4535.60 329.148  34
   2  -2  -6 6988.83 377.228  34
   2   2  -6 6432.92 364.201  34
   2  -2  -5 9305.65 409.803   4
   2  -2  -5 9680.36 380.225  28
   2   2  -5 8993.45 404.136   4
   2  -2  -5 9860.45 415.622  34
  -2  -2   5 9676.76 353.678   3
   2   2  -5 9034.05 400.217  34
   2   2  -4 12802.2 420.897  33
   2  -2  -4 12938.4 292.565   2
   2  -2  -4 13146.2 452.944  34
   2   2  -4 13056.9 452.761   4
   2  -2  -4 13942.3 464.958   4
   2  -2  -4 13700.0 431.713  28
   2   2  -4 12001.2 438.202  34
  -2  -2   4 13597.5 407.826   3
   2  -2  -3 24.6602 40.4197  34
   2  -2  -3 25.6252 37.6242   4
   2   2  -3-31.5933 38.2835  34
   2  -2  -3 20.1066 28.8544  28
   2   2  -3 7.14665 29.6689  33
   2   2  -3 48.8529 30.8135   4
   2   2  -2 529.758 70.1093  34
   2   2  -2 396.627 56.8505  33
   2  -2  -2 414.718 63.3733  34
   2  -2  -2 484.210 67.6380   4
  -2   2   1 334.229 35.8118  36
   2  -2  -1 297.765 50.4642   1
  -2  -2   1 306.509 33.0424   2
   2  -2  -1 357.387 51.8908   4
  -2   2   0 70278.9 1286.91  36
   2  -2   0 77665.6 1366.80   1
  -2  -2  -1 763.952 71.2807   2
   2  -2   1 821.352 79.2505  31
   2  -2   2 41.1486 31.5495  31
   2   2   2 24.0931 24.5738   1
  -2  -2  -3 18944.7 533.145  29
   2   2   3 21120.6 398.368   1
  -2  -2  -3 19755.1 356.207  28
   2  -2   3 20112.0 524.743  31
  -2   2  -3 19907.1 498.457  29
  -2  -2  -4 267.087 65.5398   2
   2  -2   4 251.204 56.7741  31
  -2  -2  -4 173.830 60.7118  29
   2   2   4 191.027 27.0498   1
  -2  -2  -5 15433.6 434.338  32
   2  -2   5 15289.6 490.659  31
  -2  -2  -5 14721.1 537.218  34
  -2  -2  -5 15894.6 515.231   2
  -2   2  -5 13432.9 464.219  30
  -2   2  -5 12954.7 516.558  34
  -2  -2  -6 6530.02 338.411   2
  -2  -2  -6 7346.26 400.110  34
  -2   2  -6 7547.69 351.634   2
  -2   2  -6 7316.09 358.122  30
   2  -2   6 7918.33 350.613  31
  -2  -2  -7 7214.63 408.181  30
  -2   2  -7 8118.98 398.257   2
  -2  -2  -7 7678.35 445.989  34
  -2  -2  -7 8403.73 410.549   2
  -2   2  -7 7942.93 455.786  34
  -2   2  -7 7986.94 415.406  30
  -2  -2  -8 18.3303 70.0299  34
  -2   2  -8 6.98175 60.0771  34
  -2   2  -8 52.5328 40.8138  30
  -2  -2  -8 9.94616 41.8855  30
  -2   2  -9 1961.10 256.405  34
  -2  -2  -9 1368.71 204.125  30
  -2  -2  -9 1646.82 234.136  34
  -2  -2 -10 72.2178 30.5358  18
  -2   2 -10 112.895 34.4601  18
  -2   2 -10 77.9793 29.0729  20
  -2  -2 -10 63.3841 32.1741  20
  -2   2 -11 365.264 58.4963  20
  -2  -2 -11 371.868 54.1640  20
  -2  -2 -11 385.872 60.5222  18
  -2   2 -11 362.905 59.8645  18
  -2  -2 -12 343.025 54.4389  20
  -2   2 -12 302.795 54.7919  18
  -2  -2 -12 314.927 52.2227  18
  -2   2 -13 52.2895 33.1822  18
  -2  -2 -13 14.0806 28.3557  18
  -2   2 -14 2969.45 131.105  15
  -2  -2 -14 2937.89 135.296  18
  -2   2 -14 2815.87 134.404  18
  -2  -2 -15 1463.71 75.9748  15
  -2  -2 -15 1435.71 76.3368  18
   2  -3 -15 22.6263 16.4846  15
   2   3 -15 39.7628 20.4510  15
   2   3 -14 407.987 51.3994  15
   2  -3 -14 388.706 52.2247  15
   2  -3 -13 116.567 35.6353  20
   2   3 -13 180.228 44.8285  15
   2  -3 -13 123.627 36.6520  14
   2   3 -13 188.144 38.6709  18
   2  -3 -12 4713.97 203.391  20
   2   3 -12 4919.76 212.313  15
   2  -3 -12 4793.14 192.515  14
   2   3 -12 5005.21 203.581  18
   2  -3 -12 5195.24 203.537  18
   2   3 -11 3576.71 165.922  14
   2  -3 -11 3652.41 176.555  20
   2   3 -11 3755.02 177.218  18
   2  -3 -11 3705.71 173.707  18
   2  -3 -11 3698.11 171.468  14
   2  -3 -11 3612.43 178.257   5
   2  -3 -10 0.68674 24.1293  20
   2  -3 -10 16.9020 24.3366   5
   2   3 -10 0.30286 21.7645  18
   2   3 -10-30.4547 28.2755  14
   2   3 -10 31.9100 23.3844  20
   2  -3 -10-2.03782 21.5918  18
   2  -3  -9 891.020 170.464  34
   2   3  -9 1054.20 180.384  34
   2   3  -9 808.514 70.9178  14
   2  -3  -9 853.647 78.8168   5
   2  -3  -8 512.952 121.630  34
   2   3  -8 633.091 133.691  34
  -2  -3   7 8596.36 418.320  31
   2   3  -7 7445.04 429.990  34
   2  -3  -7 7791.99 439.068  34
   2   3  -6 381.344 96.7954  34
  -2  -3   6 361.719 75.4702   3
   2  -3  -6 334.546 91.0383  34
   2   3  -5 10965.6 405.957  33
   2  -3  -5 9477.90 415.683   4
  -2  -3   5 9765.11 375.775   3
   2   3  -5 9228.06 413.566   4
   2   3  -5 9675.45 417.530  34
   2  -3  -5 10236.0 401.655  28
   2  -3  -5 10314.4 428.291  34
   2  -3  -4 3531.46 206.879  28
   2   3  -4 3380.33 214.616   4
   2  -3  -4 3716.96 224.415   4
   2   3  -4 3369.76 214.271  34
   2  -3  -4 2931.14 204.324  34
   2   3  -4 3307.91 197.166  33
   2  -3  -4 3692.34 146.298   2
  -2  -3   4 3549.01 199.535   3
   2  -3  -3 10388.6 354.631   4
   2   3  -3 9804.19 344.638  34
  -2  -3   3 10240.3 336.995   3
   2  -3  -3 9084.35 335.678  34
   2   3  -3 9868.10 331.582  33
   2  -3  -3 10372.9 349.569  28
   2   3  -3 9665.74 344.653   4
  -2  -3   2 84281.3 1385.38   2
   2   3  -2 79286.9 1513.00  34
   2  -3  -2 87468.0 1533.40  34
   2  -3  -2 88653.1 1538.93   4
   2  -3  -2 82002.6 1511.68   1
  -2  -3   1 89394.6 1503.81   2
   2  -3  -1 98927.0 1582.30   4
   2  -3  -1 84219.7 1549.10  32
  -2   3   1 93500.7 1533.04  36
   2   3  -1 81486.2 1555.01   4
   2  -3  -1 86497.1 1572.56   1
   2  -3   0 46661.0 933.065   1
  -2   3   0 46409.3 880.642  36
   2  -3   0 46693.3 861.881  32
   2  -3   1 4554.62 194.162  31
  -2  -3  -1 4278.87 183.875   2
  -2  -3  -2 26594.8 593.891   2
   2  -3   2 25558.8 590.898  31
  -2  -3  -3 67591.8 1327.24  29
  -2  -3  -3 64272.1 1303.76   2
   2  -3   3 66936.9 1309.27  31
  -2  -3  -4 1024.20 121.988  29
  -2  -3  -4 955.298 113.309   2
  -2  -3  -4 1176.46 67.4090  28
   2  -3   4 1124.41 120.351  31
  -2   3  -4 927.190 96.1903  30
  -2  -3  -4 1125.50 125.236  34
  -2   3  -4 947.383 121.968  34
  -2   3  -5 15982.2 510.264  30
  -2  -3  -5 15203.7 556.622  29
   2  -3   5 17594.4 548.172  31
  -2  -3  -5 18470.3 602.319  34
  -2  -3  -5 15862.3 537.882   2
  -2   3  -5 16227.6 576.634  34
  -2  -3  -5 17429.0 497.020  32
  -2  -3  -6 6245.33 333.684   2
  -2  -3  -6 7076.26 307.520  32
   2  -3   6 6189.10 326.495  31
  -2   3  -6 7336.48 345.911   2
  -2   3  -6 6795.42 344.915  30
  -2   3  -6 6932.26 390.627  34
  -2  -3  -6 6863.48 386.543  34
  -2  -3  -7 107110. 2158.34   2
   2  -3   7 111937. 2150.04  31
  -2  -3  -7 107393. 2280.46  34
  -2   3  -7 106334. 2123.55   2
  -2   3  -7 103150. 2158.32  30
  -2   3  -7 107795. 2290.54  34
  -2  -3  -8 27861.8 980.425  34
  -2   3  -8 26842.2 968.907  34
  -2   3  -8 29075.2 919.410  30
  -2  -3  -9 167.214 38.0588  18
  -2   3  -9 375.965 124.365  34
  -2   3  -9 155.264 34.4144  18
  -2  -3  -9 330.592 107.902  30
  -2  -3  -9 195.126 87.7505  34
  -2  -3 -10 9963.30 322.106  18
  -2  -3 -10 10783.2 327.517  20
  -2   3 -10 10508.7 325.008  18
  -2   3 -10 10757.9 323.892  20
  -2   3 -11 13772.7 393.085  18
  -2  -3 -11 13997.4 397.938  18
  -2  -3 -11 14403.3 396.638  20
  -2  -3 -12 296.956 52.0203  20
  -2   3 -12 177.041 43.1600  18
  -2  -3 -12 232.993 48.5393  18
  -2  -3 -13 48.7228 32.4112  20
  -2   3 -13 4.85685 29.9720  18
  -2  -3 -13 41.5925 33.1550  18
  -2  -3 -14 60.3349 31.2182  18
  -2   3 -14 22.2371 28.9527  18
  -2   3 -14 17.5727 19.4216  15
  -2  -3 -15 125.952 25.2551  15
  -2  -3 -15 98.5918 25.1178  18
   2   4 -15 19.0018 17.7400  15
   2   4 -14 47.0285 25.7658  15
   2  -4 -14 12.4277 21.1290  15
   2  -4 -13 446.593 58.9967  20
   2  -4 -13 532.267 56.0083  14
   2   4 -13 459.525 62.8066  15
   2   4 -12-13.3259 31.3429  15
   2  -4 -12 58.2235 35.0588  20
   2  -4 -12-11.6930 31.6461  14
   2   4 -12 10.9683 24.0453  18
   2  -4 -11 2428.33 142.502  20
   2   4 -11 2977.85 149.503  14
   2   4 -11 2746.97 155.893  15
   2   4 -11 2764.48 150.053  18
   2  -4 -11 2504.80 147.860   5
   2  -4 -11 2610.12 141.695  14
   2  -4 -11 2679.21 145.158  18
   2  -4 -10 447.515 61.4808   5
   2   4 -10 413.203 56.3573  18
   2   4 -10 473.478 58.6521  14
   2  -4 -10 458.565 61.7910  20
   2   4  -9 36.5140 21.5945  14
   2   4  -9 147.671 35.7183  20
   2  -4  -9 92.5700 24.9116  20
   2  -4  -9 98.2094 30.7094  19
   2   4  -9-17.3687 70.3426  34
   2  -4  -9 58.1224 25.1137   5
   2  -4  -9 17.9401 45.6448  34
   2   4  -8 7015.05 450.705  34
   2  -4  -8 7545.36 463.349  34
   2   4  -7 91.8532 54.6630  34
  -2  -4   7 203.650 68.2662  31
   2  -4  -7 135.685 65.4434  34
   2  -4  -6 3496.91 265.915  34
   2   4  -6 3514.44 265.230  34
   2  -4  -6 3528.47 246.924  28
  -2  -4   6 3843.38 245.925   3
   2  -4  -5 150.834 58.1355  34
   2   4  -5 130.603 58.6326  34
  -2  -4   5 144.097 54.1799   3
   2   4  -5 110.668 52.0336   4
   2  -4  -5 208.904 66.1903  28
   2   4  -5 140.997 48.6679  33
   2  -4  -5 133.777 65.7518   4
  -2  -4   4 20630.0 577.126   3
   2   4  -4 19500.6 555.178  33
   2   4  -4 19276.0 588.896   4
   2  -4  -4 20621.2 601.358  32
   2  -4  -4 20503.4 481.112   2
   2  -4  -4 20996.0 589.896  28
   2   4  -4 20464.5 591.503  34
   2  -4  -4 20759.5 600.119   4
   2  -4  -4 20603.8 596.817  34
   2  -4  -3 20803.7 553.807  34
   2  -4  -3 22260.1 575.629  28
   2   4  -3 20234.8 554.800   4
   2  -4  -3 21757.0 567.235   4
   2  -4  -3 19976.7 474.904   2
   2   4  -3 21503.2 551.533  33
  -2  -4   3 20477.5 552.905   3
   2   4  -3 21646.4 557.601  34
   2  -4  -3 21696.7 576.503  32
   2   4  -2 195.689 47.5193  34
   2  -4  -2 177.932 42.2627   4
   2  -4  -2 176.116 44.5322   1
  -2  -4   2 176.564 50.9032   3
   2  -4  -2 168.494 44.6777  34
  -2  -4   2 201.556 31.0236   2
  -2   4   1 4824.96 188.264  36
   2   4  -1 4946.03 150.422  36
   2   4  -1 4654.27 188.666   4
   2  -4  -1 5389.35 212.422   1
   2  -4  -1 5336.73 196.600   4
  -2  -4   1 5460.50 216.594   3
  -2  -4   1 4771.62 176.165   2
  -2   4   0 122.033 34.8323  36
  -2  -4   0 156.996 42.5356   2
   2  -4   0 149.550 48.8323   1
   2  -4   0 122.770 37.5099  31
   2  -4   0 120.404 28.1615  32
   2  -4   1 16439.6 445.223  31
   2  -4   1 16550.6 334.287  32
  -2   4  -1 17009.2 322.736  29
  -2  -4  -1 16514.8 433.255   2
  -2  -4  -2 19594.9 446.606   3
   2  -4   2 20699.1 540.429  31
  -2  -4  -3 60.3256 20.8046   3
  -2   4  -3 125.493 35.2681  30
   2  -4   3 27.3679 40.6979  31
  -2  -4  -3 94.1913 48.1829   2
  -2  -4  -4 8548.45 371.902  29
  -2   4  -4 9127.66 317.417  30
  -2  -4  -4 10372.9 393.439  34
  -2  -4  -4 9588.29 376.075   2
   2  -4   4 9209.23 376.216  31
  -2  -4  -4 9699.76 259.454  28
  -2   4  -4 9319.80 379.664  34
  -2   4  -5 18608.7 631.005  34
  -2  -4  -5 19138.0 635.190  29
  -2  -4  -5 18935.4 629.877  34
  -2  -4  -5 20342.7 620.473   2
   2  -4   5 19906.7 619.447  31
  -2  -4  -5 20084.6 581.292  32
  -2   4  -5 20178.4 576.935  30
  -2   4  -6 88756.5 1850.33  30
  -2  -4  -6 94995.1 1819.67  32
  -2   4  -6 92545.6 1985.14  34
  -2  -4  -6 87033.5 1870.15   2
  -2  -4  -6 89698.8 1963.37  34
  -2   4  -7 13094.2 514.218   2
   2  -4   7 12033.7 513.384  31
  -2   4  -7 10970.4 546.670  34
  -2   4  -7 11507.8 499.911  30
  -2  -4  -7 11978.5 563.507  34
  -2  -4  -7 11417.0 507.372   2
  -2  -4  -7 10501.9 509.132  30
  -2  -4  -8 2477.93 262.525  30
  -2  -4  -8 2883.35 290.597  34
  -2   4  -8 2647.27 282.188  34
  -2  -4  -8 2501.31 241.340   2
  -2  -4  -9 1050.32 88.9935  18
  -2   4  -9 1031.42 85.3906  20
  -2  -4  -9 1092.36 192.634  34
  -2  -4  -9 1059.82 88.3732  20
  -2   4  -9 853.750 161.020  34
  -2   4  -9 1041.94 88.0051  18
  -2  -4 -10 12857.4 365.023  20
  -2   4 -10 12664.4 363.697  18
  -2  -4 -11 6917.51 255.215  20
  -2  -4 -11 6729.34 255.366  18
  -2   4 -11 6770.23 256.868  18
  -2  -4 -12 121.173 43.3111  18
  -2   4 -12 40.9620 25.1955  17
  -2   4 -12 116.443 46.7825  18
  -2  -4 -12 119.613 40.7141  20
  -2  -4 -13 472.446 58.6018  20
  -2   4 -13 483.677 61.9838  18
  -2  -4 -13 470.911 60.7471  18
  -2   4 -14-11.1120 24.7242  18
  -2   4 -14 40.8195 21.3930  15
  -2  -4 -14-0.04426 22.6559  18
  -2  -4 -15 2489.21 99.3497  15
  -2  -4 -15 2494.68 99.4149  18
   2   5 -14 273.723 43.3562  15
   2  -5 -14 291.889 43.0766  15
   2  -5 -13-43.1579 30.8419  20
   2   5 -13 2.25015 28.3119  15
   2  -5 -12 269.091 48.9673  20
   2   5 -12 294.936 55.4858  15
   2  -5 -12 202.179 43.0496  14
   2   5 -12 238.291 47.1961  18
   2  -5 -11 724.689 78.4898  20
   2  -5 -11 694.283 71.1551  14
   2   5 -11 669.850 78.1372  15
   2  -5 -11 683.206 79.7048   5
   2   5 -11 745.289 78.0188  18
   2  -5 -10 506.321 65.6764   5
   2   5 -10 620.687 72.5774  14
   2   5 -10 472.935 60.5016  18
   2  -5 -10 525.087 65.6160  20
   2  -5  -9 25.8873 27.3872  20
   2  -5  -9 43.6358 25.4742   5
   2   5  -9-15.6842 27.4497  14
   2  -5  -9 18.9250 22.0935  19
   2   5  -9 3.36639 17.8845  18
   2   5  -8 2922.46 286.616  34
   2  -5  -8 3067.09 290.013  34
  -2  -5   7 15996.5 639.164  31
   2   5  -7 14920.2 633.525  34
   2   5  -6 20235.5 640.343  33
   2  -5  -6 19166.5 666.941  34
   2   5  -6 17819.8 649.336  34
   2  -5  -6 17761.5 620.740  28
  -2  -5   6 19699.3 641.927   3
   2  -5  -5 3605.09 248.973  32
  -2  -5   5 4133.79 255.231   3
   2  -5  -5 3375.30 232.407  28
   2   5  -5 3876.96 256.656   4
   2   5  -5 3995.47 238.613  33
   2   5  -5 3955.12 254.446  34
   2  -5  -5 4129.63 260.475  34
   2  -5  -5 3690.97 251.231   4
   2   5  -4 1853.25 153.905  34
   2  -5  -4 1802.97 125.006   2
  -2  -5   4 1714.90 152.928   3
   2  -5  -4 1701.71 153.964  28
   2  -5  -4 1793.76 154.579   4
   2  -5  -4 1839.07 155.689  34
   2  -5  -4 2006.37 170.305  32
   2   5  -4 1650.80 140.404  33
   2   5  -4 1738.67 151.984   4
   2  -5  -3 23192.8 613.749  34
  -2  -5   3 24603.1 648.895   3
   2  -5  -3 26089.3 610.090   1
   2  -5  -3 26146.9 640.657   4
   2  -5  -3 26765.2 668.020  28
   2  -5  -3 24249.7 575.746   2
   2   5  -3 23497.1 622.544   4
   2   5  -3 27329.2 641.479  34
   2  -5  -3 24830.1 658.214  32
   2   5  -3 25517.9 626.483  33
   2  -5  -2 12360.7 356.551   4
   2  -5  -2 11935.9 352.891  34
  -2  -5   2 12182.1 387.493   3
   2  -5  -2 12550.7 367.137   1
   2   5  -2 12121.6 352.628  34
  -2  -5   2 10931.2 301.943   2
   2  -5  -2 12081.4 380.405  32
   2   5  -1 26533.6 553.960  36
   2  -5  -1 27685.8 588.838   4
   2  -5  -1 27697.4 638.164   1
  -2  -5   1 30195.7 660.949   3
  -2   5   1 26963.7 616.421  36
   2   5  -1 26032.5 589.334   4
  -2  -5   1 30171.8 612.322   2
  -2   5   0 549.375 68.9817  36
   2  -5   0 630.232 61.7264  32
  -2  -5   0 601.486 72.6156   3
   2  -5   0 672.794 76.0342  31
  -2  -5  -1 20887.5 506.172   2
  -2   5  -1 19641.9 478.674  36
  -2  -5  -1 19606.9 459.138   3
   2  -5   2 2025.23 67.2014  32
   2  -5   2 2679.50 174.350  31
  -2  -5  -2 2345.95 122.948   3
  -2   5  -2 2402.20 91.8711  30
  -2  -5  -2 1946.72 146.768   2
  -2   5  -3 88.9777 27.5654  30
   2  -5   3-5.79126 45.6172  31
  -2  -5  -3 49.7929 55.8156  29
  -2  -5  -3 26.5458 17.6257   3
  -2  -5  -3 66.1136 44.9297   2
  -2  -5  -4 2430.48 187.092   2
  -2   5  -4 2783.52 196.798  34
  -2  -5  -4 2037.09 179.860  29
   2  -5   4 2340.27 185.431  31
  -2  -5  -4 2436.62 182.615  34
  -2   5  -4 2125.73 138.909  30
   2  -5   5 4420.87 277.375  31
  -2  -5  -5 4744.28 288.515  34
  -2   5  -5 4312.99 276.236  34
  -2  -5  -5 4636.12 293.046  29
  -2  -5  -5 4803.79 282.989   2
  -2   5  -5 4863.62 248.430  30
  -2   5  -6 70041.5 1506.01  30
  -2  -5  -6 71531.3 1575.36   2
  -2   5  -6 70157.7 1635.86  34
   2  -5   6 75229.6 1611.16  31
  -2  -5  -6 74475.0 1648.43  34
  -2  -5  -6 69545.7 1508.72  32
  -2  -5  -7 5182.06 360.111  34
  -2   5  -7 5159.58 314.470   2
   2  -5   7 4658.85 319.317  31
  -2  -5  -7 5308.83 338.527   2
  -2   5  -7 4501.83 343.930  34
  -2   5  -8 3663.63 331.705  34
  -2  -5  -8 3656.22 297.465   2
  -2  -5  -8 3842.39 327.892  30
  -2  -5  -8 4189.99 350.511  34
  -2  -5  -9 575.941 67.8506  20
  -2   5  -9 556.472 67.0164  18
  -2  -5 -10 5109.63 214.272  20
  -2   5 -10 5232.64 215.409  18
  -2  -5 -10 4956.76 213.269  18
  -2  -5 -11 21274.9 518.339  20
  -2   5 -11 20913.6 520.378  18
  -2  -5 -11 20643.3 519.730  18
  -2  -5 -12 5920.05 229.028  20
  -2  -5 -12 5746.68 229.114  18
  -2   5 -12 6094.00 226.416  17
  -2   5 -12 5638.13 228.960  18
  -2   5 -13 97.6825 32.2806  21
  -2  -5 -13 83.1904 34.0072  20
  -2  -5 -13 112.577 36.3291  18
  -2   5 -13 129.612 42.7036  18
  -2   5 -13 144.259 34.9292  15
  -2  -5 -14 513.459 57.1985  18
  -2   5 -14 483.978 50.6503  15
   2  -6 -14 1607.35 91.9658  15
   2   6 -14 1791.95 100.276  13
   2   6 -14 1772.03 99.1338  15
   2  -6 -14 2015.88 91.7383  14
   2  -6 -13-1.69585 23.7130  14
   2  -6 -13-6.69480 26.1983  20
   2   6 -13 16.0467 27.5385  15
   2  -6 -12 622.536 71.5374  20
   2   6 -12 684.032 77.3373  15
   2  -6 -12 688.301 71.9422  14
   2  -6 -11 1403.85 110.538   5
   2   6 -11 1443.78 107.814  18
   2   6 -11 1494.98 113.482  15
   2  -6 -11 1438.35 109.133  20
   2  -6 -10 2549.07 144.452  20
   2   6 -10 2931.01 149.351  14
   2   6 -10 2481.83 141.963  18
   2  -6 -10 2491.90 146.230   5
   2   6 -10 2459.77 146.698  15
   2  -6  -9 7970.87 263.050  19
   2   6  -9 7481.29 252.678  18
   2   6  -9 6799.99 232.661  14
   2  -6  -9 7585.45 257.934  20
   2  -6  -9 7318.43 259.983   5
   2  -6  -8 43.5854 64.9022  34
   2   6  -8-5.35230 49.3203  34
   2  -6  -7 7284.00 427.822  34
  -2  -6   7 8200.22 451.501  31
   2  -6  -7 7676.70 412.918  28
   2   6  -7 7590.50 434.426  34
   2  -6  -6 935.919 136.701  34
   2   6  -6 1145.11 141.073  33
   2  -6  -6 912.551 131.154  28
   2   6  -6 793.977 126.236  34
  -2  -6   6 1040.65 137.271   3
  -2  -6   5 158.237 60.9560   3
   2  -6  -5 114.892 56.6380  30
   2   6  -5 145.833 59.4985  34
   2  -6  -5 113.895 65.3075  32
   2   6  -5 173.375 47.0507  33
   2  -6  -5 190.349 59.3080  34
   2   6  -4 219.396 55.0426  33
   2   6  -4 205.233 58.7976   4
   2  -6  -4 173.754 50.8866  34
   2  -6  -4 262.993 71.2453  32
   2  -6  -4 216.795 60.3524   4
  -2  -6   4 353.493 77.0739   3
   2  -6  -4 242.867 72.0751  28
   2  -6  -4 264.717 54.5523   2
   2   6  -4 274.718 65.4061  34
   2  -6  -3 5064.70 240.056  34
   2  -6  -3 5646.70 239.919   2
   2  -6  -3 5720.39 255.098   4
   2  -6  -3 5165.81 239.782  30
  -2  -6   3 5368.91 269.799   3
   2  -6  -3 5754.97 242.793   1
   2  -6  -3 4983.97 262.294  32
   2   6  -3 5253.98 245.664   4
   2   6  -3 5189.93 238.498  34
  -2  -6   2 1714.87 112.026   2
  -2  -6   2 2017.36 153.852   3
   2  -6  -2 1849.52 123.296   4
   2  -6  -2 1756.19 130.241   1
   2  -6  -2 1979.75 146.312  32
   2   6  -1 8304.36 261.479  36
   2   6  -1 7904.22 259.761   4
  -2  -6   1 8826.84 291.785   2
   2  -6  -1 8957.25 313.071   1
  -2  -6   1 9295.63 328.248   3
  -2   6   1 8804.77 306.845  36
   2  -6  -1 9606.13 273.370   4
  -2  -6   0 110209. 2263.43   2
   2  -6   0 128261. 2245.40  32
   2  -6   0 137081. 2307.33  31
  -2  -6   0 157587. 2352.59   3
  -2   6   0 135509. 2306.67  36
  -2  -6  -1 3447.73 191.308   2
  -2   6  -1 4003.22 196.207  36
  -2  -6  -1 3565.36 176.200   3
   2  -6   1 3333.19 191.981  31
   2  -6   2 6794.86 291.119  35
   2  -6   2 6375.53 290.636  31
  -2  -6  -2 6381.67 282.954   2
  -2  -6  -2 6341.18 232.686   3
  -2  -6  -3 687.142 64.5416   3
  -2  -6  -3 754.654 107.118  29
   2  -6   3 567.785 93.6992  35
   2  -6   3 691.903 107.323  31
  -2   6  -3 695.675 62.2428  30
  -2  -6  -3 720.852 101.002   2
  -2   6  -4 4196.36 193.991  30
  -2  -6  -4 3789.33 248.466  29
  -2  -6  -4 3991.98 250.094   2
  -2  -6  -4 4151.85 242.880  34
  -2   6  -4 3937.28 242.550  34
   2  -6   5 4295.11 281.552  31
  -2  -6  -5 4042.00 267.881  34
  -2  -6  -5 3904.26 260.309   2
  -2  -6  -5 4141.48 282.164  29
  -2   6  -5 3997.42 267.945  34
  -2  -6  -6 12148.1 528.193  34
   2  -6   6 12655.5 530.431  31
  -2  -6  -6 10987.6 489.975   2
  -2   6  -6 12635.6 544.561  34
  -2  -6  -6 11935.9 484.073  32
  -2  -6  -7 4960.33 355.929  34
  -2   6  -7 4939.12 357.912  34
   2  -6   7 5268.85 350.425  31
  -2  -6  -7 4178.84 320.008  30
  -2  -6  -7 5008.29 338.091   2
  -2   6  -8 1030.20 173.026  34
  -2  -6  -8 848.342 156.643  30
  -2  -6  -8 1036.39 161.232   2
  -2  -6  -8 1256.51 189.884  34
  -2  -6  -9 4568.17 193.609  20
  -2   6  -9 4404.68 189.629  18
  -2  -6 -10 5489.65 221.091  20
  -2  -6 -10 4980.79 215.831  18
  -2   6 -10 5494.77 222.135  18
  -2  -6 -11 4033.54 191.782  18
  -2   6 -11 4032.57 186.424  17
  -2   6 -11 3905.10 188.804  18
  -2  -6 -11 3926.17 187.784  20
  -2  -6 -12 64.1693 35.6777  20
  -2  -6 -12 112.802 48.8822  18
  -2   6 -12 67.6099 31.3788  17
  -2   6 -12 57.0452 39.6323  18
  -2   6 -13 410.758 57.9225  21
  -2  -6 -13 382.953 56.3555  20
  -2   6 -13 377.311 50.1297  15
  -2  -6 -13 387.284 59.4525  18
  -2   6 -13 375.431 56.3225  18
  -2  -6 -14 3245.82 135.702  18
  -2   6 -14 2942.27 130.991  13
  -2   6 -14 2889.94 117.493  15
   2  -7 -14 287.665 38.9140  15
   2   7 -14 305.045 43.5714  15
   2   7 -14 328.444 43.9844  13
   2   7 -13 63.8694 34.6443  15
   2  -7 -13 28.3799 30.5669  20
   2  -7 -13 28.6321 23.4227  14
   2  -7 -12 769.999 79.1390  20
   2  -7 -12 893.667 76.4315  14
   2   7 -12 928.134 89.2916  15
   2  -7 -11 1359.90 107.749   5
   2  -7 -11 1310.58 104.415  20
   2   7 -11 1469.81 107.673  18
   2   7 -11 1437.43 111.288  15
   2   7 -10 3128.93 161.815  18
   2  -7 -10 2959.90 157.919  20
   2  -7 -10 2746.08 156.562   5
   2   7 -10 3150.06 165.918  15
   2  -7  -9 88.1770 32.5128  20
   2  -7  -9 89.6868 32.9775   5
   2  -7  -9 157.837 43.1262  19
   2   7  -9 99.5011 31.3735  18
   2   7  -9 107.253 36.0227  15
   2  -7  -8 989.469 162.639  34
  -2  -7   8 930.348 161.584  31
   2   7  -8 962.383 164.201  34
   2   7  -7 21431.2 785.687  34
   2  -7  -7 21786.8 765.445  28
  -2  -7   7 23246.9 831.896  31
   2   7  -6 2398.17 204.890  33
   2  -7  -6 1888.83 203.385  32
   2   7  -6 1939.34 197.634  34
   2  -7  -6 2400.28 214.737  28
  -2  -7   6 2155.54 213.165   3
   2  -7  -6 2372.87 216.725  34
   2   7  -5 1328.59 141.792  33
   2  -7  -5 1368.38 151.388  34
   2  -7  -5 1304.77 152.236  30
   2  -7  -5 1297.88 152.077  28
   2  -7  -5 1488.25 168.565  32
   2   7  -5 1149.31 138.432  34
  -2  -7   5 1375.82 160.397   3
  -2  -7   4 14.6650 39.6021   3
   2   7  -4 30.2356 40.9741   4
   2   7  -4 69.2823 39.0582  34
   2  -7  -4 139.765 56.9747  32
   2  -7  -4 104.792 45.1316  30
   2   7  -4 68.0401 43.8802  33
   2  -7  -4 21.2412 35.1794  34
   2  -7  -4 131.129 42.1655   2
   2  -7  -4 46.1170 49.0977  28
   2  -7  -4 6.65656 33.3375   4
   2  -7  -3 32204.3 753.938   1
   2  -7  -3 34303.5 785.543   2
   2  -7  -3 35063.5 778.652  34
   2  -7  -3 33741.2 842.564  32
   2   7  -3 31650.2 764.814   4
  -2  -7   3 33943.4 855.533   3
   2  -7  -3 34112.2 780.104   4
   2  -7  -3 31037.0 758.611  30
   2   7  -3 33254.3 765.534  34
   2  -7  -2 162.947 52.0695   4
  -2  -7   2 117.415 56.3853   3
   2  -7  -2 315.141 80.1960  32
  -2  -7   2 198.037 49.2520   2
   2  -7  -2 161.363 66.6246   1
  -2   7   1 2.42954 33.9230  36
   2   7  -1-19.2588 20.7595   4
   2  -7  -1 40.8714 31.6632  31
  -2  -7   1-34.0080 35.5611   2
   2  -7  -1 93.5679 30.6940   4
   2  -7  -1-12.0637 41.3838   1
   2  -7  -1 82.9616 40.2602  32
   2   7  -1 36.4893 22.1281  36
  -2  -7   1 39.4044 37.9567   3
   2   7   0 9913.88 287.119   4
  -2  -7   0 9635.34 348.806   3
   2  -7   0 11165.4 294.642   4
   2   7   0 10229.1 323.299  36
  -2  -7   0 11172.8 364.904   2
   2  -7   0 9573.52 339.189  31
  -2   7   0 10179.5 353.747  36
   2  -7   1 839.080 104.910  31
  -2   7  -1 923.454 101.009  36
  -2  -7  -1 955.455 98.7682   3
  -2  -7  -1 926.637 109.309   2
   2  -7   2 4167.70 241.234  31
   2  -7   2 4416.58 247.353  35
  -2  -7  -2 4099.23 195.351   3
  -2  -7  -2 4077.15 241.086   2
  -2  -7  -3 2026.56 149.700  34
  -2  -7  -3 2265.19 131.765   3
  -2  -7  -3 2154.92 173.742  29
   2  -7   3 2160.84 174.406  35
   2  -7   3 1938.32 174.730  31
  -2  -7  -3 1781.44 163.052   2
  -2  -7  -4 229.147 72.2053  34
  -2  -7  -4 259.450 69.0034  29
  -2   7  -4 272.725 68.9822  34
  -2  -7  -4 205.738 68.9216   2
   2  -7   4 336.821 81.5783  31
   2  -7   4 292.782 72.6707  35
  -2  -7  -5 462.144 103.179  29
  -2  -7  -5 427.861 89.2226  34
  -2  -7  -5 601.324 105.367   2
   2  -7   5 452.889 100.911  31
  -2   7  -5 469.173 96.1606  34
  -2  -7  -6 6467.24 375.606  34
  -2  -7  -6 6611.78 376.778   2
  -2  -7  -6 6797.94 365.748  32
  -2   7  -6 5745.49 361.070  34
   2  -7   6 6433.68 381.086  31
  -2  -7  -7 14957.3 591.388  32
  -2  -7  -7 15805.2 660.412  34
  -2  -7  -7 15868.7 639.906   2
   2  -7   7 13802.9 615.862  31
  -2   7  -7 14500.3 642.719  34
  -2  -7  -8 1168.30 189.410  34
  -2   7  -8 1020.83 177.545  34
  -2  -7  -8 1253.36 191.693  30
   2  -7   8 1071.67 166.537  31
  -2  -7  -8 1253.20 180.448   2
  -2   7  -9 4193.54 187.410  18
  -2  -7  -9 4372.51 191.014  20
  -2  -7 -10 5484.58 226.630  18
  -2  -7 -10 6010.33 233.193  20
  -2   7 -10 5462.72 224.851  17
  -2   7 -10 5797.63 229.295  18
  -2  -7 -11 1827.24 123.514  20
  -2   7 -11 1606.61 117.028  17
  -2  -7 -11 1747.47 124.186  18
  -2   7 -11 1818.23 125.519  18
  -2  -7 -12 732.239 78.7915  18
  -2   7 -12 820.785 82.9280  18
  -2   7 -12 784.064 76.9216  17
  -2   7 -12 783.944 74.0506  15
  -2  -7 -12 723.703 76.4111  20
  -2  -7 -13 850.101 82.2260  20
  -2   7 -13 1004.21 82.3300  21
  -2   7 -13 877.518 72.6211  15
  -2   7 -13 912.649 82.4793  18
  -2  -7 -13 818.250 79.3064  18
  -2  -7 -14 564.187 56.5401  18
  -2   7 -14 586.314 58.1004  13
   2  -8 -14 328.710 38.5849  15
   2   8 -14 359.501 44.4890  13
   2   8 -14 331.399 41.9712  15
   2  -8 -13 1754.08 106.742  20
   2   8 -13 1795.35 110.266  15
   2   8 -13 1851.41 112.664  13
   2  -8 -13 1681.53 95.5985  14
   2  -8 -12 363.518 56.3072  20
   2   8 -12 475.178 63.8260  15
   2  -8 -12 395.397 53.3352  14
   2  -8 -11 991.214 92.9805   5
   2   8 -11 924.471 89.0535  15
   2  -8 -11 854.536 83.4289  20
   2   8 -10 1412.34 109.866  21
   2  -8 -10 1386.61 106.074  19
   2   8 -10 1351.34 103.236  18
   2  -8 -10 1295.90 102.929  20
   2  -8 -10 1408.83 109.305   5
   2   8 -10 1376.29 107.913  15
   2   8  -9 1630.88 111.190  18
   2  -8  -9 1475.85 111.138   5
   2  -8  -9 1488.12 108.074  19
   2   8  -9 1498.46 111.636  21
   2  -8  -9 1305.88 102.462  20
   2   8  -9 1418.30 106.583  15
   2   8  -8 498.519 116.143  34
   2  -8  -8 733.060 138.398  28
   2  -8  -8 482.162 114.561  34
  -2  -8   8 536.323 118.110  31
   2  -8  -7-2.43275 49.1460  28
  -2  -8   7 42.5382 51.0224  31
   2   8  -7 33.6725 48.1898  34
   2  -8  -7 101.708 63.6566  34
  -2  -8   6 3962.10 300.377   3
   2  -8  -6 3493.26 268.046  28
   2   8  -6 3501.26 265.564  34
   2   8  -6 3922.06 266.796  33
   2  -8  -6 3667.21 271.751  34
   2  -8  -6 3387.38 279.693  32
   2  -8  -5 8170.18 362.088   2
   2  -8  -5 9582.98 413.386  34
   2   8  -5 10180.1 416.694  33
   2  -8  -5 9053.49 424.436  28
   2  -8  -5 9323.00 443.828  32
  -2  -8   5 9283.25 448.417   3
   2   8  -5 9819.68 417.321  34
   2  -8  -5 9826.76 432.248  30
  -2  -8   4 3122.61 236.800   3
   2  -8  -4 3280.07 217.241  30
   2  -8  -4 2899.67 199.471   2
   2   8  -4 2745.69 196.068   4
   2  -8  -4 3027.59 231.882  32
   2  -8  -4 2993.41 204.478  34
   2   8  -4 3221.48 206.018  34
   2   8  -4 3580.18 221.127  33
   2  -8  -3 32839.8 812.220   2
   2  -8  -3 34336.1 786.398   4
   2  -8  -3 33040.8 778.253  30
   2   8  -3 32802.0 777.623   4
   2  -8  -3 33935.4 872.328  32
   2  -8  -3 34322.0 780.902  34
   2  -8  -3 31560.4 769.140   1
  -2  -8   3 33552.4 884.405   3
   2  -8  -2 8888.32 367.965  32
  -2  -8   2 10302.6 346.469   2
   2  -8  -2 10279.2 360.476   1
   2  -8  -2 10742.3 325.005   4
  -2  -8   2 9050.05 386.714   3
  -2  -8   1 38831.0 880.485   2
   2  -8  -1 40204.0 898.281   1
   2   8  -1 40054.3 856.374  36
   2  -8  -1 40305.5 855.908  31
   2  -8  -1 42480.5 784.121   4
   2   8  -1 37102.9 772.430   4
  -2  -8   1 36522.6 916.515   3
   2  -8  -1 37988.4 892.263  32
  -2   8   1 45082.5 944.670  36
   2  -8   0 2518.37 120.665   4
   2  -8   0 2353.59 161.568  31
   2   8   0 2446.66 123.524   4
  -2   8   0 2201.07 164.928  36
   2   8   0 2189.43 146.738  36
  -2  -8   0 2793.59 182.247   2
  -2  -8   0 2110.46 162.292   3
   2  -8   1 13675.8 456.530  31
  -2  -8  -1 13946.3 464.168   2
   2  -8   1 12806.3 468.719  35
  -2   8  -1 13145.1 438.982  36
   2  -8   2 2743.47 200.822  31
  -2  -8  -2 2182.99 183.838   2
   2  -8   2 2064.79 178.113  35
  -2  -8  -2 2850.96 171.085   3
  -2  -8  -3 648.465 77.1461   3
  -2  -8  -3 774.310 111.751  29
  -2  -8  -3 503.595 96.8027   2
   2  -8   3 817.068 116.871  35
  -2  -8  -3 654.265 86.1341  34
  -2   8  -3 742.941 92.8023  34
   2  -8   3 614.197 103.157  31
  -2  -8  -4 14407.7 488.010  34
  -2  -8  -4 13869.8 527.313  29
   2  -8   4 14523.3 554.544  31
  -2   8  -4 12591.8 474.568  34
  -2  -8  -4 14052.3 532.261   2
   2  -8   4 14731.2 527.681  35
  -2  -8  -5 32.5678 41.4448  34
  -2   8  -5 39.4092 47.7134  34
  -2  -8  -5 74.2737 55.9894   2
   2  -8   5 128.800 63.7869  31
  -2  -8  -5 113.621 55.6376  29
  -2  -8  -6 21430.2 721.096  34
  -2  -8  -6 18084.7 685.554   2
  -2   8  -6 18188.8 685.513  34
   2  -8   6 20572.6 745.235  31
  -2  -8  -6 18902.2 682.965  32
  -2  -8  -7 165.185 69.3118  34
  -2  -8  -7 223.524 84.9532  32
  -2  -8  -7 147.597 71.4976   2
  -2   8  -7 179.094 67.1302  34
   2  -8   7 84.7464 61.5934  31
  -2  -8  -8 23.6209 41.1233   2
  -2  -8  -8 31.2482 46.2644  34
  -2   8  -8 29.0317 46.5146  34
  -2  -8  -8 116.588 74.9669  30
   2  -8   8-17.8323 39.6853  31
  -2   8  -9 378.485 55.5449  18
  -2  -8  -9 342.061 55.2094  20
  -2  -8 -10 187.057 44.4106  20
  -2   8 -10 209.249 47.2768  17
  -2   8 -10 232.837 47.6495  18
  -2  -8 -11 38.9921 27.5827  20
  -2  -8 -11 75.2687 37.7460  18
  -2   8 -11 17.8326 39.0941  18
  -2   8 -11 6.36180 22.7975  17
  -2  -8 -12 117.500 40.7275  20
  -2   8 -12 113.916 41.4795  18
  -2   8 -12 67.9550 29.5070  17
  -2  -8 -12 48.3520 33.9841  18
  -2  -8 -13 6491.79 224.413  18
  -2   8 -13 6531.17 224.106  21
  -2  -8 -13 6364.21 218.795  20
  -2   8 -13 6914.04 230.237  13
  -2  -8 -14 359.897 43.1222  20
  -2   8 -14 362.546 44.6153  13
  -2  -8 -14 368.378 45.7824  18
   2   9 -14 351.819 42.7254  13
   2   9 -14 305.861 38.6172  15
   2  -9 -14 263.897 32.0676  15
   2   9 -13 5.64484 25.0528  13
   2  -9 -13 21.0520 26.3160  20
   2   9 -13 25.4857 27.5359  15
   2  -9 -13-19.4412 26.9586  14
   2   9 -12 1625.22 112.280  15
   2  -9 -12 1670.09 111.588  20
   2  -9 -12 1620.76 102.423  14
   2   9 -11 792.348 79.6320  21
   2   9 -11 726.045 79.0296  15
   2  -9 -11 617.533 73.0628  20
   2  -9 -11 714.131 79.9549   5
   2  -9 -10 148.298 38.3257  20
   2  -9 -10 119.333 38.6860   5
   2  -9 -10 146.930 37.3184  19
   2   9 -10 193.429 45.6758  15
   2   9 -10 225.913 46.4005  21
   2  -9  -9 640.112 71.6908  20
   2   9  -9 576.275 70.9555  21
   2  -9  -9 558.509 67.5667  19
   2   9  -9 559.140 67.7643  15
   2  -9  -9 586.673 69.2459   5
   2  -9  -8 495.827 63.2253   5
   2  -9  -8 546.434 63.7097  19
   2  -9  -8 354.589 92.2869  28
  -2  -9   8 360.607 114.313  31
   2  -9  -7 60.0573 69.3324  28
   2  -9  -7 0.78380 46.0173  34
  -2  -9   7-1.18194 49.6752  31
   2   9  -7 0.79142 38.7617  34
  -2  -9   6 1509.62 195.489   3
   2  -9  -6 1222.12 160.217  34
   2   9  -6 1422.51 165.368  33
   2  -9  -6 1199.66 170.331  32
   2   9  -6 1211.63 158.322  34
   2  -9  -5 25264.7 740.768  34
   2  -9  -5 25655.5 767.361  30
   2  -9  -5 24055.7 716.544   2
   2   9  -5 27168.2 754.635  34
   2  -9  -5 23387.8 769.213  28
   2  -9  -5 23310.3 787.055  32
   2   9  -5 23995.1 730.511  33
  -2  -9   5 25972.6 835.061   3
   2  -9  -4 24108.0 683.040  30
   2  -9  -4 23053.5 681.820   2
   2  -9  -4 23662.7 658.198  34
   2   9  -4 24321.5 661.104  34
   2  -9  -4 22719.3 738.254  32
  -2  -9   4 25825.1 789.732   3
   2  -9  -3 17057.8 481.265   4
   2  -9  -3 14641.6 539.301  32
   2   9  -3 15967.7 470.080   4
   2  -9  -3 14681.5 460.626  30
   2  -9  -3 16639.0 491.690   1
  -2  -9   3 15646.9 570.762   3
  -2   9   2 509.447 88.4367  36
   2  -9  -2 409.248 73.2083   1
   2   9  -2 284.835 58.9539  36
  -2  -9   2 350.556 83.4204   3
   2  -9  -2 480.890 88.1712  32
   2  -9  -2 616.799 68.7358   4
  -2  -9   2 368.428 69.5527   2
   2   9  -1 3073.24 185.090  36
   2  -9  -1 3298.90 140.409   4
   2   9  -1 2980.97 137.885   4
   2  -9  -1 3054.34 180.262  31
  -2  -9   1 3416.35 208.034   2
  -2  -9   1 2513.99 196.905   3
   2  -9  -1 3077.85 198.360   1
  -2   9   1 3197.25 212.004  36
   2  -9   0 1607.33 88.4835   4
   2   9   0 1516.09 130.446  36
   2  -9   0 1551.94 135.169  31
  -2   9   0 1568.50 144.671  36
  -2  -9   0 1622.71 147.884   2
  -2  -9   0 1500.93 142.746   3
   2   9   0 1472.94 88.6949   4
   2  -9   1 12978.8 493.660  35
   2  -9   1 14503.6 493.491  31
  -2  -9  -1 13860.3 467.301   3
  -2  -9  -1 15470.4 513.703   2
   2  -9   2 690.311 115.168  35
  -2  -9  -2 608.678 104.128   2
   2  -9   2 659.085 106.309  31
  -2  -9  -2 768.785 97.2776   3
  -2  -9  -3 5537.58 249.200  34
  -2  -9  -3 4755.16 279.442  29
  -2  -9  -3 5219.56 238.916   3
  -2  -9  -3 4962.41 297.161   2
   2  -9   3 4370.96 287.405  31
   2  -9   3 4532.09 285.854  35
  -2   9  -3 4759.27 237.375  34
  -2   9  -4 4298.57 252.337  34
  -2  -9  -4 4684.14 261.660  34
   2  -9   4 3983.98 287.558  31
  -2  -9  -4 4151.37 279.074  29
   2  -9   4 4362.37 285.114  35
  -2  -9  -4 4412.67 292.444   2
   2  -9   5 12859.8 516.206  35
  -2   9  -5 11760.8 479.820  34
  -2  -9  -5 10859.7 501.100  29
   2  -9   5 11075.9 518.550  31
  -2  -9  -5 11212.2 462.814  34
  -2   9  -6 19592.6 704.924  34
  -2  -9  -6 20106.5 700.213  34
  -2  -9  -6 18826.4 702.439  32
  -2  -9  -6 20224.1 733.583   2
  -2   9  -7 85.9150 72.0904  34
  -2  -9  -7 77.0706 63.0767  34
  -2  -9  -7 17.6222 47.8976  32
  -2  -9  -7 43.0198 42.7394   2
   2  -9   7-87.5963 62.2402  31
  -2   9  -8 1956.17 120.904  17
  -2  -9  -8 1886.44 241.832  30
  -2  -9  -8 1579.60 211.479   2
   2  -9   8 1863.92 235.363  31
  -2   9  -8 2034.95 121.077  18
  -2  -9  -9 467.133 59.6947  20
  -2   9  -9 669.234 74.9690  17
  -2   9  -9 566.103 65.7673  18
  -2  -9  -9 620.314 67.5555   6
  -2  -9 -10 6680.04 247.350  20
  -2   9 -10 6136.63 242.910  17
  -2   9 -10 6220.10 241.647  18
  -2  -9 -11 977.048 90.9876  20
  -2   9 -11 899.967 87.0130  17
  -2   9 -11 954.037 91.6274  18
  -2  -9 -11 911.254 91.4043  18
  -2  -9 -12 123.876 34.3061  20
  -2   9 -12 148.037 39.8904  17
  -2  -9 -12 132.249 43.0535  18
  -2   9 -13 130.289 31.1481  21
  -2  -9 -13 155.083 38.5157  20
  -2   9 -13 157.672 38.3346  13
  -2  -9 -13 129.920 35.2262  18
  -2   9 -14-8.14986 19.1791  21
  -2  -9 -14 19.4018 21.3249  20
  -2   9 -14 17.7643 17.8665  13
  -2  -9 -14 9.89711 17.7080  18
   2  10 -14 491.903 47.3794  13
   2  10 -14 471.429 43.9740  15
   2  10 -13 187.754 39.0938  13
   2  10 -13 173.826 36.6414  15
   2 -10 -13 184.765 38.0077  20
   2 -10 -13 190.054 34.7763  15
   2 -10 -13 182.973 33.3642  14
   2  10 -12 4008.74 180.210  13
   2 -10 -12 3768.01 169.402  20
   2 -10 -12 3819.62 160.852  14
   2  10 -12 4090.03 176.241  15
   2 -10 -11 1645.86 119.479   5
   2  10 -11 1656.92 117.772  21
   2 -10 -11 1723.42 118.146  20
   2  10 -11 1762.04 118.507  15
   2 -10 -10 102.171 33.5786  20
   2 -10 -10 125.712 39.0252   5
   2 -10 -10 141.801 38.4304  19
   2  10 -10 145.283 38.4084  21
   2  10 -10 94.9958 32.9755  15
   2  10  -9 3865.10 190.121  21
   2 -10  -9 3964.82 184.254  20
   2 -10  -9 4159.10 188.087  19
   2  10  -9 4325.06 191.564  15
   2 -10  -9 4177.58 191.564   5
   2  10  -8 1611.47 114.905  21
   2 -10  -8 1659.70 111.954  19
   2 -10  -8 1479.30 199.583  28
   2  10  -8 1722.47 112.225  15
   2 -10  -8 1691.26 115.424   5
   2 -10  -8 1891.80 121.016  25
  -2 -10   7 14602.8 693.129  31
   2 -10  -7 14828.4 643.194  28
  -2 -10   6 414.775 118.549  31
  -2 -10   6 604.081 132.236   3
   2 -10  -6 533.730 114.136  28
   2  10  -6 631.063 109.526  33
   2 -10  -6 439.112 112.008  32
  -2 -10   5 21660.5 769.999   3
   2 -10  -5 19105.5 653.898   2
   2 -10  -5 19988.4 671.817  30
   2  10  -5 21241.1 667.782  33
   2 -10  -5 18608.6 683.683  28
   2 -10  -5 18927.0 708.032  32
   2 -10  -4 20661.8 653.715   2
   2 -10  -4 19139.4 680.647  32
   2 -10  -4 20642.5 622.347  30
  -2 -10   4 20123.4 716.679   3
   2 -10  -3 2906.95 183.370  30
   2 -10  -3 3211.14 199.935   1
   2 -10  -3 2810.90 226.916  32
   2 -10  -2 6967.08 316.224   1
  -2 -10   2 7279.50 318.669   2
  -2  10   2 7412.26 351.589  36
   2 -10  -2 5944.73 320.995  32
  -2 -10   2 6479.44 352.401   3
   2  10  -2 7731.03 318.722  36
   2  10  -1 92.8944 44.0928  36
  -2 -10   1 213.281 68.3927   3
  -2  10   1 90.6765 54.1436  36
   2 -10  -1 95.0288 50.1591   1
  -2 -10   1 111.903 45.8010   2
   2 -10  -1 80.6911 48.4035  31
  -2 -10   0 697.996 110.599   3
  -2  10   0 731.970 107.800  36
   2 -10   0 729.343 98.5835  31
   2  10   0 705.302 95.9754  36
  -2 -10   0 819.814 109.625   2
   2 -10   1 6402.18 321.200  31
  -2 -10  -1 6637.36 318.757   3
  -2  10  -1 7229.23 338.267  36
   2 -10   1 6690.18 345.793  35
  -2 -10  -1 6524.43 331.763   2
  -2 -10  -2 28843.8 756.914   3
   2 -10   2 27923.1 816.350  31
   2 -10   2 30363.7 849.844  35
  -2 -10  -2 30402.0 839.325   2
   2 -10   3 6289.44 356.315  35
  -2 -10  -3 5973.79 346.684   2
  -2 -10  -3 7310.93 358.146  29
  -2 -10  -3 7804.02 315.409   3
   2 -10   3 7190.06 382.741  31
   2 -10   4 152.107 84.8683  31
  -2 -10  -4 109.676 64.7961   2
   2 -10   4 76.3000 46.8273  35
  -2 -10  -4 76.3529 53.1070  29
   2 -10   5 34080.5 980.650  35
  -2 -10  -5 33771.9 984.312  29
   2 -10   5 33429.7 1013.53  31
  -2 -10  -6 439.359 106.545  32
  -2 -10  -6 399.940 107.118   2
   2 -10   6 482.098 119.774  31
  -2 -10  -7 16.1271 43.1972  32
  -2 -10  -7 6.08513 38.3362   2
   2 -10   7-59.2587 69.8572  31
  -2  10  -8 170.500 37.2117  18
  -2  10  -8 230.701 43.1516  17
  -2 -10  -8 109.458 28.3119   6
  -2  10  -9 3514.75 171.598  18
  -2 -10  -9 3737.21 174.788   6
  -2  10  -9 3381.18 172.177  17
  -2  10 -10 1571.03 114.732  18
  -2 -10 -10 1667.60 118.302  20
  -2  10 -10 1631.85 118.979  17
  -2 -10 -11 42.0438 35.2321  18
  -2 -10 -11 99.1274 38.4708  20
  -2  10 -11 68.8536 31.9005  17
  -2  10 -12 403.658 55.8730  17
  -2  10 -12 315.804 55.6635  21
  -2 -10 -12 373.311 60.1727  18
  -2 -10 -12 314.674 53.4908  20
  -2  10 -12 456.894 64.8384  13
  -2 -10 -13 26.9266 26.4729  20
  -2 -10 -13 7.78824 26.5626  18
  -2  10 -13-15.3966 25.8912  21
  -2  10 -13 7.12228 23.2352  13
  -2  10 -14 0.74044 19.6202  13
  -2 -10 -14 42.8740 20.3606  20
  -2 -10 -14 6.18110 16.6741  18
   2  11 -14 737.853 54.9729  13
   2 -11 -13-41.3469 25.5498  14
   2 -11 -13-16.7098 22.5420  20
   2  11 -13 23.3501 21.4303  15
   2  11 -13 24.1050 25.4440  13
   2  11 -12 1875.24 112.203  21
   2 -11 -12 1689.88 109.226  20
   2  11 -12 1817.93 112.365  15
   2 -11 -12 1757.70 104.104  14
   2  11 -12 1779.59 116.543  13
   2  11 -12 1858.23 103.983  24
   2 -11 -11 10957.5 335.076   5
   2  11 -11 11418.9 341.846  21
   2 -11 -11 10439.0 324.134  20
   2  11 -11 11617.8 334.422  15
   2  11 -11 10827.8 335.620  13
   2 -11 -10 7.24117 25.6424  20
   2 -11 -10 76.9123 38.4420   5
   2 -11 -10 7.82833 29.9193  19
   2  11 -10 21.2485 26.0267  21
   2  11 -10 72.0373 31.4811  15
   2  11  -9 951.304 91.0681  21
   2 -11  -9 1058.27 93.3922   5
   2  11  -9 941.052 86.2347  15
   2 -11  -9 994.935 90.9156  19
   2  11  -8 166.039 40.0398  15
   2 -11  -8 236.341 45.9287  19
   2 -11  -8 190.043 42.3276   5
   2  11  -8 161.408 41.4367  21
  -2 -11   7 4925.49 396.926  31
   2 -11  -7 4053.32 328.118  28
   2 -11  -7 3934.32 340.800  32
  -2 -11   6 2622.40 274.131   3
  -2 -11   6 1917.60 238.401  31
   2 -11  -6 1983.36 222.152  28
   2 -11  -6 2256.35 245.882  32
   2 -11  -5 2485.17 218.072   2
   2 -11  -5 2551.52 240.271  28
   2 -11  -5 2565.13 219.589  30
   2 -11  -5 2681.26 250.110  32
  -2 -11   5 2548.91 256.536   3
   2  11  -5 2602.14 219.147  33
  -2 -11   4 18220.2 700.430   3
   2 -11  -4 18300.5 673.327  32
   2 -11  -3 2197.82 170.225   1
   2 -11  -3 2142.86 205.282  32
  -2 -11   3 2110.87 213.407   3
   2 -11  -2 9867.27 392.901   1
  -2  11   2 8466.86 404.341  36
   2 -11  -2 9378.59 418.363  32
   2  11  -2 9120.13 375.515  36
  -2 -11   2 10173.4 463.581   3
  -2  11   1 23734.7 716.076  36
   2 -11  -1 21779.3 667.406   1
   2 -11  -1 23345.6 639.714  31
  -2 -11   1 23628.1 689.674   2
  -2 -11   1 23109.6 734.346   3
   2 -11   0 13499.9 475.190  31
   2  11   0 12533.0 458.576  36
  -2  11   0 13487.1 502.130  36
  -2 -11   0 14300.6 513.436   2
  -2 -11  -1 3169.19 228.799   3
   2 -11   1 2867.81 235.963  35
  -2 -11  -1 3313.80 242.447   2
  -2  11  -1 3759.22 249.223  36
   2 -11   1 2976.76 223.413  31
   2  11   1 3406.31 229.116  36
  -2 -11  -2 58504.2 1409.07   2
   2 -11   2 61699.2 1440.06  35
   2 -11   2 62088.9 1426.62  31
   2 -11   3 6603.07 379.978  31
  -2 -11  -3 7247.03 365.745  29
   2 -11   3 6878.16 383.295  35
  -2 -11  -3 6037.75 357.498   2
  -2 -11  -4 1713.41 194.083   2
  -2 -11  -4 1506.05 175.721  29
   2 -11   4 1665.70 195.874  31
   2 -11   4 1698.78 193.239  35
  -2 -11  -5 7120.05 409.006  29
   2 -11   5 7055.10 426.893  31
  -2 -11  -5 5683.38 376.804   2
   2 -11   5 6674.86 403.529  35
   2 -11   6 3418.40 310.179  31
  -2 -11  -6 2863.60 275.917  32
   2 -11   7 2217.17 264.418  31
  -2 -11  -7 2544.59 261.104  32
  -2 -11  -7 2379.73 261.715   2
  -2  11  -8 16.2686 22.6572  18
  -2  11  -8 8.35811 26.9831   8
  -2  11  -8-5.96734 26.1429  17
  -2 -11  -8-9.20037 21.3471   6
  -2  11  -9 5161.15 219.796  17
  -2  11  -9 5447.41 220.885  18
  -2 -11  -9 5751.39 225.405   6
  -2  11 -10 369.624 60.0808  17
  -2 -11 -10 295.718 54.7079  20
  -2  11 -11 180.530 42.4284  17
  -2  11 -11 214.803 45.3542  13
  -2 -11 -11 138.532 37.6161  20
  -2 -11 -11 126.274 37.4865  18
  -2  11 -12 3910.79 181.211  21
  -2 -11 -12 4287.03 183.683  18
  -2  11 -12 4326.23 184.238  13
  -2 -11 -12 4283.53 180.765  20
  -2  11 -12 4423.26 182.796  17
  -2 -11 -13-2.45163 23.0501  18
  -2  11 -13-17.5858 25.6698  21
  -2 -11 -13-28.2514 25.5164  20
  -2  11 -13-0.96058 25.4653  13
  -2 -11 -14 64.9256 19.8835  18
  -2 -11 -14 36.8939 15.3188  20
  -2  11 -14 27.5905 16.0246  13
   2 -12 -13 918.886 68.7060  20
   2 -12 -13 791.158 56.3079  14
   2  12 -13 838.951 64.4424  15
   2  12 -13 932.976 72.3388  13
   2  12 -12 15.5241 28.7629  13
   2 -12 -12 61.5465 35.0967  20
   2  12 -12 76.4484 28.3376  21
   2  12 -12 32.2851 28.4898  15
   2 -12 -12-8.60149 28.2531  14
   2  12 -12 34.1758 25.0092  24
   2  12 -11 2810.86 153.874  21
   2 -12 -11 2768.26 150.546  20
   2  12 -11 3198.88 155.630  15
   2  12 -11 2805.60 154.043  13
   2 -12 -11 3175.86 160.506   5
   2 -12 -10 156.031 43.9605  20
   2 -12 -10 107.434 41.7764   5
   2  12 -10 153.262 38.6368  15
   2  12 -10 126.005 40.5063  21
   2 -12 -10 114.146 37.9431  19
   2  12 -10 155.448 44.6818  13
   2 -12  -9 894.141 85.9181   5
   2  12  -9 857.539 88.2302  21
   2  12  -9 1043.29 94.0974  13
   2  12  -9 968.295 86.3564  15
   2 -12  -9 1013.28 90.3216  19
   2  12  -8 4001.01 193.221  21
   2  12  -8 4439.06 195.372   8
   2  12  -8 4116.32 187.469  13
   2 -12  -8 4388.93 194.088   5
   2 -12  -8 4048.06 184.790  19
   2  12  -8 4347.35 187.290  15
   2 -12  -7-15.0302 30.7895  28
   2 -12  -7 25.5497 20.5600  19
   2 -12  -6 7251.64 454.826  32
   2 -12  -6 6773.65 426.950  28
  -2 -12   6 7019.22 469.719   3
  -2 -12   6 8217.14 506.130  31
  -2 -12   5 4535.71 356.409   3
   2 -12  -5 3520.42 298.967  32
   2  12  -5 3642.50 269.016  33
  -2 -12   5 3538.64 313.737  31
   2 -12  -5 3639.45 296.053  28
   2 -12  -4 11580.8 535.849  32
  -2 -12   4 12004.9 572.697   3
  -2  12   3 59.7592 53.9412  36
   2 -12  -3 56.3030 59.6051  32
  -2 -12   3-31.4835 56.4294   3
  -2  12   2 3082.25 246.851  36
   2 -12  -2 3631.42 237.902   1
  -2 -12   2 3097.61 262.195   3
   2 -12  -2 2862.29 237.337  32
   2  12  -2 3597.86 235.404  36
  -2 -12   1 68609.6 1580.42   3
  -2  12   1 60148.6 1502.21  36
   2 -12  -1 68870.3 1439.14  31
  -2 -12   1 78152.8 1560.23   2
   2  12  -1 75256.8 1507.74  36
   2 -12  -1 69478.7 1498.61   1
  -2 -12   0 9160.33 428.180   3
   2  12   0 8714.54 384.798  36
   2 -12   0 7957.57 367.708  31
  -2 -12   0 8349.47 399.485   2
  -2 -12  -1 1853.30 182.477   3
  -2  12  -1 2128.70 193.765  36
   2 -12   1 1738.60 189.069  35
   2 -12   1 1921.38 186.820  31
   2  12   1 1573.80 165.428  36
  -2 -12  -1 2134.44 202.918   2
   2 -12   2 36273.3 1046.69  35
  -2 -12  -2 38265.3 1049.45   2
   2 -12   2 35931.9 1019.16  31
  -2 -12  -3 11977.0 494.323  29
   2 -12   3 9708.83 488.998  31
  -2 -12  -3 10798.9 508.626   2
   2 -12   3 13029.8 551.728  35
  -2 -12  -4 7538.95 433.359   2
  -2 -12  -4 7853.43 417.767  29
   2 -12   4 8042.39 442.773  35
   2 -12   4 7161.66 429.764  31
   2 -12   5 143.375 85.6402  35
   2 -12   5 87.9434 65.1186  31
  -2 -12  -5 99.6090 67.9111  29
  -2 -12  -5-22.3851 59.1240   2
  -2 -12  -6 7240.99 451.838  32
   2 -12   6 7626.11 482.617  31
  -2 -12  -7 323.605 96.3437  32
  -2  12  -7 441.061 58.8403  17
  -2 -12  -7 138.177 74.9109  30
   2 -12   7 271.071 103.490  31
  -2 -12  -7 471.146 107.163   2
  -2  12  -8 1372.23 108.835   8
  -2  12  -8 1216.45 99.9485  17
  -2  12  -8 1444.41 105.749  13
  -2 -12  -8 1331.50 102.883   6
  -2  12  -9 2399.91 141.305  13
  -2 -12  -9 2217.78 136.252   6
  -2  12  -9 2126.11 137.668  17
  -2 -12 -10-44.1946 34.2821  20
  -2  12 -10 16.0453 26.4347  17
  -2  12 -10 11.1870 29.3941  13
  -2  12 -11 72.7811 35.7232  21
  -2 -12 -11 40.5975 33.5253  20
  -2  12 -11 69.5970 29.8110  17
  -2 -12 -11 83.6243 35.2702  18
  -2  12 -11 91.5467 35.8918  13
  -2  12 -12 993.365 88.2035  21
  -2 -12 -12 1122.75 89.1940  20
  -2  12 -12 1076.32 87.8623  13
  -2 -12 -12 971.111 85.0757  18
  -2 -12 -13 484.868 53.2883  20
  -2  12 -13 415.682 50.6472  21
  -2 -12 -13 485.524 53.3591  18
  -2  12 -13 501.549 55.0652  13
   2  13 -13-4.74468 15.9526  15
   2 -13 -13 13.9166 18.0871  20
   2 -13 -13-19.7362 18.8220  14
   2 -13 -12 1363.35 85.5226  14
   2  13 -12 1387.73 98.4159  13
   2 -13 -12 1350.53 93.0895  20
   2  13 -12 1419.67 88.3086  24
   2  13 -12 1437.14 92.1492  15
   2  13 -12 1502.88 97.5311  21
   2 -13 -11 829.691 81.1092   5
   2  13 -11 955.277 88.4390  21
   2 -13 -11 855.896 80.8270  20
   2  13 -11 863.730 78.3850  15
   2  13 -11 904.873 85.5613  13
   2 -13 -10 3248.56 165.794  20
   2 -13 -10 3520.21 172.624   5
   2  13 -10 3286.82 169.685  13
   2 -13 -10 3317.23 165.052  19
   2  13 -10 3583.89 168.117  15
   2  13 -10 3373.58 176.668  21
   2  13  -9 10.3878 23.2209  21
   2 -13  -9 31.3539 30.4226   5
   2  13  -9 0.33539 26.8035  13
   2  13  -9 40.5277 29.4464  15
   2 -13  -9 48.2101 31.7528  19
   2  13  -8 101.620 35.0619  21
   2  13  -8 70.5383 26.8423   8
   2 -13  -8 73.1713 27.3461   5
   2  13  -8 117.363 37.3979  15
   2 -13  -8 87.5046 31.2900  19
   2  13  -8 19.3647 24.6376  13
   2  13  -7 638.270 72.8747   8
   2 -13  -7 651.496 69.2238  10
   2 -13  -7 602.104 68.9231  19
   2 -13  -7 730.285 74.8274   5
   2  13  -7 616.364 72.4084  21
   2  13  -7 692.428 72.3689  13
   2  13  -7 720.628 69.8806  15
   2 -13  -6 4714.07 368.937  32
   2 -13  -6 4789.44 362.899  28
  -2 -13   6 4871.57 394.636  31
  -2 -13   5 1535.99 211.640   3
   2  13  -5 1263.13 160.060  33
  -2 -13   5 1225.77 190.451  31
   2 -13  -5 1179.83 179.445  32
   2 -13  -4 2045.02 224.607  32
  -2 -13   4 1870.44 233.590   3
  -2  13   4 2311.18 234.446  36
  -2 -13   3 1211.36 180.419   3
   2 -13  -3 1495.58 178.817  32
  -2  13   3 1352.42 176.699  36
  -2 -13   2 187.881 73.6745   3
   2  13  -2 289.433 80.9378  36
  -2  13   2 262.529 85.9764  36
   2 -13  -2 17.1870 50.6832  32
   2 -13  -2 135.579 49.7864   1
   2  13  -1 9633.74 426.353  36
   2 -13  -1 10989.1 422.952  31
  -2 -13   1 9953.25 450.296   2
  -2 -13   1 11299.0 514.779   3
   2 -13  -1 10520.8 451.367   1
  -2  13   1 8568.11 438.966  36
   2  13   0 4513.25 286.709  36
  -2 -13   0 5053.84 315.433   2
   2 -13   0 4404.45 278.005  31
  -2 -13   0 5092.51 328.665   3
  -2  13   0 4264.93 294.575  36
   2 -13   1 1422.79 183.882  35
   2 -13   1 1417.40 164.067  31
  -2 -13  -1 1199.67 153.744   3
   2  13   1 1127.72 146.966  36
  -2 -13  -1 1125.46 153.772   2
  -2  13  -1 1248.75 157.532  36
   2  13   2 2296.77 214.271  36
   2 -13   2 2853.64 247.484  31
   2 -13   2 2684.78 246.220  35
  -2 -13  -2 2813.98 221.811  29
  -2 -13  -2 2793.10 248.797   2
  -2 -13  -3 3877.88 277.190  29
   2 -13   3 3699.81 298.730  31
  -2 -13  -3 3893.28 302.018   2
   2 -13   3 4320.97 326.416  35
   2 -13   4 1152.14 174.077  31
  -2 -13  -4 1533.87 195.590   2
   2 -13   4 1410.83 196.037  35
  -2 -13  -4 1448.33 179.700  29
   2 -13   5 5547.37 393.781  35
   2 -13   5 5023.89 384.885  31
  -2 -13  -5 5278.77 382.377   2
  -2 -13  -6 362.733 114.222  32
   2 -13   6 253.976 94.1235  31
  -2 -13  -6 196.041 83.2098   2
  -2  13  -7 98.3094 32.2407  13
  -2  13  -7 92.7220 33.2700   8
  -2 -13  -7 107.607 33.9788   6
  -2  13  -7 93.7951 33.2380  17
  -2  13  -7 32.9562 17.0351  26
  -2  13  -8 1588.70 118.446   8
  -2  13  -8 1626.86 116.446  17
  -2  13  -8 1717.85 119.336  13
  -2 -13  -8 1484.85 110.398   6
  -2  13  -9 506.368 65.9867  13
  -2  13  -9 479.068 65.3666   8
  -2  13  -9 518.882 70.3804  17
  -2 -13  -9 414.602 61.8376   6
  -2  13 -10 777.174 81.8544  17
  -2 -13 -10 796.124 82.2113  20
  -2  13 -10 784.095 82.9342  13
  -2  13 -11 1375.59 108.352  21
  -2 -13 -11 1404.55 104.842  20
  -2  13 -11 1428.82 106.246  17
  -2 -13 -11 1385.42 105.274  18
  -2  13 -11 1405.47 104.346  13
  -2 -13 -12 2524.70 129.104  20
  -2 -13 -12 2478.08 131.049  18
  -2  13 -12 2497.54 130.685  13
  -2  13 -12 2517.59 136.727  21
  -2 -13 -13 3799.15 143.531  20
  -2 -13 -13 3904.25 145.995  18
  -2  13 -13 3827.07 147.561  13
  -2  13 -13 3892.52 149.868  21
   2 -14 -13 221.343 32.3343  20
   2 -14 -13 167.875 25.1478  14
   2  14 -13 255.115 36.5059  13
   2  14 -12 335.472 46.4329  21
   2 -14 -12 347.933 49.1570  20
   2 -14 -12 292.379 38.6160  14
   2  14 -12 328.226 41.2529  24
   2  14 -12 294.257 47.2222  13
   2  14 -12 295.509 41.2704  15
   2 -14 -11 113.534 35.0553  20
   2 -14 -11 114.449 35.0195   5
   2  14 -11 120.448 30.5370  15
   2  14 -11 134.948 39.7716  21
   2  14 -11 194.061 43.8528  13
   2  14 -10 2992.57 164.769  21
   2 -14 -10 3166.76 161.129  20
   2  14 -10 3287.54 159.438  15
   2 -14 -10 3378.02 164.711  19
   2 -14 -10 3216.36 162.978   5
   2  14 -10 2852.07 157.801  13
   2  14  -9 386.699 58.2988   8
   2  14  -9 365.535 56.5212  15
   2  14  -9 344.450 57.5841  13
   2 -14  -9 314.190 54.2429  19
   2  14  -9 290.239 54.0387  21
   2 -14  -9 408.762 59.2928   5
   2  14  -8 195.114 46.7656  21
   2 -14  -8 192.871 42.6678   5
   2  14  -8 237.561 44.3593  15
   2  14  -8 145.354 45.9500  13
   2  14  -8 221.358 44.1707   8
   2 -14  -8 258.388 49.1730  19
   2  14  -7 54.4127 32.9409  21
   2 -14  -7 54.3398 24.8320  10
   2 -14  -7 25.4278 21.2898   5
   2 -14  -7 29.9489 26.0428  19
   2  14  -7 32.4076 24.3093  13
   2  14  -7 65.1863 27.1890  15
   2  14  -7 17.5588 25.0067   8
   2  14  -6 4572.02 199.249  21
   2 -14  -6 4750.47 382.634  32
  -2 -14   6 4934.87 409.034  31
   2 -14  -6 4812.79 373.089  28
  -2 -14   5 107.698 64.5204   3
  -2 -14   5 212.701 84.0613  31
   2 -14  -5 209.244 86.5147  32
  -2  14   5 168.700 72.6278  36
  -2 -14   4 1513.18 208.630  31
  -2 -14   4 1243.06 192.195   3
   2 -14  -4 1408.22 192.509  32
  -2  14   4 1509.00 193.884  36
  -2 -14   3-10.5118 51.5439   3
   2 -14  -3-2.54711 47.3574  32
  -2  14   3 11.2870 45.7097  36
  -2 -14   2 121.849 61.5836   3
   2 -14  -2 132.928 62.2254  32
   2  14  -2 79.1167 50.2392  36
  -2  14   2 77.7069 47.7532  36
  -2  14   1 727.294 128.401  36
  -2 -14   1 783.570 127.514   2
  -2 -14   1 865.270 142.915   3
   2 -14  -1 892.064 130.173   1
   2  14  -1 758.888 118.461  36
   2 -14   0 230.212 70.9045  31
   2  14   0 151.459 58.7450  36
  -2  14   0 265.530 82.0440  36
  -2 -14   0 425.493 102.389   2
  -2 -14   0 228.858 78.8887   3
   2  14   1 237.046 70.7859  36
   2 -14   1 317.630 87.7924  31
  -2 -14  -1 236.131 74.6762   3
  -2  14  -1 424.930 102.698  36
   2 -14   1 316.062 100.735  35
  -2 -14  -1 233.331 74.4869   2
   2 -14   2 616.839 125.947  31
   2  14   2 450.073 105.233  36
   2 -14   2 352.862 97.8341  35
  -2 -14  -2 292.914 88.8990   2
  -2 -14  -2 415.238 90.2031  29
   2 -14   3 1339.41 189.762  35
  -2 -14  -3 1840.71 193.034  29
   2 -14   3 1308.52 184.846  31
  -2 -14  -3 1322.43 181.485   2
   2 -14   4 9229.00 523.548  35
  -2 -14  -4 10047.7 497.606  29
   2 -14   4 8540.00 504.323  31
   2 -14   5 1812.32 233.051  31
  -2 -14  -5 1580.01 216.720   2
  -2 -14  -6 7794.86 495.287   2
  -2 -14  -6 7715.67 493.443  32
  -2  14  -6 7261.90 254.764  17
  -2 -14  -6 7139.84 255.344  10
   2 -14   6 8054.40 516.740  31
  -2  14  -7 742.284 80.2690   8
  -2  14  -7 757.531 79.5349  17
  -2  14  -7 866.723 81.8011  13
  -2 -14  -7 791.832 80.1967   6
  -2  14  -8 90.0712 34.7265   8
  -2  14  -8 10.6570 25.9318  17
  -2  14  -8 61.2934 31.6692  13
  -2 -14  -8 41.5889 26.6965   6
  -2 -14  -9 4027.65 189.486   6
  -2  14  -9 4113.11 195.036  17
  -2  14  -9 4264.46 199.429   8
  -2  14  -9 4271.02 194.890  13
  -2  14 -10 712.231 82.1327  21
  -2 -14 -10 929.821 86.5401  20
  -2  14 -10 813.713 82.1735  13
  -2  14 -10 747.400 81.6771  17
  -2 -14 -11 50.5712 32.9478  20
  -2  14 -11 88.3674 29.4133  13
  -2 -14 -11 112.139 38.0524  18
  -2  14 -11 124.788 43.1765  21
  -2 -14 -12 1732.70 105.193  18
  -2 -14 -12 1671.11 101.400  20
  -2  14 -12 1777.07 110.400  21
  -2  14 -12 1779.84 106.766  13
  -2  14 -13 63.7666 24.4675  21
  -2 -14 -13 49.2436 22.9697  18
  -2 -14 -13 47.4546 20.6805  20
  -2  14 -13 52.8191 23.5797  13
   2 -15 -13 1218.84 67.8691  20
   2  15 -13 1278.58 73.7776  13
   2 -15 -12 478.038 47.5409  14
   2 -15 -12 554.786 55.4386  20
   2  15 -12 594.795 62.7661  13
   2  15 -12 633.533 55.2885  24
   2  15 -12 543.448 55.4886  21
   2  15 -11 1292.98 98.9997  21
   2 -15 -11 1038.24 85.4696  20
   2  15 -11 1191.74 85.6784  15
   2 -15 -11 1230.01 90.8020   5
   2  15 -11 1216.62 94.3768  13
   2  15 -10 287.953 52.8144  21
   2 -15 -10 340.507 53.7562  20
   2 -15 -10 368.350 54.2922   5
   2  15 -10 343.320 51.0091  15
   2 -15 -10 337.528 53.5181  19
   2  15 -10 340.040 57.3598  13
   2 -15  -9 7082.28 253.769   5
   2  15  -9 7260.21 248.180  15
   2 -15  -9 6888.61 250.951  19
   2  15  -9 6589.78 259.963  21
   2  15  -9 6881.90 256.188   8
   2  15  -9 6428.90 250.153  13
   2 -15  -8 1204.69 99.9535  19
   2  15  -8 1486.62 105.459  15
   2  15  -8 1327.88 108.322  13
   2  15  -8 1373.81 111.365   8
   2  15  -8 1137.94 102.729  21
   2 -15  -8 1401.24 106.642   5
   2  15  -7 8888.07 304.416  21
   2 -15  -7 9282.49 296.229   5
   2  15  -7 9026.29 307.121   8
   2 -15  -7 9319.60 297.040  19
   2  15  -7 8766.21 294.293  13
   2 -15  -7 8678.38 293.974  10
   2  15  -6 30.7995 26.0272  21
   2 -15  -6 17.4680 22.2012  10
   2 -15  -6 23.7453 22.5992   5
   2  15  -6-2.65954 21.4300   8
   2  15  -6 16.5663 22.9047  13
  -2  15   5 8726.76 520.198  36
  -2 -15   5 9029.31 549.349  31
   2 -15  -5 8454.69 510.774  32
  -2 -15   4 212.935 87.3556   3
  -2  15   4 275.489 85.1817  36
   2 -15  -4 416.838 109.885  32
  -2 -15   4 349.786 113.721  31
  -2 -15   3 1782.78 231.350   3
  -2  15   3 1983.65 227.113  36
   2 -15  -3 1893.29 222.497  32
  -2 -15   3 2130.38 241.519  31
  -2 -15   2 3437.84 293.965  31
   2 -15  -2 2857.44 263.125  32
  -2 -15   2 2827.80 281.874   3
  -2  15   2 3558.99 299.893  36
   2  15  -1 611.124 114.438  36
  -2 -15   1 761.013 134.956  31
  -2 -15   1 870.312 147.755   3
   2 -15  -1 585.699 107.637   1
  -2  15   1 675.289 127.888  36
   2 -15   0 384.104 96.2606  31
  -2  15   0 187.192 80.2287  36
  -2 -15   0 213.112 71.6844  31
  -2 -15   0 238.625 80.1594   3
   2  15   0 221.270 70.1321  36
  -2 -15   0 224.568 81.9204   2
   2  15   1 23.5049 44.1968  36
  -2  15  -1 63.9387 50.7828  36
  -2 -15  -1 96.9545 71.8924   2
   2 -15   1 33.6705 43.9058  31
  -2 -15  -2 663.295 117.408  35
  -2 -15  -2 678.100 133.244   2
   2 -15   2 1160.49 170.281  31
   2  15   2 623.185 119.737  36
   2 -15   2 839.232 158.785  35
   2 -15   3 3474.57 316.635  35
  -2 -15  -3 3753.09 283.782  29
   2  15   3 3562.47 298.227  36
   2 -15   3 3417.27 304.851  31
  -2 -15  -3 3020.79 288.202   2
   2 -15   4 50.7456 66.0487  35
   2 -15   4-49.6836 57.0924  31
  -2 -15  -4 18.6143 42.0426   2
  -2 -15  -4 5.36688 50.7172  29
   2 -15   5 250.538 94.5993  31
  -2 -15  -5 443.261 123.861   2
  -2  15  -6 686.568 72.9980  17
  -2  15  -6 570.063 68.6447   8
  -2  15  -6 642.316 70.2419  13
  -2 -15  -6 639.968 72.8255  10
  -2  15  -7 8735.90 308.821   8
  -2  15  -7 9342.12 307.771  17
  -2  15  -7 9493.13 303.717  13
  -2 -15  -7 9712.38 313.046   6
  -2  15  -8 633.597 77.8047   8
  -2  15  -8 728.265 81.3049  17
  -2  15  -8 680.502 78.1571  13
  -2 -15  -8 672.093 76.6030   6
  -2  15  -9 1394.80 116.604  21
  -2  15  -9 1447.52 111.643   8
  -2  15  -9 1466.81 111.877  13
  -2  15  -9 1352.54 110.799  17
  -2 -15  -9 1425.27 109.089   6
  -2  15 -10 1307.23 109.324  21
  -2 -15 -10 1288.98 99.4147   6
  -2  15 -10 1366.29 106.312  13
  -2 -15 -10 1257.66 101.007  20
  -2 -15 -11 1524.69 103.801  20
  -2 -15 -11 1360.15 100.265  18
  -2  15 -11 1554.75 106.551  13
  -2  15 -11 1531.86 111.036  21
  -2 -15 -12 45.3397 23.7513  20
  -2  15 -12 75.2672 28.3156  21
  -2 -15 -12 81.3194 25.8881  18
  -2  15 -12 56.4683 23.9958  13
  -2  15 -13 804.522 59.7819  21
  -2 -15 -13 729.819 53.7014  20
  -2  15 -13 780.199 57.2070  13
  -2 -15 -13 701.059 52.3814  18
   2 -16 -12-4.94780 19.1090  20
   2  16 -12 3.53249 20.5469  13
   2 -16 -12-24.1446 20.4118  14
   2  16 -12-14.6764 19.3769  24
   2  16 -12-12.7613 21.3873  21
   2  16 -11 2104.38 121.788  21
   2  16 -11 2093.48 122.501  13
   2 -16 -11 2076.42 116.897  20
   2 -16 -10 697.796 71.6874   5
   2 -16 -10 667.812 71.7792  20
   2 -16 -10 714.297 73.3951  19
   2  16 -10 673.698 75.0968  21
   2  16 -10 606.669 71.1839  13
   2 -16  -9-8.10692 23.6787   5
   2  16  -9 7.28429 28.0684  13
   2  16  -9 4.17492 30.1225  21
   2 -16  -9 38.2485 32.6329  19
   2  16  -8 3106.95 170.668  21
   2 -16  -8 3233.79 165.035  19
   2  16  -8 3269.50 172.905   8
   2 -16  -8 3230.05 163.799   5
   2  16  -8 3034.13 163.921  13
   2 -16  -7 4172.65 192.306  10
   2 -16  -7 4286.90 188.961   5
   2 -16  -7 4134.98 187.448  19
   2  16  -7 3986.69 194.683   8
   2  16  -7 3896.87 187.142  13
   2  16  -7 3923.46 194.017  21
   2 -16  -6 9013.34 298.123  10
   2 -16  -6 9429.65 293.260   5
   2  16  -6 8754.20 293.310  13
   2  16  -6 9376.48 308.919  21
   2  16  -6 9227.74 312.188   8
   2  16  -5 154.939 41.3291  21
   2 -16  -5 290.581 48.6638  10
   2  16  -5 162.386 41.4342   8
   2  16  -5 201.483 40.0339  13
  -2  16   4-19.0338 46.5318  36
  -2 -16   4 147.945 86.2579  31
   2 -16  -4 163.901 73.5827  32
   2 -16  -3 951.346 160.605  32
  -2 -16   3 1019.41 177.893  31
  -2  16   3 1154.06 180.600  36
  -2 -16   2 3886.65 327.347  31
   2 -16  -2 4082.30 325.752  32
  -2  16   2 3804.89 323.512  36
   2 -16  -1 74.2022 54.4671   1
  -2  16   1 19.6473 38.7157  36
   2  16  -1 77.2764 44.5529  36
   2  16   0 68.7462 50.3967  36
  -2 -16   0 50.4296 55.7434   2
  -2  16   0 109.358 59.7257  36
  -2 -16  -1 351.573 101.141  35
  -2  16  -1 280.839 92.0245  36
  -2 -16  -1 209.218 76.0199   2
   2 -16   1 179.805 74.1997  31
   2  16   1 187.708 83.2626  36
  -2 -16  -2 63.0247 50.8873   2
   2  16   2 12.1767 36.2999  36
   2 -16   3 839.100 157.427  31
  -2 -16  -3 927.307 159.919   2
   2  16   3 1059.93 169.821  36
   2 -16   4 135.369 78.3952  31
   2  16   4-69.0600 58.2090  36
  -2 -16  -4 48.8171 45.5199   2
  -2 -16  -5 345.289 52.6941  10
  -2  16  -5 303.780 48.5095  21
  -2  16  -5 331.658 52.7937  17
  -2  16  -5 253.465 51.0933   8
  -2  16  -5 325.326 49.7709  13
  -2 -16  -6 2.36848 30.6289  10
  -2  16  -6 15.1973 26.8523  17
  -2  16  -6 48.3063 39.1540   8
  -2  16  -6-0.65316 22.1534  21
  -2  16  -6 11.1855 25.0698  13
  -2  16  -7 468.602 64.5615  13
  -2  16  -7 413.286 61.5827  21
  -2  16  -7 483.849 67.9186  17
  -2  16  -7 476.789 68.8922   8
  -2 -16  -7 471.428 65.2928   6
  -2  16  -8-17.1918 30.6303  21
  -2  16  -8-16.2722 24.6696  13
  -2  16  -8-8.17104 27.4200   8
  -2 -16  -8 17.8977 25.5424   6
  -2  16  -8 10.6637 25.0093  17
  -2 -16  -9 772.594 80.5272   6
  -2  16  -9 755.825 81.8819   8
  -2  16  -9 834.132 88.0410  21
  -2  16  -9 845.896 85.7251  13
  -2  16 -10 1733.83 123.091  21
  -2 -16 -10 1614.48 111.145  20
  -2  16 -10 1778.27 115.705   8
  -2  16 -10 1597.72 111.349  13
  -2 -16 -10 1543.21 107.251   6
  -2  16 -11 62.0043 29.2172  13
  -2 -16 -11 67.9995 30.7238  20
  -2 -16 -11 59.2063 35.0021  18
  -2  16 -11 110.794 40.7333  21
  -2 -16 -12 104.694 28.2939  20
  -2  16 -12 97.2137 29.4848  21
  -2 -16 -12 92.2560 29.1061  18
  -2  16 -12 81.3993 26.8502  13
   2 -17 -12 231.296 33.0000  20
   2 -17 -12 165.767 24.5364  14
   2  17 -12 166.035 30.5410  21
   2  17 -12 209.896 30.7460  24
   2 -17 -11 131.145 33.8677  20
   2  17 -11 151.010 37.6306  13
   2  17 -11 133.963 35.8299  21
   2 -17 -10 2868.37 140.895   5
   2  17 -10 2747.30 151.294  21
   2 -17 -10 2911.14 146.328  20
   2 -17 -10 2837.75 140.277  19
   2  17 -10 2763.47 147.978  13
   2  17  -9-63.8261 38.3009  21
   2 -17  -9 7.78607 26.4889  19
   2  17  -9 29.6305 27.1883  13
   2 -17  -9-11.4379 21.1800   5
   2 -17  -8 5259.08 215.348  19
   2  17  -8 5112.03 222.852   8
   2 -17  -8 5407.21 215.441   5
   2  17  -8 4997.48 214.932  13
   2  17  -8 5135.68 225.179  21
   2  17  -7 276.189 54.7254  21
   2 -17  -7 278.021 51.1104  10
   2  17  -7 273.762 55.3470   8
   2 -17  -7 398.742 57.7513   5
   2 -17  -7 352.318 56.6015  19
   2  17  -7 261.558 48.6454  13
   2 -17  -6 22825.1 551.352  10
   2  17  -6 21362.5 555.438   8
   2  17  -6 22585.0 548.718  13
   2  17  -5 1116.47 97.4837  21
   2  17  -5 950.152 89.9853   8
   2  17  -5 1071.40 92.0186  13
   2 -17  -5 1004.29 89.4968  10
   2  17  -4 1026.57 90.6618  21
   2 -17  -4 880.999 82.7544  10
   2  17  -4 842.067 83.6521   8
   2 -17  -4 915.835 84.2867  27
  -2  17   3 116.513 68.0045  36
  -2 -17   3 47.4079 59.8283  31
  -2  17   2 4171.89 351.318  36
   2 -17  -2 3368.57 304.513  32
  -2 -17   2 4100.67 342.807  31
   2 -17  -1 8439.90 478.342  32
  -2 -17   1 9186.15 496.389  31
  -2  17   1 8147.43 489.864  36
   2  17  -1 8778.48 474.476  36
  -2 -17   0 211.836 80.1937  35
   2  17   0 385.935 105.078  36
  -2  17   0 365.063 107.500  36
  -2 -17   0 244.824 97.0485   2
   2  17   1 548.614 126.754  36
  -2 -17  -1 856.374 146.618  35
  -2 -17  -1 945.266 165.414   2
   2 -17   1 693.253 130.640  31
  -2  17  -1 867.468 158.998  36
  -2 -17  -2 3778.68 328.907   2
   2 -17   2 2771.88 280.113  31
   2  17   2 3620.57 315.739  36
  -2 -17  -3 3066.56 303.595   2
   2 -17   3 2948.39 296.622  31
   2  17   3 2907.65 291.856  36
  -2 -17  -4 2040.15 128.333  10
  -2  17  -4 2046.56 132.602   8
   2  17   4 1933.71 244.021  36
  -2 -17  -5 293.960 55.4518  10
  -2  17  -5 236.017 50.7993   8
  -2  17  -5 262.257 46.8407  21
  -2  17  -5 298.225 49.7647  13
  -2  17  -6 5105.50 216.669  21
  -2  17  -6 4775.39 219.619   8
  -2 -17  -6 4846.33 212.737  10
  -2  17  -6 5269.11 215.595  13
  -2  17  -7 390.891 60.5536  13
  -2  17  -7 329.562 57.0097  21
  -2  17  -7 370.267 63.4806   8
  -2 -17  -7 326.878 56.2028   6
  -2  17  -8 3472.70 179.346  21
  -2  17  -8 3437.29 181.266   8
  -2  17  -8 3446.77 174.921  13
  -2 -17  -8 3316.38 172.869   6
  -2  17  -9 224.531 50.9088  21
  -2  17  -9 157.658 43.8649  13
  -2  17  -9 192.079 46.8586   8
  -2 -17  -9 139.210 38.0376   6
  -2  17 -10 3090.80 162.536  21
  -2 -17 -10 3166.39 154.882  20
  -2  17 -10 3445.13 161.442   8
  -2  17 -10 3173.34 158.216  13
  -2  17 -11 1350.18 97.7393  21
  -2 -17 -11 1440.28 94.8156  20
  -2 -17 -11 1448.19 96.0851  18
  -2  17 -11 1400.71 95.4378  13
  -2  17 -12 31.0091 22.4730  21
  -2 -17 -12 36.8469 20.8296  18
  -2 -17 -12 36.4630 21.6704  20
   2 -18 -12 64.5687 20.4642  20
   2  18 -12 50.2869 19.6876  21
   2 -18 -11 1272.11 82.4031  20
   2  18 -11 1153.06 84.8952  21
   2  18 -10 369.359 57.6755  21
   2 -18 -10 400.017 50.4391   5
   2 -18 -10 342.583 52.0544  20
   2 -18 -10 306.854 45.8345  19
   2  18 -10 308.310 50.0002  13
   2 -18  -9 1910.15 115.732   5
   2  18  -9 2096.84 136.121  21
   2  18  -9 1929.02 125.740  13
   2 -18  -9 2092.52 124.334  19
   2 -18  -8 2488.45 140.072  19
   2 -18  -8 2514.21 137.553   5
   2  18  -8 2361.31 146.383   8
   2  18  -8 2239.12 139.953  13
   2  18  -8 2356.75 147.259  21
   2  18  -7 1398.54 114.145  21
   2 -18  -7 1279.59 103.240  10
   2 -18  -7 1254.44 101.921  19
   2  18  -7 1200.59 105.313   8
   2  18  -7 1107.75 98.5659  13
   2  18  -6 1031.25 98.0286   8
   2 -18  -6 935.776 89.7260  10
   2  18  -6 1026.76 95.4599  13
   2  18  -6 1093.87 99.4329  21
   2 -18  -5 2030.00 131.521  10
   2  18  -5 2503.98 148.132  21
   2  18  -5 2389.77 148.438   8
   2  18  -4 1114.70 96.7624  21
   2  18  -4 1186.73 102.263   8
   2 -18  -4 1157.74 95.9684  10
   2 -18  -4 1335.06 104.041  27
   2 -18  -3 11777.0 617.454  32
   2  18  -3 12650.3 357.803  21
   2  18  -3 12066.6 362.845   8
   2 -18  -3 11830.1 356.587  27
  -2 -18   2 20183.8 851.671  35
   2 -18  -2 19821.5 809.915  32
  -2 -18   2 22766.8 873.341  31
  -2  18   2 19912.5 839.378  36
   2  18  -1 5308.35 380.046  36
  -2 -18   1 4764.18 381.490  35
   2 -18  -1 5048.15 373.903  32
  -2  18   1 4785.21 381.154  36
  -2  18   0 2325.00 258.491  36
  -2 -18   0 2084.60 251.766  35
   2 -18   0 2483.72 257.886   1
   2  18   0 2094.00 234.981  36
  -2 -18  -1 4422.20 366.577   2
  -2  18  -1 4536.69 365.076  36
   2  18   1 3801.63 330.985  36
  -2 -18  -1 4782.75 365.345  35
  -2 -18  -2 5408.17 411.187   2
   2  18   2 5249.14 398.151  36
   2 -18   2 4905.97 384.782  31
  -2 -18  -3 640.735 72.2327  10
  -2  18  -3 594.668 71.2200   8
   2 -18   3 599.557 139.601  31
  -2 -18  -3 556.087 63.7011   7
   2  18   3 507.804 122.809  36
   2  18   3 611.023 70.6927  11
  -2  18  -4 9007.68 305.971   8
  -2 -18  -4 8967.93 296.390  10
  -2 -18  -4 8382.05 280.075   7
  -2  18  -5 6903.98 251.824  21
  -2 -18  -5 6641.36 254.030  10
  -2  18  -5 7332.86 275.478   8
  -2  18  -6 1960.67 130.450  21
  -2 -18  -6 1992.58 132.075  10
  -2  18  -6 1956.40 127.494  13
  -2  18  -6 1960.44 135.969   8
  -2  18  -7 4067.89 192.218  21
  -2  18  -7 3733.47 192.251   8
  -2 -18  -7 3729.26 185.127   6
  -2  18  -7 3966.56 188.685  13
  -2  18  -8 490.995 66.6156  21
  -2  18  -8 501.211 72.8002   8
  -2 -18  -8 559.981 70.7235   6
  -2  18  -8 520.192 70.2437  13
  -2  18  -9 673.486 79.1650  21
  -2  18  -9 698.332 77.0452   8
  -2 -18  -9 590.402 70.0757   6
  -2  18  -9 699.559 76.7622  13
  -2  18 -10 711.479 76.1349  21
  -2 -18 -10 733.210 72.0000  20
  -2  18 -10 609.420 65.5123   8
  -2  18 -10 752.277 75.6699  13
  -2  18 -11 2933.83 137.780  21
  -2 -18 -11 2948.46 130.816  20
  -2 -18 -11 2834.27 131.816  18
  -2  18 -12 854.308 62.8429  21
  -2 -18 -12 885.867 59.8640  18
  -2 -18 -12 861.586 59.1263  20
   2  19 -11 97.2292 29.8184  21
   2 -19 -11 116.325 28.2413  20
   2 -19 -10 8.91159 23.2373  20
   2 -19 -10 20.3070 20.1369  19
   2  19 -10 54.9907 31.9047  21
   2 -19  -9 738.382 70.7539  19
   2 -19  -9 659.889 64.7364   5
   2  19  -9 722.379 78.3851  21
   2  19  -8 99.1749 39.4588  21
   2  19  -8 94.4667 34.8255   8
   2 -19  -8 135.326 38.4158  19
   2  19  -7 5108.71 223.811  21
   2 -19  -7 5532.31 218.675  19
   2  19  -7 5094.01 225.978   8
   2 -19  -7 5172.11 216.724  10
   2 -19  -6 1081.11 96.4027  10
   2  19  -6 881.623 91.7985   8
   2  19  -6 973.012 94.8777  21
   2  19  -5 190.721 49.9289  21
   2  19  -5 132.396 42.0367   8
   2 -19  -5 84.7261 34.0831  10
   2 -19  -4 644.850 75.5093  10
   2  19  -4 711.238 78.3645  21
   2  19  -4 705.919 81.4827   8
   2  19  -3 10136.0 317.734  21
   2  19  -3 10294.6 328.484   8
   2 -19  -3 9473.25 315.366  27
   2  19  -2 3427.87 166.294  21
   2  19  -2 3181.90 167.536   8
   2 -19  -2 3452.87 174.173  27
   2  19  -2 3487.11 173.689  11
   2  19  -1 444.898 61.7682   8
   2 -19  -1 402.556 59.3308  27
   2  19  -1 229.077 85.3025  36
   2  19  -1 339.718 57.2254  11
  -2 -19   0 10376.3 326.692   7
  -2 -19   0 11393.7 608.022  35
   2  19   0 10689.8 571.525  36
   2 -19   0 11597.6 342.760  27
   2  19   0 9849.07 323.262  11
   2  19   1 3954.68 344.586  36
  -2 -19  -1 3977.61 187.088   7
   2 -19   1 4907.61 206.551  27
   2  19   1 4592.29 202.115  11
  -2  19  -2 3851.39 183.552   8
   2 -19   2 4304.82 192.345  27
  -2 -19  -2 3691.29 176.646   7
   2  19   2 3924.25 186.039  11
  -2 -19  -3 1210.95 101.348  10
   2 -19   3 1272.58 100.962  27
  -2  19  -3 1353.06 108.583   8
  -2 -19  -3 1081.68 93.3612   7
   2  19   3 1421.35 109.420  11
  -2 -19  -4 3857.36 184.599  10
  -2  19  -4 3640.94 187.085   8
  -2 -19  -4 3754.80 176.160   7
  -2 -19  -5 104.845 35.7308  10
  -2  19  -5 116.767 35.2217  21
  -2  19  -5 59.3293 31.5666   8
  -2 -19  -6 187.942 47.0605   6
  -2  19  -6 193.509 45.5856  21
  -2 -19  -6 186.444 45.8025  10
  -2  19  -6 238.039 55.2874   8
  -2  19  -7 7701.64 290.069   8
  -2 -19  -7 7943.63 286.634   6
  -2  19  -8 96.0395 38.7277   8
  -2 -19  -8 34.4150 23.7075   6
  -2  19  -8 129.910 38.1617  21
  -2  19  -9 3802.16 178.178  21
  -2  19  -9 4016.60 182.608   8
  -2 -19  -9 3756.58 171.341   6
  -2 -19 -10 55.9385 30.4657  20
  -2  19 -10 41.8510 28.2518   8
  -2  19 -10 28.8386 31.2302  21
  -2  19 -11 1264.31 85.7830  21
  -2 -19 -11 1226.33 78.3332  20
  -2 -19 -11 1315.89 82.8599  18
  -2  19 -12 2521.76 102.423  21
   2  20 -11 355.047 43.4491  21
   2 -20 -11 401.690 41.1621  20
   2  20 -10 1113.76 85.7511  21
   2 -20 -10 974.438 74.3962  20
   2 -20 -10 955.796 70.3575  19
   2  20  -9 1742.92 117.297  21
   2 -20  -9 1693.64 104.225  19
   2  20  -8 581.462 72.4293  21
   2 -20  -8 583.627 66.3104  19
   2 -20  -8 555.746 64.3820   6
   2 -20  -7 190.617 41.7369  19
   2  20  -7 231.320 54.0337   8
   2 -20  -7 159.430 41.7355  10
   2  20  -7 203.382 51.2246  21
   2  20  -6 3243.09 173.055  21
   2  20  -6 3081.01 172.667   8
   2 -20  -6 3216.04 168.396  10
  -2  20   5 81.5909 29.4919  11
   2  20  -5 177.160 45.9482  21
   2 -20  -5 18.4737 30.5512  10
   2  20  -5 125.638 42.4335   8
   2 -20  -4 14471.9 407.693  10
   2  20  -4 14338.4 416.805   8
   2  20  -4 13962.9 402.944  21
  -2  20   4 14824.4 409.433  11
   2  20  -3 12260.8 371.580   8
   2  20  -3 12783.7 368.064  21
   2 -20  -3 12143.8 365.549  10
   2 -20  -3 11881.5 362.929  27
   2  20  -2 21828.5 520.882  21
   2  20  -2 21890.1 534.892   8
   2 -20  -2 20216.7 523.193  27
   2  20  -1 3317.18 162.881  21
   2  20  -1 3529.75 173.088   8
   2 -20  -1 3161.08 170.496  27
   2  20  -1 3365.65 175.354  11
   2 -20   0 20588.0 508.522  27
  -2 -20   0 20123.9 504.135   7
  -2  20  -1 15960.3 423.987   8
  -2 -20  -1 14704.7 419.608   7
   2  20   1 15081.4 429.733  11
  -2 -20  -2 1085.65 97.7404  10
   2 -20   2 948.909 87.8464  27
   2  20   2 891.170 90.4606  11
  -2 -20  -2 796.521 81.4090   7
  -2  20  -2 939.406 89.3202   8
  -2 -20  -3 5989.88 239.545  10
  -2  20  -3 5351.41 229.597   8
  -2 -20  -3 5983.56 233.044   7
   2 -20   3 6574.20 245.385  27
  -2  20  -3 5839.35 236.324  11
  -2  20  -4 292.490 52.9318  11
  -2 -20  -4 296.540 53.5857  10
  -2 -20  -4 291.544 49.7028   7
  -2  20  -4 207.396 48.5136   8
  -2  20  -5 186.698 41.1535  21
  -2 -20  -5 180.043 44.1409  10
  -2  20  -5 183.240 48.4271   8
  -2 -20  -6 66.3644 32.1305  10
  -2  20  -6 23.3085 22.1858  21
  -2  20  -6 47.0390 34.2560   8
  -2 -20  -6 23.1542 28.5772   6
  -2  20  -7 2094.03 132.311  21
  -2 -20  -7 1795.41 124.135   6
  -2  20  -7 1674.40 125.567   8
  -2  20  -8 718.454 76.4704  21
  -2 -20  -8 724.553 77.6284   6
  -2  20  -8 666.125 77.2546   8
  -2  20  -9 609.003 69.2821   8
  -2  20  -9 596.637 69.3305  21
  -2 -20  -9 580.445 64.7302   6
  -2  20 -10 3369.77 150.439  21
  -2 -20 -10 3569.66 147.543  20
  -2  20 -10 3375.91 145.487   8
  -2  20 -11 16.9397 22.1223  21
  -2 -20 -11-1.59355 17.8044  20
  -2 -20 -11-2.92239 17.5732  18
   2  21 -11 401.685 42.3766  21
   2  21 -10 205.992 39.0890  21
   2 -21 -10 178.747 32.9862  20
   2 -21 -10 149.403 27.4481  19
   2  21  -9 268.393 48.4381  21
   2 -21  -9 260.173 41.9246  19
   2 -21  -8 4830.00 190.780  19
   2 -21  -8 5069.26 193.862   6
   2  21  -8 4809.29 203.933  21
   2 -21  -7 72.4953 34.4167  19
   2  21  -7-3.36777 34.0560   8
   2  21  -7 69.2856 30.3979  21
   2 -21  -6 3158.45 166.115  10
   2  21  -6 3012.25 171.944   8
   2  21  -6 3450.22 176.946  21
   2 -21  -5 5909.80 240.318  10
  -2  21   5 6763.98 246.958  11
   2  21  -5 6681.33 261.603   8
   2  21  -5 6274.98 248.681  21
   2 -21  -4 9887.71 319.764  10
   2  21  -4 9936.46 320.547  21
  -2  21   4 9677.29 315.863  11
   2  21  -4 9125.08 318.344   8
   2 -21  -3 615.436 74.0179  10
   2  21  -3 700.248 76.7017  21
   2  21  -3 720.822 84.0536   8
  -2  21   3 757.125 84.4728  11
   2  21  -2 901.290 90.1929   8
   2 -21  -2 902.786 90.9927  27
   2  21  -2 840.680 84.0315  21
  -2  21   2 902.274 89.8562  11
   2  21  -1 505.775 67.3425   8
  -2 -21   1 483.364 69.3433   7
   2  21  -1 518.799 64.0316  21
   2  21  -1 483.864 70.1286  11
   2 -21  -1 581.693 73.7578  27
   2 -21   0 4413.68 201.926  27
   2  21   0 4120.08 199.130  11
  -2 -21  -1 93.8711 35.0986   7
  -2  21  -1 173.329 44.5738   8
   2 -21   1 100.173 39.6922  27
   2  21   1 155.645 49.0494  11
  -2  21  -2 392.988 64.1716   8
  -2 -21  -2 404.658 66.4073  10
   2 -21   2 266.787 48.4244  27
  -2 -21  -2 312.113 53.3245   7
  -2  21  -2 304.576 54.8897  11
  -2 -21  -3 733.164 80.7717  10
  -2  21  -3 803.690 84.1257  11
  -2  21  -3 840.427 88.2638   8
  -2 -21  -3 738.959 78.2662   7
   2 -21   3 906.862 87.0799  27
  -2 -21  -4 6377.94 250.760  10
  -2 -21  -4 6442.51 242.406   7
  -2  21  -4 6708.13 260.336   8
  -2  21  -4 6894.15 253.247  11
  -2  21  -5 477.376 61.2147  21
  -2 -21  -5 435.884 65.6334  10
  -2  21  -5 496.587 71.4465   8
  -2 -21  -6 289.449 53.8491  10
  -2  21  -6 277.934 47.2792  21
  -2  21  -6 306.395 61.3676   8
  -2 -21  -6 232.514 50.9194   6
  -2  21  -7 17.5001 23.3973  21
  -2  21  -7 2.77975 35.4357   8
  -2 -21  -7 22.5909 27.7642   6
  -2  21  -8-18.9957 27.3546  21
  -2  21  -8-54.0609 38.0496   8
  -2 -21  -8 15.0603 25.2574   6
  -2  21  -9 985.817 83.3559   8
  -2 -21  -9 910.403 77.0984   6
  -2  21  -9 817.369 75.8039  21
  -2 -21 -10 76.7695 26.3082  20
  -2  21 -10 103.432 29.8573  21
  -2  21 -10 134.052 31.6853   8
  -2 -21 -11 400.274 39.2115  18
  -2  21 -11 378.343 39.8942  21
  -2 -21 -11 378.373 37.9831  20
   2 -22 -10 1977.87 93.0915  20
   2  22 -10 2231.24 107.332  21
   2  22  -9 2566.56 129.609  21
   2 -22  -9 2339.53 116.192  20
   2 -22  -9 2466.95 114.172  19
   2  22  -8 933.040 84.5001  21
   2 -22  -8 977.269 78.1669  19
   2 -22  -8 940.661 76.4481   6
  -2 -22   8 1004.55 82.1807   7
   2  22  -7 708.330 79.9239  21
   2 -22  -7 767.631 74.9099  19
   2  22  -6 8180.46 291.359   8
   2 -22  -6 8515.00 282.918  10
   2  22  -6 8618.56 290.750  21
  -2  22   5 345.059 55.3133  11
   2  22  -5 394.957 63.8982  21
   2 -22  -5 355.300 61.0240  10
   2  22  -5 386.153 67.3371   8
   2 -22  -4 19767.0 507.983  10
   2  22  -4 20252.8 518.563   8
   2  22  -4 19806.6 504.423  21
  -2  22   4 20821.8 510.322  11
   2 -22  -3 4129.85 196.965  10
   2  22  -3 4561.21 208.463   8
  -2  22   3 4870.35 212.697  11
   2  22  -3 4645.72 202.897  21
   2  22  -2 5558.40 221.967  21
   2  22  -2 5746.63 234.355   8
  -2  22   2 5205.17 225.687  11
  -2 -22   1 13219.4 394.477   7
  -2  22   1 12892.8 390.724  11
  -2 -22   0 8813.92 303.205   7
  -2  22   0 8430.98 300.468  11
   2 -22   0 9452.39 314.585  27
  -2 -22  -1 4473.54 204.502   7
   2 -22   1 4964.96 216.107  27
  -2  22  -1 4624.22 211.097  11
  -2  22  -2 269.639 54.9843  11
  -2 -22  -2 310.193 56.6705  10
   2 -22   2 174.292 45.1020  27
  -2  22  -2 276.985 51.3563   8
  -2 -22  -2 208.504 44.5210   7
  -2 -22  -3 2021.99 134.609  10
  -2 -22  -3 2078.87 131.412   7
  -2  22  -3 1990.32 135.325   8
   2 -22   3 2440.58 145.083  27
  -2  22  -3 2039.52 137.190  11
  -2 -22  -4 831.161 86.4510  10
  -2  22  -4 893.698 91.0471   8
  -2  22  -4 898.661 88.2665  11
  -2 -22  -5 1808.72 124.500  10
  -2  22  -5 1868.79 132.677   8
  -2  22  -6 1605.15 109.727  21
  -2  22  -6 1542.43 118.025   8
  -2 -22  -6 1668.48 116.558  10
  -2 -22  -6 1461.38 112.773   6
  -2  22  -7 248.611 44.6285  21
  -2  22  -7 265.096 51.8506   8
  -2 -22  -7 218.068 47.3593   6
  -2  22  -8 548.146 61.7078  21
  -2 -22  -8 485.934 61.8774   6
  -2  22  -8 571.313 68.7143   8
  -2 -22  -8 624.315 61.9367  26
  -2  22  -9 501.225 55.6849  21
  -2  22  -9 468.870 56.1706   8
  -2 -22  -9 416.900 51.2416   6
  -2  22 -10 27.2335 20.7554  21
  -2  22 -10 11.5888 17.1096   8
  -2 -22 -10 0.47072 17.2866  20
   2  23 -10 589.703 50.4668  21
   2  23  -9 1175.26 81.8838  21
   2 -23  -9 1021.05 70.0875  20
   2 -23  -9 1105.35 68.9463  19
   2 -23  -8 663.245 61.3629  19
   2  23  -8 829.565 76.2421  21
  -2 -23   8 721.943 64.7354   7
   2 -23  -8 642.613 60.3109   6
   2 -23  -7 3967.41 166.029  19
  -2 -23   7 4096.12 177.187   7
   2  23  -7 3905.82 175.874  21
   2 -23  -6 2535.75 141.869  10
   2  23  -6 2342.47 138.331  21
   2  23  -5 2698.30 150.337  21
   2 -23  -5 2513.79 146.565  10
  -2  23   5 2956.94 150.377  11
   2 -23  -4 4979.34 215.238  10
   2  23  -4 5332.68 226.352   8
   2  23  -4 5306.44 217.007  21
  -2  23   4 5666.40 225.789  11
  -2  23   3 31.4855 36.6876  11
   2  23  -3 35.2761 32.1803  21
   2 -23  -3 27.0612 32.5931  10
   2  23  -3 12.3336 29.5956   8
  -2 -23   3 5.93823 34.9018   7
  -2 -23   2 3279.79 177.902   7
  -2  23   2 3567.82 181.801  11
  -2  23   1 388.107 66.3958  11
  -2 -23   1 402.255 63.7354   7
  -2 -23   0 9128.57 309.475   7
  -2  23   0 9208.08 313.157  11
  -2  23  -1 211.027 49.6507  11
  -2 -23  -1 187.040 44.8894  10
   2 -23   1 134.283 38.0081  27
  -2 -23  -1 116.333 35.6245   7
  -2  23  -2 184.230 46.8833  11
  -2 -23  -2 213.361 45.6653   7
  -2 -23  -2 211.081 53.1317  10
  -2  23  -2 189.468 43.8552   8
  -2 -23  -3 444.984 65.1662  10
  -2  23  -3 433.448 65.3440  11
  -2  23  -3 436.936 64.8384   8
  -2 -23  -3 455.714 62.7452   7
  -2  23  -4-20.5344 27.8305  11
  -2 -23  -4-12.8282 34.3944  10
  -2  23  -4-21.0547 34.1596   8
  -2 -23  -5 54.7025 31.9343   6
  -2 -23  -5 137.984 43.0878  10
  -2  23  -5 117.435 40.9535   8
  -2 -23  -6 603.622 70.9746  10
  -2  23  -6 657.708 67.4093  21
  -2  23  -6 573.010 73.2833   8
  -2 -23  -6 466.139 63.5593   6
  -2  23  -7 514.727 59.8125  21
  -2  23  -7 550.730 69.6895   8
  -2 -23  -7 633.537 70.2272   6
  -2  23  -8 1554.34 97.2582  21
  -2  23  -8 1480.28 101.338   8
  -2 -23  -8 1567.66 100.032   6
  -2 -23  -8 1526.69 91.2484  26
  -2  23  -9 171.175 33.2487  21
  -2 -23  -9 192.445 34.1579  20
  -2  23  -9 187.014 35.1901   8
  -2 -23  -9 196.172 34.3624   6
  -2 -23 -10 157.356 25.2324  20
  -2 -23 -10 106.395 24.0745  18
   2  24  -9 953.221 67.0805  21
   2 -24  -9 854.589 57.7625  20
   2  24  -8 276.655 42.2695  21
  -2 -24   8 276.974 38.9156   7
   2 -24  -8 300.081 40.4240  19
   2 -24  -8 350.586 41.9167   6
   2  24  -7 1765.71 109.297  21
   2 -24  -7 1708.55 100.121  19
   2 -24  -7 1675.21 102.445   6
  -2 -24   7 1785.76 107.558   7
   2 -24  -6 670.203 71.2535  10
   2 -24  -6 555.075 62.1757  19
  -2 -24   6 710.892 75.0766   7
   2  24  -6 635.405 68.4510  21
   2  24  -5 18804.2 475.619  21
   2 -24  -5 19463.0 483.980  10
  -2 -24   5 20741.5 502.826   7
  -2  24   5 20240.2 473.420  11
   2  24  -4 137.785 37.6887  21
   2 -24  -4 105.926 38.9705  10
  -2  24   4 156.485 47.0537  11
  -2 -24   4 178.912 51.2557   7
   2  24  -3 867.755 82.5870  21
   2 -24  -3 714.039 80.7157  10
  -2 -24   3 1013.31 98.6820   7
  -2  24   3 981.215 90.9544  11
   2 -24  -2 572.144 73.4597  10
  -2 -24   2 584.512 75.2825   7
  -2  24   2 617.994 76.4949  11
  -2 -24   1 1403.59 113.591   7
  -2  24   1 1207.03 106.107  11
  -2  24   0 3.37056 34.1392  11
  -2 -24   0 3.31463 28.8924   7
  -2 -24  -1 1087.52 96.9636  10
  -2 -24  -1 1071.08 96.9026   7
  -2  24  -1 1181.41 104.121  11
  -2 -24  -2 2094.48 131.064   7
  -2  24  -2 2133.68 131.344   8
  -2 -24  -2 2257.62 140.559  10
  -2  24  -2 1941.42 131.876  11
  -2  24  -3 323.510 53.9297  11
  -2 -24  -3 412.547 59.5353  10
  -2 -24  -3 350.874 55.8728   7
  -2  24  -3 422.882 61.1442   8
  -2  24  -4 345.715 50.5977  11
  -2 -24  -4 255.497 49.8083  10
  -2  24  -4 308.167 55.2805   8
  -2  24  -5 4610.47 200.856   8
  -2 -24  -5 4664.76 196.178  10
  -2 -24  -5 4100.29 189.493   6
  -2  24  -6 841.109 82.0478   8
  -2 -24  -6 692.990 73.3605   6
  -2 -24  -7 175.691 39.5262   6
  -2  24  -7 130.060 36.3535   8
  -2  24  -7 162.729 32.8130  21
  -2  24  -8 1340.73 82.8511  21
  -2  24  -8 1500.12 95.6867   8
  -2 -24  -8 1464.16 82.3959  26
  -2 -24  -8 1521.56 92.8161   6
  -2  24  -9 2429.23 102.645  21
  -2 -24  -9 2312.42 102.070  20
   2 -25  -8-15.8293 16.2201  19
  -2 -25   8-17.7362 15.9113   7
   2 -25  -8 16.2438 14.7845   6
   2  25  -7 1698.60 100.042  21
   2 -25  -7 1537.43 88.7416  19
  -2 -25   7 1742.41 100.792   7
   2 -25  -7 1564.93 93.1821   6
   2  25  -6 603.969 63.3147  21
   2 -25  -6 645.749 65.5910  10
   2 -25  -6 591.138 61.5680  19
  -2 -25   6 597.586 65.4659   7
   2  25  -5 1420.84 99.3028  21
   2 -25  -5 1441.80 102.755  10
  -2 -25   5 1503.45 108.724   7
  -2  25   5 1547.79 100.085  11
  -2  25   4 120.793 40.2417  11
   2 -25  -4 84.5675 35.8595  10
  -2 -25   4 76.2923 36.3950   7
   2 -25  -3 3737.63 179.362  10
  -2 -25   3 3776.39 184.690   7
   2 -25  -2 504.331 63.8860  10
  -2  25   2 621.790 77.3132  11
  -2 -25   2 580.185 76.8689   7
  -2 -25   1 7413.18 269.842   7
  -2  25   1 7692.60 275.119  11
  -2  25   0 213.915 52.8455  11
  -2 -25   0 210.570 44.6738  10
  -2 -25   0 183.716 42.6479   7
   2 -25   0 235.877 46.1392   7
  -2 -25  -1 44.7787 35.1155  10
  -2  25  -1 84.4991 37.1439  11
  -2 -25  -1 28.5887 24.2118   7
  -2  25  -2 488.032 67.1034  11
  -2 -25  -2 576.348 68.8205  10
  -2  25  -2 577.214 67.7715   8
  -2 -25  -2 463.053 60.9974   7
  -2 -25  -3 1023.61 90.3292  10
  -2  25  -3 997.240 87.3900   8
  -2  25  -3 1032.81 90.5512  11
  -2 -25  -4 51.4189 30.7727   6
  -2 -25  -4 38.3921 29.7751  10
  -2  25  -4-11.0114 31.7918   8
  -2  25  -4 9.09404 30.0061  11
  -2 -25  -5 65.4966 33.8890  10
  -2  25  -5 18.2873 27.9247   8
  -2 -25  -5 109.474 35.3056   6
  -2  25  -6 1431.67 101.677   8
  -2 -25  -6 1495.58 101.633   6
  -2  25  -7-5.39916 25.6183   8
  -2 -25  -7-17.9063 25.7001   6
  -2  25  -8 402.083 40.1496  21
  -2  25  -8 364.385 45.4448   8
  -2 -25  -8 411.517 45.7680   6
   2  26  -8 2002.22 92.7705  16
   2 -26  -7 1349.49 74.6843  19
   2 -26  -7 1421.55 81.7331   6
   2  26  -7 1380.81 83.9890  16
  -2 -26   7 1435.40 83.4159   7
  -2 -26   6 291.728 45.5875   7
   2 -26  -6 246.087 37.4299  19
   2 -26  -5 172.694 40.4764  10
  -2 -26   5 161.399 40.4802   7
   2 -26  -4 24.5241 27.4225  10
   2  26  -4 28.7939 24.3797  16
  -2 -26   4 32.8590 26.4871   7
  -2  26   4 27.5580 22.6404  11
   2 -26  -3 1681.60 113.005  10
  -2 -26   3 1737.70 119.717   7
  -2  26   3 1723.05 114.597  11
   2 -26  -2 438.506 62.6409  10
  -2  26   2 469.269 66.4919  11
  -2 -26   2 457.535 65.0971   7
   2 -26  -1 2012.13 127.306  10
  -2 -26   1 2206.35 134.681   7
  -2  26   1 2402.87 141.537  11
  -2 -26   0 335.994 55.1617  10
  -2 -26   0 360.271 56.6295   7
   2 -26   0 356.112 51.0846   7
  -2  26   0 420.132 63.3186  11
  -2 -26  -1 7933.43 267.586  10
  -2 -26  -1 7856.27 264.609   7
  -2  26  -1 7598.79 267.969  11
  -2  26  -2 549.732 67.1532  11
  -2 -26  -2 521.805 65.3492  10
  -2  26  -2 586.312 63.4255   8
  -2 -26  -2 519.595 62.3782   7
  -2  26  -3 727.080 73.0658   8
  -2 -26  -3 709.983 72.9655  10
  -2  26  -3 727.230 73.2941  11
  -2  26  -4 915.822 80.3408   8
  -2 -26  -4 940.380 81.7848  10
  -2 -26  -4 1005.32 85.8933   6
  -2 -26  -5 330.070 48.5533  10
   2  26   5 323.712 45.3328  12
  -2 -26  -5 303.655 47.9358   6
  -2  26  -5 292.606 49.8672   8
  -2  26  -6 178.693 38.3093   8
  -2 -26  -6 62.2539 27.8190   6
  -2  26  -7 2.15918 24.7681   8
  -2 -26  -7 21.4042 20.5748   6
  -2 -26  -7 34.4044 17.7174  26
  -2 -26  -8 1313.02 70.7633  20
  -2 -26  -8 1553.43 78.0868   6
   2  27  -7 3016.75 114.567  16
   2 -27  -7 3249.10 115.708   6
   2  27  -6 87.7975 24.9776  16
  -2 -27   6 58.5750 24.8638   7
   2 -27  -6 88.6826 25.3038  19
   2 -27  -6 53.5633 20.6903   6
   2 -27  -5 8.15165 22.6720  10
   2  27  -5 55.6497 23.8893  16
  -2 -27   5 35.2143 26.9962   7
   2 -27  -5 25.7908 21.6307  19
   2 -27  -4 286.340 46.5096  10
  -2 -27   4 274.776 47.0794   7
   2  27  -4 237.146 39.0023  12
  -2 -27   3 1023.36 87.0868   7
   2 -27  -3 1015.73 83.9050  10
  -2  27   3 979.211 82.5406  11
  -2  27   2 170.330 40.9426  11
   2 -27  -2 147.919 38.5142  10
  -2 -27   2 122.967 41.2364   7
   2 -27  -1 597.024 68.5248  10
  -2 -27   1 548.692 63.6632  10
  -2 -27   1 518.894 65.3201   7
  -2  27   1 611.820 70.3679  11
  -2 -27   0 1443.97 101.037  10
  -2 -27   0 1431.37 102.590   7
  -2  27   0 1527.27 107.947  11
  -2  27  -1 46.7337 29.8434  11
  -2 -27  -1 50.4386 28.4012  10
  -2 -27  -1 55.0530 29.1457   7
   2 -27   1 78.5724 31.5042   7
  -2 -27  -2 64.6628 27.0231   6
  -2  27  -2 82.4483 31.7595  11
  -2 -27  -2 98.2448 32.1937  10
  -2 -27  -3 309.894 49.0927  10
  -2  27  -3 269.439 43.5354  11
  -2  27  -3 243.042 41.7201   8
  -2 -27  -3 240.513 44.8853   6
  -2 -27  -4 1623.02 101.536   6
  -2 -27  -4 1538.69 96.3403  10
  -2  27  -4 1539.10 97.0157   8
  -2  27  -5 1330.47 88.7992   8
  -2 -27  -5 1347.67 89.0609   6
  -2  27  -6 9.86645 21.8424   8
  -2 -27  -6 13.8659 18.7413   6
  -2  27  -7 3203.44 124.968   8
  -2 -27  -7 3518.92 126.534   6
  -2 -28   6 56.7345 20.6281   7
   2 -28  -6 65.6028 19.6375   6
   2 -28  -5 17.7055 16.4730  19
  -2 -28   5 46.5999 22.3742   7
   2 -28  -4 2736.79 123.974  10
  -2 -28   4 2652.66 115.487  10
  -2 -28   4 2511.01 124.219   7
   2 -28  -3 86.7408 30.8374  10
  -2 -28   3 117.532 36.1969   7
  -2 -28   3 68.6184 25.4182  10
   2  28  -3 26.6931 22.6793  12
   2 -28  -2 4467.90 176.159  10
  -2 -28   2 4336.23 176.980   7
  -2 -28   2 4303.18 167.206  10
  -2  28   2 4523.72 178.181  11
   2 -28  -1 124.722 36.6710  10
  -2 -28   1 141.939 34.4237  10
  -2 -28   1 160.865 36.6180   7
  -2  28   1 113.304 35.8201  11
   2 -28   0 2648.86 135.678  10
  -2 -28   0 2542.44 130.614   7
  -2 -28   0 2866.00 136.063  10
  -2  28   0 2724.88 138.354  11
  -2 -28  -1 53.7885 28.4775  10
  -2 -28  -1 46.6695 26.5600   7
   2 -28   1 63.0439 24.4786   7
  -2  28  -1-6.45693 27.1454  11
  -2 -28  -1 14.3785 19.9801   6
  -2 -28  -2 11.5484 22.5031  10
  -2 -28  -2 2.84348 21.8116   6
  -2  28  -2-38.1977 30.8704  11
   2 -28   2-16.5441 23.6409   7
  -2  28  -3 1853.31 99.5390   8
   2 -28   3 1864.71 106.090   7
  -2 -28  -3 2003.66 107.607  10
  -2 -28  -3 2060.17 108.802   6
  -2 -28  -4 1155.47 77.2796  10
   2 -28   4 1046.52 77.7805   7
  -2  28  -4 983.300 70.5963   8
   2  28   4 1114.04 75.1168  12
  -2 -28  -4 1163.86 80.0430   6
  -2  28  -5 235.110 35.8529   8
   2 -28   5 278.734 39.8136   7
  -2 -28  -5 231.201 34.7292   6
   2 -28   6-3.22749 18.5917   7
  -2 -28  -6 37.8823 18.6745   6
  -2 -29   5-5.42368 16.6844   7
   2 -29  -5-7.41296 14.5696   6
   2 -29  -4 360.807 38.3979  19
  -2 -29   4 391.180 45.7566   7
   2 -29  -4 445.213 45.0564  10
   2 -29  -3 788.175 63.6504  10
  -2 -29   3 763.509 63.5794   7
  -2 -29   3 715.911 55.9896  10
   2  29  -3 807.363 60.9845  12
   2 -29  -2 1113.37 77.9954  10
  -2 -29   2 1142.82 74.6826  10
  -2 -29   2 1097.26 77.8095   7
   2  29  -2 1093.78 76.8229  12
  -2 -29   1 423.475 47.7049  10
   2 -29  -1 383.368 48.5194  10
  -2 -29   1 357.224 47.2034   7
  -2 -29   0 675.362 60.5338  10
   2 -29   0 690.399 64.8408  10
  -2 -29   0 641.734 60.0088   7
  -2 -29  -1 132.437 29.7199  10
   2 -29   1 67.3836 30.8338  10
   2 -29   1 122.339 27.5740   7
  -2 -29  -2 0.58322 19.6466  10
   2 -29   2 15.5440 17.5191   7
  -2 -29  -2 30.2488 18.2458   6
  -2 -29  -3 927.801 66.3218  10
   2 -29   3 822.193 63.8833   7
   2  29   3 861.185 66.1711  12
  -2 -29  -3 814.061 61.9558   6
   2 -29   4 3920.39 144.420   7
   2  29   4 4370.07 141.279  12
  -2 -29  -4 4278.76 146.379   6
   2 -29   5 408.071 42.5313   7
  -2 -29  -5 389.762 39.3739   6
  -2 -30   3 3307.78 124.457   7
   2 -30  -3 3335.69 121.073  10
   2 -30  -2 20.4279 20.6779  10
  -2 -30   2-37.7207 22.1794   7
   2  30  -2-23.2139 23.8834  12
  -2 -30   1 96.4727 21.9939  10
   2 -30  -1 115.705 28.0049  10
   2  30  -1 84.8893 23.8975  12
  -2 -30   1 31.3983 18.7486   7
  -2 -30   0 1165.37 69.7033  10
   2 -30   0 1229.65 77.9888  10
   2  30   0 1347.48 81.6164  12
  -2 -30  -1 1077.50 66.9146  10
   2 -30   1 1093.07 72.8747  10
   2  30   1 1074.13 72.7389  12
  -2 -30  -2 16.6589 17.0361  10
   2 -30   2 54.4647 23.0010  10
   2 -30   2 35.0548 16.7718   7
   2  30   2-6.49285 20.5915  12
   2 -30   3 1215.01 73.1904  10
   2 -30   3 1212.28 67.3719   7
   2  30   3 1230.14 68.9517  12
   2 -31   0 1156.53 65.9895  10
   2  31   0 1100.26 64.6903  12
   2 -31   1-26.4717 18.3741  10
   2  31   1 37.6555 19.2756  12
   3   0 -14 21.1126 29.4379  15
   3   0 -13 3889.18 176.557  15
   3   0 -13 4558.66 171.784  14
   3   0 -12-35.4512 32.4615  15
   3   0 -12-8.50529 33.0664  14
   3   0 -11 5431.21 212.404  14
   3   0 -11 5691.92 222.443  20
   3   0 -10 5.93785 25.4643  20
   3   0 -10-38.5443 32.0497  14
   3   0 -10-0.18621 19.7058   5
   3   0 -10-7.36250 22.5363  24
   3   0  -9 29007.9 626.129   5
   3   0  -9 29348.2 622.190  20
   3   0  -9 27812.5 608.235  14
   3   0  -9 28052.7 606.683  24
   3   0  -8 115.241 79.9090  34
   3   0  -7 4236.18 328.159  34
   3   0  -6-66.8062 67.0905   4
   3   0  -6 25.9689 53.0989  34
   3   0  -5 9920.42 442.653  34
   3   0  -5 9870.73 442.645   4
   3   0  -4 35.8379 53.6980   4
   3   0  -4 52.3914 58.3060  34
   3   0  -3 8467.81 342.123   4
   3   0  -3 8676.81 336.192  33
   3   0  -3 8992.41 350.963  34
  -3   0   2 27.8703 11.8642   2
   3   0  -2 23.4126 29.5683  33
   3   0  -1 24875.4 563.365  33
   3   0   0 14.8894 30.2829   1
   3   0   0 30.1867 23.9259  33
   3   0   1 6849.59 245.558   1
   3   0   2 56.9550 32.9469   1
   3   0   3 5946.94 228.685   1
  -3   0  -3 4858.70 242.903  29
  -3   0  -4 22.1337 40.4544   2
  -3   0  -4 16.7912 37.6243  29
   3   0   4 37.7568 23.9344   1
  -3   0  -5 1370.25 149.907   2
  -3   0  -5 1691.63 166.345  29
  -3   0  -6-23.8464 58.4558   2
  -3   0  -6-0.71535 51.5017  34
  -3   0  -7 772.167 146.444  34
  -3   0  -7 629.878 120.576   2
  -3   0  -7 891.404 140.084  30
  -3   0  -8-24.6169 49.2529   2
  -3   0  -8-36.6433 70.1762  30
  -3   0  -8 66.7945 69.5155  34
  -3   0  -9 336.812 106.049  30
  -3   0  -9 411.765 52.4409  20
  -3   0  -9 325.397 48.3810  18
  -3   0 -10-48.7065 41.9708  20
  -3   0 -10-44.0054 38.5379  18
  -3   0 -11 3087.66 159.951  20
  -3   0 -11 2942.02 160.734  18
  -3   0 -12-53.7440 39.6138  18
  -3   0 -13 133.668 40.9002  18
  -3   0 -14 6.84155 31.3329  18
  -3   0 -15 15.6697 15.2501  18
   3   1 -14 7.79001 22.4756  15
   3  -1 -14 18.6145 23.0310  15
   3   1 -13 1827.19 120.519  15
   3  -1 -13 1831.87 117.986  15
   3   1 -12 432.876 61.8538  15
   3   1 -12 574.603 70.1973  14
   3  -1 -12 383.169 52.7282  14
   3  -1 -12 421.364 63.1927  15
   3  -1 -11 94.7037 37.6454   5
   3  -1 -11-6.04521 27.6697  20
   3   1 -11-1.97652 27.7660  15
   3   1 -11-10.5728 33.9580  14
   3  -1 -11-9.57917 37.9818  14
   3  -1 -10 776.141 78.6479   5
   3   1 -10 634.854 70.0716  20
   3  -1 -10 628.247 68.8367  20
   3   1 -10 822.360 78.7367   5
   3   1 -10 717.537 71.0077  14
   3  -1 -10 687.892 71.9343  14
   3  -1 -10 726.346 70.3138  24
   3   1 -10 695.871 70.3915  24
   3  -1  -9 4337.35 187.192   5
   3  -1  -9 4320.99 181.306  20
   3  -1  -9 4149.90 173.426  24
   3   1  -9 4000.77 172.443  14
   3   1  -9 4495.30 180.157  24
   3   1  -9 4265.93 180.463  20
   3   1  -8 6688.64 451.639  34
   3  -1  -8 7397.59 477.092  34
   3   1  -7 3606.27 301.409  34
   3  -1  -7 3472.06 296.663  34
   3  -1  -6 784.433 136.778   4
   3   1  -6 911.559 144.198   4
   3   1  -6 751.749 133.720  34
   3  -1  -6 652.884 129.324  34
   3   1  -5 6004.94 331.249  34
   3  -1  -5 6070.84 339.510   4
   3   1  -5 5774.08 332.175   4
   3  -1  -5 5992.06 330.000  34
  -3  -1   5 6097.98 290.367   3
   3   1  -4 4415.84 245.341  33
   3  -1  -4 4260.78 252.290  34
   3   1  -4 4054.51 246.939  34
   3  -1  -4 3926.02 247.399   4
   3   1  -4 3691.58 241.911   4
   3   1  -3 1641.64 144.331   4
   3  -1  -3 1602.05 131.766  28
   3   1  -3 1435.30 136.585  34
   3  -1  -3 1787.39 147.618   4
   3  -1  -3 1484.61 142.155  34
   3   1  -3 1629.51 137.930  33
   3  -1  -2 15453.4 439.583  33
   3  -1  -2 16062.1 464.485   4
   3  -1  -2 14949.6 428.690  28
  -3  -1   2 15314.8 304.564   2
   3   1  -2 16150.0 442.659  33
   3  -1  -1 48752.8 1012.32  33
  -3   1   1 52396.0 897.999  36
   3  -1  -1 53173.3 1074.74   1
   3   1  -1 58264.3 1044.96  33
  -3  -1   1 56896.1 970.440   2
  -3  -1   0 26219.0 563.194   2
   3  -1   0 26835.2 548.960  33
   3  -1   0 26759.3 611.492   1
   3  -1   1 85156.3 1368.77  33
  -3  -1  -1 84353.0 1476.89   2
   3  -1   1 82723.1 1482.96   1
   3  -1   2 1374.10 109.183   1
   3  -1   2 1353.76 61.1439  33
   3   1   2 1405.71 99.9968   1
  -3  -1  -2 1107.61 105.294   2
  -3  -1  -3 3534.78 203.751   2
   3  -1   3 4275.79 194.792   1
  -3   1  -3 3786.21 84.6564  32
  -3   1  -3 4365.92 211.350  29
   3   1   3 5009.74 184.077   1
   3   1   4 1058.68 86.2242   1
  -3   1  -4 1150.89 122.909  29
  -3  -1  -4 876.829 113.541  29
  -3  -1  -4 839.660 113.224   2
   3  -1   4 1195.84 108.885   1
  -3  -1  -5 8644.85 397.564  29
  -3  -1  -5 10748.7 430.023   2
   3  -1   5 10034.0 347.672   1
  -3   1  -5 7808.63 371.088   2
  -3   1  -6 13535.1 577.453  34
  -3   1  -6 13086.5 520.553   2
  -3  -1  -6 12238.0 517.623   2
  -3  -1  -7 614.810 118.404  30
  -3   1  -7 681.518 140.992  34
  -3   1  -7 743.580 127.634  30
  -3  -1  -7 635.456 115.149   2
  -3  -1  -7 736.914 147.134  34
  -3   1  -7 597.095 115.404   2
  -3   1  -8 5514.22 413.048  34
  -3  -1  -8 5097.63 398.430  34
  -3   1  -8 5234.29 360.983   2
  -3  -1  -8 4775.96 358.476  30
  -3  -1  -8 4410.13 330.645   2
  -3   1  -8 4400.28 340.550  30
  -3   1  -9 39.7067 21.5148  18
  -3   1  -9-5.10280 32.3651  20
  -3  -1  -9 76.6470 28.1858  20
  -3  -1  -9 43.0923 21.4813  18
  -3   1  -9-24.7023 71.0177  30
  -3   1 -10 6326.16 235.669  20
  -3  -1 -10 6228.81 233.853  20
  -3  -1 -10 6307.68 238.939  18
  -3   1 -10 6103.52 235.347  18
  -3   1 -11 3439.22 172.501  18
  -3   1 -11 3483.07 169.811  20
  -3  -1 -11 3477.03 171.493  20
  -3  -1 -11 3559.06 176.188  18
  -3  -1 -12 421.732 58.5962  20
  -3  -1 -12 444.833 63.6158  18
  -3   1 -12 396.159 59.1328  18
  -3   1 -13 73.6916 32.4533  18
  -3  -1 -13 60.7565 28.8191  18
  -3   1 -13 99.2356 32.0665  17
  -3   1 -14 3585.24 147.734  18
  -3  -1 -14 3402.73 145.394  18
   3   2 -14 27.0185 22.6027  15
   3  -2 -14 7.09866 20.5090  15
   3   2 -13 1275.09 98.4636  15
   3  -2 -13 1323.54 91.2317  14
   3  -2 -12 3371.06 155.810  14
   3  -2 -12 3455.16 172.153  15
   3   2 -12 3192.40 167.963  15
   3  -2 -12 3467.19 165.557  20
   3  -2 -11 296.223 52.3024  20
   3  -2 -11 231.705 46.1540  14
   3   2 -11 182.754 40.7585  14
   3  -2 -11 242.466 47.9740   5
   3   2 -11 266.256 52.9066  15
   3   2 -11 249.032 40.5113  24
   3   2 -10 35.5239 28.4098  20
   3   2 -10 40.1191 24.1575  14
   3  -2 -10 52.2458 28.4659  20
   3  -2 -10 5.18343 29.6606  14
   3   2  -9 65.1593 23.0810  14
   3   2  -9 14.4515 27.1106  20
   3  -2  -9 96.2241 28.6259  20
   3  -2  -9 17.9029 21.9069   5
   3   2  -9 98.8544 25.3391  24
   3  -2  -9 43.7388 19.7232  24
   3  -2  -8 2698.18 275.338  34
   3   2  -8 2304.34 256.886  34
   3  -2  -7 103.979 64.1458  34
   3   2  -7 100.208 60.6900  34
  -3  -2   6 434.079 81.8778   3
   3  -2  -6 293.950 84.4822  34
   3   2  -6 241.014 82.2835  34
   3   2  -6 292.018 84.1828   4
   3  -2  -6 207.720 75.7676   4
   3  -2  -5 2847.40 230.399  34
   3   2  -5 2241.12 201.264  34
   3  -2  -5 2694.67 222.042   4
   3   2  -5 2637.22 219.810   4
   3   2  -5 2762.60 212.871  33
  -3  -2   5 2887.16 197.679   3
   3   2  -4 12.2885 36.2541  33
   3   2  -4 5.43852 43.5405  34
   3  -2  -4 3.84891 39.2975   4
   3   2  -4-11.6578 41.7913   4
   3  -2  -4 45.9767 46.7921  34
   3  -2  -4-15.4406 44.5281  28
   3   2  -3 17158.0 505.999  33
   3  -2  -3 17758.0 526.363  34
   3  -2  -3 18245.8 533.602   4
   3  -2  -3 17747.3 511.159  28
   3   2  -3 16938.1 521.176   4
   3   2  -3 17036.6 517.986  34
   3   2  -2 47.1171 29.0531  33
   3  -2  -2 50.7926 35.1607  28
   3  -2  -2 80.6287 43.3833   4
   3   2  -2 39.4941 37.2573   4
  -3  -2   2 72.4580 17.0563   2
   3  -2  -1 34349.4 780.488   1
   3  -2  -1 35859.9 753.638  33
   3  -2  -1 36211.2 797.420   4
  -3   2   1 35234.1 658.503  36
  -3  -2   1 36381.1 696.436   2
  -3  -2   0-15.0576 29.2652   2
   3  -2   0 3.47594 18.7420  28
   3  -2   0-31.2684 41.9677   1
   3  -2   0 11.9889 23.2115  33
  -3  -2  -1 12877.2 379.491   2
   3  -2   1 12934.5 309.841  28
   3  -2   2 15850.2 318.484  28
  -3  -2  -2 15167.3 452.908   2
   3   2   2 15849.8 397.902   1
   3   2   3 1618.81 98.3777   1
   3  -2   3 1634.86 129.016   1
  -3  -2  -3 1785.91 148.939   2
  -3   2  -3 1474.26 121.286  29
  -3   2  -4 501.936 81.3446  29
  -3  -2  -4 439.475 87.3764   2
  -3  -2  -4 540.088 97.8309  29
   3  -2   4 570.059 88.0240  31
   3   2   4 621.754 58.0997   1
  -3  -2  -5 7316.75 376.000  34
  -3  -2  -5 6780.40 353.983  29
  -3  -2  -5 7537.74 367.416   2
  -3   2  -5 6487.72 358.053  34
  -3   2  -6 17211.3 657.545  34
  -3  -2  -6 18355.6 671.128  34
  -3   2  -6 14817.8 551.578  30
  -3  -2  -6 16015.0 599.947   2
  -3   2  -6 16622.4 593.917   2
  -3  -2  -7 573.086 112.247   2
  -3   2  -7 546.096 113.193   2
  -3   2  -7 459.938 112.492  34
  -3  -2  -7 610.578 134.274  34
  -3   2  -7 489.543 103.855  30
  -3   2  -8 2.04116 69.0305  34
  -3  -2  -8 67.2983 60.8643  34
  -3  -2  -8 169.330 82.2212  30
  -3   2  -8 43.9501 43.1882   2
  -3  -2  -8 10.5576 47.5698   2
  -3   2  -8 160.672 79.7313  30
  -3   2  -9 6466.92 235.687  18
  -3   2  -9 5930.68 220.856  20
  -3  -2  -9 6733.24 241.047  18
  -3  -2  -9 6428.80 229.637  20
  -3  -2 -10-5.68007 34.8024  18
  -3   2 -10-8.69240 33.8204  20
  -3   2 -10 29.4147 29.9832  18
  -3  -2 -10-44.3533 36.2811  20
  -3  -2 -11 499.352 62.6732  20
  -3   2 -11 514.036 66.7369  18
  -3  -2 -11 536.927 70.7771  18
  -3  -2 -12-6.45364 27.3794  20
  -3   2 -12 5.19820 33.8993  18
  -3  -2 -12-7.05877 30.3641  18
  -3   2 -13 46.4007 27.9466  18
  -3   2 -13 104.452 31.5806  17
  -3  -2 -13 101.176 33.6491  18
  -3  -2 -14 86.8763 31.8287  18
  -3   2 -14 91.2454 34.8889  18
   3   3 -14 858.601 70.3471  15
   3  -3 -14 922.557 71.0997  15
   3  -3 -13 550.232 59.1551  14
   3  -3 -13 574.788 66.0656  15
   3   3 -13 546.863 66.8107  15
   3   3 -12 1112.63 97.8746  15
   3  -3 -12 995.260 91.2319  15
   3  -3 -12 1038.46 90.3469  20
   3  -3 -12 1071.33 85.6963  14
   3  -3 -11 2857.81 155.741   5
   3  -3 -11 3035.20 157.658  20
   3  -3 -11 3096.55 156.961  14
   3   3 -11 3002.26 148.654  24
   3   3 -11 2678.04 142.249  14
   3   3 -11 2853.76 159.179  15
   3   3 -10 1028.21 84.0530  14
   3  -3 -10 1075.93 93.4915   5
   3  -3 -10 1041.62 88.4013  20
   3   3 -10 1138.88 97.2553  15
   3   3 -10 1021.05 85.9547  24
   3  -3  -9 60.6533 28.4005   5
   3   3  -9-9.25260 23.2772  20
   3  -3  -9 18.8053 20.5903  20
   3   3  -9 51.9107 21.3083  14
   3  -3  -9-6.70873 17.4884  24
   3  -3  -8 9186.72 529.570  34
   3   3  -8 8644.39 512.709  34
   3  -3  -7 6901.19 425.954  34
   3   3  -7 6646.35 416.116  34
   3   3  -6 197.864 83.7110   4
  -3  -3   6 194.132 64.1369   3
   3  -3  -6 104.233 60.1578  34
   3  -3  -6 123.535 58.4896   4
   3   3  -6 122.448 65.3275  34
   3   3  -5 2189.65 188.266  33
   3  -3  -5 1839.06 186.093   4
   3   3  -5 2037.48 196.821   4
   3  -3  -5 1962.42 187.671  34
  -3  -3   5 2155.22 178.765   3
   3   3  -5 2153.91 195.380  34
   3  -3  -5 2040.37 182.665  28
  -3  -3   4 13019.9 445.151   3
   3  -3  -4 12668.5 467.520  34
   3   3  -4 13107.5 452.125  33
   3  -3  -4 12673.5 468.358   4
   3   3  -4 11837.2 460.194   4
   3   3  -4 11897.4 453.748  34
   3  -3  -4 12516.4 450.412  28
   3  -3  -3 7824.57 320.125  28
   3   3  -3 7743.01 322.148  34
   3   3  -3 7539.56 310.799  33
   3   3  -3 7587.16 323.729   4
   3  -3  -3 8560.47 339.763   4
   3  -3  -3 7532.88 321.214  34
  -3  -3   2 442.618 41.0812   2
   3  -3  -2 485.930 75.8877   1
   3  -3  -2 543.588 74.7232  28
   3  -3  -2 509.726 78.5569   4
   3   3  -2 474.386 73.7909   4
   3   3  -2 670.617 85.1867  33
  -3   3   1 6079.98 199.742  36
   3   3  -1 5675.43 246.920   4
   3  -3  -1 6458.61 260.302   4
  -3  -3   1 6068.70 205.357   2
   3  -3  -1 5485.06 245.584   1
   3  -3   0 2259.95 150.114   1
  -3  -3   0 2302.47 132.566   2
  -3  -3  -1 13078.8 391.724   2
   3  -3   1 13327.0 408.733   1
  -3  -3  -2 25015.7 655.598   2
   3  -3   2 27326.9 656.884   1
   3  -3   3 6737.58 302.971  31
  -3   3  -3 6175.69 249.616  29
  -3  -3  -3 7056.95 314.071   2
  -3  -3  -4 1523.68 152.241   2
   3  -3   4 1722.94 158.243  31
  -3  -3  -4 1454.03 152.858  29
  -3  -3  -5 3584.52 199.000  32
  -3  -3  -5 3405.63 244.231   2
   3  -3   5 3521.20 238.902  31
  -3   3  -5 3249.16 251.984  34
  -3  -3  -5 3222.28 244.330  29
  -3  -3  -5 3647.97 261.617  34
  -3   3  -6 4105.10 306.509  34
  -3   3  -6 4016.15 277.056   2
  -3  -3  -6 4850.94 330.124  34
  -3   3  -6 4603.53 282.448  30
  -3  -3  -6 4465.26 296.026   2
   3  -3   6 4975.18 299.519  31
  -3  -3  -7 238.006 74.2945   2
  -3   3  -7 301.619 85.5752   2
  -3   3  -7 264.171 92.9557  34
  -3  -3  -7 208.758 89.7969  34
  -3   3  -7 132.726 50.9382  30
  -3  -3  -8 9955.44 559.559  34
  -3   3  -8 10658.2 524.685   2
  -3   3  -8 8660.83 530.323  34
  -3   3  -8 8463.20 468.929  30
  -3  -3  -8 8898.54 503.525  30
  -3  -3  -8 9298.79 496.986   2
  -3   3  -9 7548.53 250.494  20
  -3  -3  -9 7210.99 247.976  20
  -3  -3  -9 6964.97 251.915  18
  -3   3  -9 7152.43 251.339  18
  -3  -3 -10 6650.26 246.484  20
  -3   3 -10 6571.64 246.979  18
  -3  -3 -10 6759.43 252.072  18
  -3   3 -11 213.614 50.2268  18
  -3  -3 -11 190.819 43.5524  18
  -3  -3 -11 205.200 43.3810  20
  -3  -3 -12 27.8108 30.9147  20
  -3   3 -12-36.3163 36.8223  18
  -3  -3 -12 31.5824 34.2012  18
  -3   3 -13 33.5812 22.3654  17
  -3   3 -13 12.2150 31.4533  18
  -3  -3 -13 13.8380 30.7023  18
  -3   3 -14 142.412 28.8676  15
  -3   3 -14 120.481 31.6904  18
  -3  -3 -14 143.963 34.1638  18
   3   4 -14 601.195 58.3899  15
   3   4 -14 520.862 52.4594  13
   3  -4 -14 493.533 50.6886  15
   3  -4 -13 865.503 70.8080  14
   3   4 -13 1013.30 88.2868  15
   3  -4 -13 980.752 82.5283  15
   3  -4 -12 1783.86 113.520  14
   3  -4 -12 1573.72 110.299  20
   3   4 -12 1607.84 117.663  15
   3  -4 -11 253.509 48.4513  20
   3  -4 -11 340.633 57.2785   5
   3  -4 -11 283.457 57.2289  14
   3   4 -11 269.866 48.1176  24
   3   4 -11 294.350 58.1151  15
   3  -4 -10 568.218 68.8434   5
   3  -4 -10 685.506 73.0433  20
   3   4 -10 588.523 64.5560  14
   3   4 -10 584.380 65.9062  24
   3   4 -10 545.352 69.2176  15
   3  -4  -9 196.271 39.2053  20
   3  -4  -9 171.183 35.6310  19
   3  -4  -9 157.864 34.7604  24
   3   4  -9 148.392 37.4953  15
   3   4  -9 185.777 32.5346  14
   3  -4  -9 253.860 44.9881   5
   3  -4  -8 9770.65 545.976  34
   3   4  -8 9744.43 547.726  34
   3  -4  -7 53.0144 44.1022  34
   3   4  -7 33.2703 46.0549  34
   3  -4  -6 11465.1 493.253  28
   3  -4  -6 11679.6 523.692  34
   3   4  -6 10409.6 495.821  34
   3   4  -6 12546.8 504.922  33
   3  -4  -6 10856.9 506.297   4
  -3  -4   6 12200.1 493.353   3
   3   4  -6 10766.3 509.181   4
  -3  -4   5 41.5050 36.2565   3
   3  -4  -5 8.82766 38.4325  34
   3  -4  -5 37.5474 45.7486   4
   3   4  -5 46.5334 40.9440  33
   3   4  -5-7.78254 47.1529   4
   3   4  -5 51.7508 50.0525  34
   3  -4  -5 2.16188 48.0526  28
   3   4  -4 30415.5 784.800  33
   3   4  -4 27835.8 783.430  34
   3   4  -4 28677.0 799.918   4
   3  -4  -4 29288.8 802.680   4
   3  -4  -4 29125.2 789.537  28
   3   4  -3 5200.71 255.449  33
   3  -4  -3 5019.84 261.328  34
  -3  -4   3 5615.54 271.256   3
   3  -4  -3 5668.51 273.002   4
   3   4  -3 5086.83 261.664   4
   3  -4  -3 5604.88 273.519  28
   3   4  -3 5212.47 264.510  34
   3  -4  -2 12442.4 403.728   1
   3  -4  -2 12004.1 394.079   4
  -3   4   2 11670.2 343.359  36
  -3  -4   2 12394.0 304.365   2
   3  -4  -2 12081.6 398.636  28
   3   4  -2 11760.6 392.449   4
  -3  -4   1 6965.67 236.118   2
   3  -4  -1 7135.96 274.254   4
   3   4  -1 6622.97 268.298   4
   3  -4  -1 7008.76 281.699   1
  -3  -4   0 6033.39 232.902   2
  -3   4   0 5634.44 213.011  36
   3  -4   0 5979.96 262.969   1
  -3  -4  -1 461.513 70.0130   2
   3  -4   1 420.934 74.1261   1
  -3  -4  -2 818.632 99.9016   2
   3  -4   2 870.464 110.282  31
  -3   4  -2 979.261 77.7462  29
   3  -4   3 4085.46 240.101  31
  -3  -4  -3 3770.95 230.898   2
  -3   4  -3 3890.38 184.198  29
  -3  -4  -4 567.668 99.7660   2
   3  -4   4 419.757 86.3829  31
  -3  -4  -4 444.988 93.6843  29
  -3  -4  -5 42406.6 1039.50  34
   3  -4   5 42756.0 1017.44  31
  -3   4  -5 37632.2 891.720  30
  -3  -4  -5 33131.7 943.531   2
  -3  -4  -5 37019.6 1002.03  29
  -3   4  -5 34727.5 982.831  34
  -3  -4  -6 17114.9 654.462  34
  -3   4  -6 15909.0 641.814  34
   3  -4   6 18220.2 631.162  31
  -3   4  -6 17622.6 583.489  30
  -3   4  -7 1259.68 187.552  34
  -3   4  -7 1065.49 152.968   2
  -3  -4  -7 948.683 150.482   2
   3  -4   7 1205.84 157.550  31
  -3   4  -7 1323.42 167.205  30
  -3  -4  -7 1278.16 188.376  34
  -3  -4  -8 1942.11 222.156   2
  -3   4  -8 1963.22 247.856  34
  -3  -4  -8 2020.19 249.122  34
  -3   4  -8 1950.74 217.734   2
  -3  -4  -8 1388.04 199.648  30
  -3  -4  -9 3389.65 162.145  20
  -3   4  -9 3525.20 168.125  18
  -3  -4  -9 3560.49 171.820  18
  -3  -4 -10 24551.7 568.935  20
  -3  -4 -10 24075.9 573.067  18
  -3   4 -10 24057.2 569.583  18
  -3  -4 -11 593.317 71.6004  20
  -3   4 -11 495.330 67.4798  18
  -3  -4 -11 522.556 68.8120  18
  -3  -4 -12 420.987 60.3466  20
  -3   4 -12 323.474 55.7315  18
  -3  -4 -12 409.722 61.6081  18
  -3   4 -12 396.227 57.5431  17
  -3  -4 -13 376.964 54.8105  20
  -3  -4 -13 452.349 62.6675  18
  -3   4 -13 406.504 58.2606  18
  -3   4 -13 362.248 48.9502  17
  -3   4 -14 1947.92 103.126  18
  -3  -4 -14 1819.20 100.739  18
  -3   4 -14 1804.33 89.8733  15
   3   5 -14 1060.67 76.2933  15
   3  -5 -14 1079.80 72.2759  15
   3   5 -14 973.245 70.1840  13
   3  -5 -13 3214.51 145.397  20
   3  -5 -13 3040.17 134.960  14
   3   5 -13 3203.61 153.418  15
   3  -5 -13 3154.13 146.595  15
   3  -5 -12 5.25475 24.1571  20
   3  -5 -12 14.0132 30.4667  14
   3   5 -12 12.2521 30.3355  15
   3   5 -12 0.46900 21.9959  24
   3   5 -11 6247.15 227.336  24
   3   5 -11 6804.58 231.428  14
   3   5 -11 6375.59 247.186  15
   3  -5 -11 6169.74 234.982  20
   3  -5 -11 5918.51 226.481  14
   3  -5 -11 5910.86 236.969   5
   3  -5 -10 1285.64 104.212   5
   3  -5 -10 1386.75 104.809  20
   3   5 -10 1372.63 109.894  15
   3   5 -10 1452.51 102.110  14
   3  -5  -9 551.372 67.6191   5
   3  -5  -9 474.860 59.3924  20
   3  -5  -9 530.793 64.1626  19
   3   5  -9 421.498 53.3408  14
   3   5  -9 426.722 58.8077  15
   3  -5  -8 5264.40 393.074  34
   3   5  -8 4803.08 377.483  34
   3  -5  -7 28517.5 932.825  34
   3   5  -7 24936.1 883.141  34
   3  -5  -6 3963.29 287.500  34
   3   5  -6 3298.75 265.270  34
   3  -5  -6 3437.52 263.487  28
  -3  -5   6 3721.73 271.295   3
   3   5  -6 3357.50 275.711   4
   3  -5  -6 3375.93 271.688   4
   3   5  -6 3878.14 273.479  33
   3  -5  -5 2287.39 207.671  34
   3  -5  -5 2748.24 223.404   4
   3   5  -5 1965.62 193.479   4
   3  -5  -5 1879.36 183.657  28
   3   5  -5 2038.54 195.779  34
  -3  -5   5 2275.25 198.653   3
   3   5  -5 2215.21 190.104  33
  -3  -5   4 50.6188 42.8366   3
   3  -5  -4-4.30133 39.3478   4
   3   5  -4 15.3231 45.3799   4
   3   5  -4 55.7002 50.2686  34
   3   5  -4-11.8839 44.1387  33
   3  -5  -4 28.3434 41.4081  28
   3  -5  -4 60.6785 46.4812  34
   3   5  -3 4630.28 244.121  33
   3   5  -3 4368.65 241.364   4
   3  -5  -3 4582.82 244.980   4
   3  -5  -3 4527.62 254.046  28
  -3  -5   3 4627.31 252.360   3
   3  -5  -3 4590.93 238.864   1
   3  -5  -2 616.183 87.4291   1
   3  -5  -2 509.433 75.8003  32
  -3  -5   2 589.315 87.6944   3
   3  -5  -2 625.276 83.1646   4
   3   5  -2 507.418 76.1603   4
  -3  -5   2 631.090 64.4131   2
   3  -5  -2 784.869 99.1375  28
  -3   5   2 730.920 81.4410  36
   3  -5  -1 1611.63 136.017   1
   3   5  -1 1525.91 77.6606  36
  -3  -5   1 1351.97 104.035   2
   3  -5  -1 1772.30 128.459   4
   3   5  -1 1635.16 126.675   4
  -3  -5   1 1471.20 130.190   3
  -3   5   1 1515.11 112.694  36
   3  -5  -1 1532.63 117.604  32
  -3  -5   0 305.227 55.6156   2
  -3   5   0 211.377 46.2214  36
   3  -5   0 270.457 64.6939   1
   3  -5   1 223.889 61.7736  31
   3  -5   1 254.389 68.2638   1
   3  -5   2 6442.19 305.532  31
  -3  -5  -2 6711.26 252.090   3
  -3   5  -2 6633.62 203.307  29
  -3  -5  -3 11705.5 330.128   3
   3  -5   3 10692.2 419.264  31
   3  -5   4 213.847 73.0216  31
  -3   5  -4 269.100 53.2133  30
  -3  -5  -4 177.275 70.8427  29
  -3  -5  -4 189.362 65.4445   2
  -3   5  -5 4272.84 286.733  34
  -3  -5  -5 4315.90 285.841  34
   3  -5   5 4914.91 299.866  31
  -3   5  -5 4423.73 237.437  30
  -3  -5  -5 4501.51 300.224  29
   3  -5   6 17852.1 648.455  31
  -3  -5  -6 17972.5 652.128   2
  -3   5  -6 16679.9 660.793  34
  -3  -5  -6 18640.3 685.093  34
  -3  -5  -7 925.646 162.315  34
  -3   5  -7 770.749 130.337   2
  -3  -5  -7 929.298 148.639   2
   3  -5   7 813.542 139.013  31
  -3   5  -7 700.192 140.513  34
  -3  -5  -8 14076.0 672.258  34
  -3   5  -8 12219.4 575.922   2
  -3   5  -8 13525.0 673.740  34
  -3  -5  -8 12342.8 598.935   2
  -3  -5  -8 11555.8 590.899  30
  -3  -5  -9 3190.54 158.911  20
  -3   5  -9 2943.67 157.427  18
  -3  -5 -10 10813.7 331.144  20
  -3   5 -10 10625.5 331.214  18
  -3  -5 -10 10703.2 335.481  18
  -3  -5 -11 6786.67 248.015  20
  -3   5 -11 6438.32 247.636  18
  -3  -5 -11 7112.40 260.519  18
  -3   5 -12 360.259 58.1063  18
  -3  -5 -12 350.116 57.2182  18
  -3   5 -12 272.152 48.8273  17
  -3  -5 -12 314.207 49.9068  20
  -3  -5 -13 2101.47 117.372  20
  -3   5 -13 2151.40 118.466  17
  -3   5 -13 1976.12 108.944  15
  -3   5 -13 2063.87 124.362  18
  -3  -5 -13 2138.89 124.056  18
  -3  -5 -14 321.409 46.3357  18
  -3   5 -14 358.351 43.8564  13
   3   6 -14 433.097 49.9942  15
   3  -6 -14 446.672 44.6455  15
   3   6 -14 408.249 44.9568  13
   3  -6 -13 515.017 58.9370  20
   3  -6 -13 487.298 58.3867  15
   3   6 -13 525.085 63.1486  15
   3  -6 -13 518.873 57.2328  14
   3  -6 -12 259.062 52.2544   5
   3   6 -12 191.386 35.9299  24
   3  -6 -12 213.186 41.1417  20
   3  -6 -12 172.849 41.6165  14
   3   6 -12 133.947 43.8400  15
   3  -6 -11 20.3400 24.0777  20
   3  -6 -11 94.7944 38.8113   5
   3   6 -11 26.4042 28.0503  24
   3   6 -11 77.3048 40.4832  15
   3  -6 -10 4187.04 193.169   5
   3  -6 -10 3619.23 175.345  20
   3   6 -10 4215.47 178.707  14
   3   6 -10 3803.98 186.289  15
   3  -6  -9 1915.07 125.613   5
   3  -6  -9 2091.31 127.923  19
   3   6  -9 2132.05 132.538  15
   3  -6  -9 2003.68 124.084  20
   3   6  -9 1961.05 116.280  14
   3   6  -8 3486.41 320.872  34
   3  -6  -8 3729.62 333.376  34
   3  -6  -7 14819.1 624.979  28
   3   6  -7 13955.9 627.018  34
   3  -6  -6 1773.79 198.849  34
   3   6  -6 1862.42 200.582  34
  -3  -6   6 2461.24 226.786   3
   3  -6  -6 2006.62 203.807  28
   3   6  -6 2290.20 212.541  33
   3   6  -5 2001.93 183.384  33
   3   6  -5 2013.61 195.392   4
   3  -6  -5 1732.82 177.925  28
   3  -6  -5 1740.19 180.290  34
  -3  -6   5 1946.80 189.080   3
   3   6  -5 1831.56 183.345  34
   3  -6  -5 1784.92 184.230   4
   3   6  -4 948.121 120.835  34
   3  -6  -4 951.090 122.489   4
   3   6  -4 1048.21 130.859   4
   3  -6  -4 920.261 126.816  28
  -3  -6   4 1106.42 140.515   3
   3   6  -4 876.753 114.633  33
   3  -6  -4 1240.65 139.147  34
   3  -6  -3 12284.7 456.310  28
   3  -6  -3 12684.2 432.906   1
   3  -6  -3 12921.8 437.304   4
   3   6  -3 12201.3 432.126   4
   3  -6  -3 12010.1 446.320  32
  -3  -6   3 12450.7 458.653   3
   3  -6  -2 14589.6 439.968   4
  -3   6   2 14086.8 431.233  36
   3  -6  -2 14621.2 462.951   1
  -3  -6   2 15536.1 494.153   3
   3  -6  -2 13780.0 451.564  32
  -3  -6   2 14053.0 386.392   2
   3   6  -2 13731.8 434.341   4
  -3   6   1 52216.6 1123.70  36
  -3  -6   1 54985.5 1187.08   3
   3  -6  -1 54453.2 1129.55  32
  -3  -6   1 57214.9 1126.16   2
   3   6  -1 57095.7 1140.26   4
   3  -6  -1 61253.1 1144.56   4
   3  -6  -1 56677.4 1191.03   1
   3   6  -1 59248.1 1034.96  36
   3  -6   0 17370.3 522.624   1
  -3   6   0 17259.6 473.349  36
  -3  -6   0 18045.6 505.890   3
  -3  -6   0 16241.5 479.841   2
   3  -6   1 292.628 68.9416  31
  -3  -6  -1 314.769 66.1269   2
  -3   6  -1 253.561 21.3629  29
  -3  -6  -2 67.8651 33.7781   3
  -3  -6  -2 3.87239 39.0793   2
   3  -6   2-54.9608 50.8976  31
  -3  -6  -3 183.725 41.0089   3
  -3  -6  -3 157.922 63.4511   2
   3  -6   3 180.213 67.5659  31
   3  -6   4 5853.34 328.751  31
  -3  -6  -4 6426.58 344.378  29
  -3  -6  -4 6457.36 338.353   2
  -3  -6  -5 382.070 92.4075  34
  -3  -6  -5 286.297 79.5239   2
  -3   6  -5 283.530 82.8142  34
  -3  -6  -5 429.758 100.667  29
   3  -6   5 292.239 81.6899  31
  -3  -6  -6 454.208 100.969   2
  -3   6  -6 341.255 90.6487  34
  -3  -6  -6 482.178 108.615  34
   3  -6   6 429.467 104.105  31
  -3  -6  -6 351.396 93.1912  29
   3  -6   7 1781.94 211.040  31
  -3  -6  -7 1508.02 195.850   2
  -3   6  -7 1811.33 225.040  34
  -3  -6  -7 2053.33 234.669  34
  -3   6  -8 1667.51 229.491  34
  -3  -6  -8 1637.61 228.137  34
  -3  -6  -8 1309.21 194.292  30
  -3  -6  -8 1361.56 194.867   2
  -3   6  -9 40547.9 834.888  18
  -3  -6  -9 41072.0 833.563  20
  -3   6 -10 2956.40 157.818  18
  -3  -6 -10 2937.67 159.827  18
  -3  -6 -10 2765.44 152.916  20
  -3   6 -11 3711.26 180.126  18
  -3  -6 -11 3588.49 179.393  18
  -3  -6 -11 3653.84 175.542  20
  -3  -6 -12 37.3011 30.8823  20
  -3   6 -12 14.0636 23.1141  17
  -3   6 -12 31.4349 32.2125  18
  -3  -6 -12 44.3507 35.1294  18
  -3  -6 -13 10722.1 298.435  20
  -3   6 -13 10934.2 309.968  18
  -3   6 -13 10935.3 300.397  17
  -3  -6 -13 10488.6 307.535  18
  -3  -6 -14 96.3522 35.6197  18
  -3   6 -14 67.3088 27.2401  13
   3   7 -14 1148.43 72.5170  13
   3  -7 -14 1148.14 66.9175  15
   3  -7 -14 1281.11 70.1869  14
   3   7 -14 1244.97 77.9288  15
   3  -7 -13 466.438 53.8348  20
   3  -7 -13 376.839 47.5683  14
   3   7 -13 468.082 58.8578  15
   3  -7 -13 391.357 49.2845  15
   3   7 -13 439.970 55.4179  13
   3  -7 -12 106.656 42.5786   5
   3  -7 -12 55.7304 27.5057  20
   3   7 -12 62.1795 34.7054  15
   3   7 -12 37.6288 24.4213  24
   3  -7 -12 32.2180 28.8780  14
   3  -7 -11-23.2987 26.2413  20
   3  -7 -11 26.5792 26.1461   5
   3   7 -11 22.0446 28.7947  15
   3   7 -11-23.7734 30.6014  24
   3  -7 -10 5044.06 218.011   5
   3  -7 -10 5177.12 214.559  20
   3  -7 -10 5345.11 220.260  19
   3   7 -10 5662.18 228.650  15
   3  -7  -9 23.8021 27.5841  20
   3  -7  -9 32.7485 27.7914  19
   3  -7  -9 59.6430 28.7500   5
   3   7  -9 57.8985 32.5047  15
  -3  -7   8 140.482 73.6371  31
   3  -7  -8 239.826 89.6598  34
   3   7  -8 13.6295 52.4463  34
   3   7  -7 3433.00 283.848  33
   3  -7  -7 3697.60 307.138  34
   3  -7  -7 2828.27 264.435  28
   3   7  -7 3353.45 288.043  34
  -3  -7   6 5.31414 37.4414   3
   3  -7  -6 37.1121 47.8696  34
   3  -7  -6-4.07427 42.1240  28
   3   7  -6-24.3087 49.1645  33
   3   7  -6-11.7981 41.8552  34
   3   7  -5 30892.1 847.768  33
   3   7  -5 28408.9 836.021  34
   3  -7  -5 29663.0 855.438  34
   3  -7  -5 29129.7 867.109  28
   3   7  -5 27921.9 848.530   4
   3  -7  -5 29762.0 857.589   4
  -3  -7   5 30013.3 886.697   3
   3  -7  -4 10336.4 445.537  32
   3   7  -4 10631.6 425.416  33
   3  -7  -4 10463.9 426.368  34
   3  -7  -4 10214.2 420.886   4
   3   7  -4 9895.92 419.807   4
   3  -7  -4 10353.2 445.301  28
  -3  -7   4 11476.7 471.489   3
   3   7  -4 9980.80 412.654  34
   3  -7  -3 74428.4 1448.38   1
   3   7  -3 66232.2 1416.12   4
   3  -7  -3 68937.4 1472.42  32
   3  -7  -3 72971.2 1433.45   4
   3  -7  -3 66564.1 1469.74  28
  -3  -7   3 69788.2 1497.31   3
   3  -7  -2 4372.36 218.078   4
  -3   7   2 3658.78 214.520  36
   3  -7  -2 3642.61 221.456  32
   3  -7  -2 4301.00 239.539   1
   3   7  -2 4191.38 217.396   4
  -3  -7   2 4736.73 261.979   3
  -3  -7   2 4279.42 201.773   2
   3  -7  -1 69018.1 1427.35   1
   3  -7  -1 67629.1 1366.98  32
  -3   7   1 67907.3 1383.26  36
  -3  -7   1 71277.4 1437.81   3
   3   7  -1 72514.2 1285.41  36
  -3  -7   1 64599.7 1350.76   2
   3   7  -1 69120.2 1349.08   4
   3  -7   0 111532. 2085.17   1
   3   7   0 112655. 1944.58  36
  -3  -7   0 106198. 2023.48   2
  -3  -7   0 110193. 2044.93   3
  -3   7   0 110557. 2016.59  36
   3  -7   1 13475.2 465.987  31
  -3  -7  -1 12412.0 444.103   2
   3  -7   1 13499.5 351.841  32
  -3  -7  -2 14947.9 503.917   2
  -3  -7  -2 14291.6 432.802   3
   3  -7   3 10536.8 442.275  31
  -3  -7  -3 10008.0 339.513   3
   3  -7   4 19725.9 671.955  31
  -3  -7  -4 18830.1 646.196   2
  -3  -7  -5 666.349 114.583  34
  -3   7  -5 532.271 101.532  34
  -3  -7  -5 636.230 117.232   2
   3  -7   5 626.953 118.737  31
  -3  -7  -5 670.722 122.216  29
  -3   7  -6 591.197 114.967  34
  -3  -7  -6 329.520 83.4669  32
  -3  -7  -6 388.846 97.7760   2
  -3  -7  -6 491.369 110.459  29
   3  -7   6 406.672 105.485  31
  -3  -7  -6 446.802 108.096  34
  -3  -7  -7 446.323 107.254  34
  -3   7  -7 531.738 125.550  34
  -3  -7  -7 359.533 98.0258   2
   3  -7   7 351.602 100.858  31
  -3  -7  -8 4417.26 363.023   2
  -3   7  -8 5021.83 401.929  34
   3  -7   8 5421.69 393.324  31
  -3  -7  -8 5350.97 404.576  34
  -3  -7  -8 4642.67 371.871  30
  -3  -7  -9 146.324 41.4240  20
  -3   7  -9 235.721 52.3272  18
  -3  -7 -10 620.666 76.0434  18
  -3  -7 -10 762.391 79.4266  20
  -3   7 -10 780.822 82.3559  18
  -3  -7 -11 27.4862 29.2432  20
  -3  -7 -11 59.1837 35.7975  18
  -3   7 -11 35.5594 28.9615  17
  -3   7 -11 14.8109 30.5777  18
  -3  -7 -12 928.802 82.6541  20
  -3  -7 -12 929.485 88.5469  18
  -3   7 -12 923.987 86.2292  17
  -3   7 -12 898.559 86.0763  18
  -3  -7 -13 85.7106 32.4736  20
  -3   7 -13 136.382 39.5521  13
  -3  -7 -13 136.154 43.4466  18
  -3   7 -13 79.5065 33.3190  17
  -3  -7 -14 6825.85 198.546  18
  -3   7 -14 6627.71 191.216  13
   3   8 -14 1521.43 81.4905  13
   3   8 -14 1540.14 84.8532  15
   3  -8 -14 1515.64 75.7544  14
   3  -8 -13 84.7185 30.2783  20
   3   8 -13 113.694 36.1603  15
   3  -8 -13 102.586 28.9490  15
   3  -8 -13 77.7219 28.2571  14
   3   8 -13 90.8731 31.4939  13
   3  -8 -12 98.3357 34.8995   5
   3  -8 -12 81.4151 29.6954  20
   3  -8 -12 81.2199 27.4354  14
   3   8 -12 47.3906 22.6257  24
   3   8 -12 86.5523 34.6865  15
   3  -8 -11 265.097 50.1394  20
   3  -8 -11 208.671 45.4396   5
   3   8 -11 230.697 47.2963  15
   3  -8 -10 23.6081 23.2707  20
   3  -8 -10 29.6913 27.0961  19
   3  -8 -10 50.5190 31.0022   5
   3   8 -10 62.1330 38.9427  15
   3  -8  -9 390.182 56.7196  19
   3   8  -9 396.082 58.2990  15
   3  -8  -9 510.911 64.6555  25
   3  -8  -9 358.954 54.7560  20
   3  -8  -9 447.596 61.2020   5
   3  -8  -8-7.78695 19.0806   5
  -3  -8   8 59.5279 55.1243  31
   3  -8  -8 27.3550 25.4353  19
   3   8  -8-8.52375 61.5206  34
   3  -8  -8 84.7140 56.1616  34
   3   8  -8 45.1783 22.6632  15
   3  -8  -7 640.551 128.661  34
   3   8  -7 623.440 120.367  33
   3   8  -7 665.795 131.523  34
   3  -8  -7 557.853 117.045  28
   3  -8  -6 6769.99 403.833  28
   3  -8  -6 7513.53 412.924  34
   3   8  -6 6869.58 395.141  34
   3   8  -6 7621.27 411.243  33
  -3  -8   6 7487.61 436.721   3
   3   8  -5 1436.57 161.611  33
   3   8  -5 1236.30 156.005   4
   3  -8  -5 1416.80 161.954   4
   3   8  -5 1484.72 162.677  34
   3  -8  -5 1282.67 169.338  32
   3  -8  -5 1512.22 166.466  34
   3  -8  -5 1356.54 169.125  28
  -3  -8   5 1313.85 168.813   3
   3  -8  -4 90985.5 1862.28  28
   3   8  -4 91590.9 1812.71  33
   3  -8  -4 89888.4 1868.29  32
   3   8  -4 89074.3 1791.29   4
   3  -8  -4 88623.5 1785.19   4
   3  -8  -3 1213.47 130.232   1
   3  -8  -3 1124.67 138.475  32
   3   8  -3 981.573 115.067   4
  -3  -8   3 1337.09 157.775   3
   3  -8  -3 1092.23 119.940   4
  -3  -8   2 60185.8 1235.13   2
   3  -8  -2 68705.1 1265.92   4
   3   8  -2 58675.5 1237.67   4
  -3  -8   2 66184.1 1389.80   3
   3  -8  -2 60460.8 1315.76  32
  -3   8   2 61963.9 1310.42  36
   3  -8  -2 60151.0 1308.23   1
   3   8  -1 33367.2 750.562   4
   3  -8  -1 30743.0 776.818  32
  -3  -8   1 33322.8 799.936   2
   3  -8  -1 36725.7 759.634   4
  -3  -8   1 30266.2 822.698   3
  -3   8   1 35587.5 834.796  36
   3   8  -1 31952.1 718.728  36
   3  -8  -1 32076.2 831.449   1
   3  -8   0 73088.6 1555.84   1
   3  -8   0 72996.9 1522.15  31
   3   8   0 73346.3 1441.10  36
   3  -8   0 78241.1 1459.32  32
   3  -8   0 79407.4 1446.32   4
  -3  -8   0 76610.9 1540.46   2
  -3   8   0 76766.9 1524.45  36
  -3   8  -1 649.750 94.9744  36
  -3  -8  -1 845.475 101.935   3
   3  -8   1 569.295 95.4892  31
  -3  -8  -1 723.664 102.034   2
  -3  -8  -2 449.245 88.2768   2
  -3  -8  -2 526.187 81.1835   3
   3  -8   2 392.791 86.5137  31
   3  -8   3 2787.94 224.948  31
  -3  -8  -3 3139.85 235.341   2
  -3  -8  -3 3371.67 189.857   3
  -3   8  -4 977.792 128.952  34
  -3  -8  -4 948.491 140.982  29
  -3  -8  -4 1117.53 148.316   2
   3  -8   4 926.265 139.178  31
  -3  -8  -4 967.382 125.523  34
  -3   8  -5 7963.53 414.116  34
  -3  -8  -5 9545.26 436.329  34
   3  -8   5 8606.63 446.992  31
  -3  -8  -5 8993.22 457.492  29
  -3  -8  -5 8007.98 429.315   2
  -3   8  -6 7391.29 427.495  34
  -3  -8  -6 7189.33 416.229  34
  -3  -8  -6 7227.03 423.804   2
  -3  -8  -6 7127.31 433.077  29
   3  -8   6 7080.02 425.863  31
  -3   8  -7 509.151 119.979  34
  -3  -8  -7 402.946 99.1645  34
   3  -8   7 371.902 108.943  31
  -3  -8  -7 362.001 101.633   2
  -3   8  -8 3122.12 153.167  18
  -3   8  -8 2988.16 306.894  34
  -3  -8  -8 3813.92 339.330  34
  -3  -8  -8 3012.54 153.311   6
  -3  -8  -8 3549.74 325.313   2
   3  -8   8 2360.98 269.589  31
  -3  -8  -9 856.027 83.3357  20
  -3   8  -9 958.767 86.1609  18
  -3  -8 -10 4596.25 201.903  20
  -3   8 -10 4223.80 197.959  17
  -3  -8 -10 4640.26 203.972  18
  -3   8 -10 4442.96 198.662  18
  -3  -8 -11 1352.83 103.573  20
  -3   8 -11 1514.57 112.045  18
  -3  -8 -11 1340.32 108.113  18
  -3   8 -11 1362.86 108.229  17
  -3  -8 -12 3292.04 157.747  20
  -3   8 -12 3221.38 160.461  18
  -3  -8 -12 3148.38 160.138  18
  -3   8 -12 3127.91 157.020  17
  -3   8 -13 157.413 39.0572  21
  -3  -8 -13 131.402 33.2506  20
  -3  -8 -13 158.049 38.2539  18
  -3   8 -13 112.736 30.2822  17
  -3   8 -13 153.148 36.5591  13
  -3  -8 -14 4562.22 152.980  18
  -3   8 -14 4333.96 144.771  13
   3  -9 -14 744.672 50.8098  14
   3   9 -14 720.092 53.5974  13
   3   9 -14 774.238 57.4732  15
   3  -9 -13 3255.25 136.293  20
   3   9 -13 3098.63 140.700  15
   3  -9 -13 3102.13 129.273  14
   3   9 -13 3257.58 142.523  13
   3  -9 -12 42.8826 33.7474   5
   3  -9 -12 42.6181 26.5116  20
   3  -9 -12-23.5730 33.1808  14
   3   9 -12 51.6651 26.1082  24
   3   9 -12 27.6070 26.7118  13
   3   9 -12-8.98199 25.0840  15
   3  -9 -11 1344.57 106.382   5
   3  -9 -11 1378.50 102.962  20
   3   9 -11 1439.96 109.348  15
   3  -9 -10 1144.06 98.8964   5
   3  -9 -10 1308.08 101.871  20
   3  -9 -10 1345.21 104.695  19
   3   9 -10 1336.96 106.545  15
   3   9  -9 1056.95 94.8849  21
   3  -9  -9 1118.48 96.9182   5
   3  -9  -9 1244.44 99.7861  20
   3  -9  -9 1199.76 98.5512  19
   3   9  -9 1194.59 99.6533  15
   3  -9  -9 1319.80 105.763  25
   3   9  -8 657.733 72.7705  21
   3  -9  -8 510.971 64.6404   5
   3  -9  -8 631.407 70.2755  19
   3   9  -8 665.038 71.0276  15
   3  -9  -8 570.161 65.5800  25
   3  -9  -7 107.251 47.9724  34
   3   9  -7 26.8833 49.4640  33
  -3  -9   6-8.11076 48.0381   3
   3   9  -6 28.3067 53.7442  33
   3   9  -6-48.1410 43.3857  34
   3  -9  -6 10.8235 41.6176  34
   3  -9  -6 73.7170 58.3659  28
   3   9  -5 1454.07 168.048  33
   3  -9  -5 1499.24 186.211  32
   3  -9  -5 1200.76 161.916  28
  -3  -9   5 1502.44 187.567   3
   3  -9  -4 2227.68 206.425  32
   3   9  -4 2308.64 192.587   4
   3  -9  -4 2005.10 177.260   4
   3  -9  -4 2082.18 202.632  28
   3   9  -4 2210.09 196.416  33
  -3  -9   4 1998.90 206.172   3
  -3   9   3 1509.70 159.033  36
   3  -9  -3 1668.95 145.027   4
   3  -9  -3 1711.55 173.591  32
   3   9  -3 1606.32 144.091   4
  -3  -9   3 1997.04 197.128   3
   3  -9  -3 1819.32 162.803   1
  -3  -9   2 4610.43 240.558   2
  -3  -9   2 5315.74 307.162   3
   3  -9  -2 4235.68 258.630  32
   3  -9  -2 5359.91 243.266   4
   3   9  -2 4836.12 234.378   4
   3  -9  -2 5018.83 274.552   1
  -3   9   2 4186.86 257.601  36
   3  -9  -1 8858.90 387.866   1
   3  -9  -1 10311.2 328.133   4
   3   9  -1 9837.64 339.011  36
   3  -9  -1 9182.18 368.254  32
   3   9  -1 9534.07 325.692   4
  -3  -9   1 8475.39 392.052   3
  -3  -9   1 9653.18 381.499   2
  -3   9   1 10023.2 397.196  36
   3   9   0 91.1537 37.3553  36
  -3   9   0 63.1686 41.2789  36
   3  -9   0 60.2164 33.9668  32
  -3  -9   0 55.5956 46.3663   2
   3  -9   0-6.64900 43.6830   1
   3  -9   0 69.7408 26.5029   4
  -3  -9   0 50.2862 46.7818   3
   3  -9   0 51.6848 44.7688  31
  -3   9  -1 7836.91 355.445  36
   3  -9   1 8030.47 370.562  31
  -3  -9  -1 8919.59 389.301   2
  -3  -9  -1 9115.40 370.724   3
  -3  -9  -2 25836.3 754.396   2
   3  -9   2 23258.6 729.784  31
  -3  -9  -2 24916.0 676.750   3
  -3  -9  -3 9997.70 451.883   2
   3  -9   3 9409.69 445.606  31
  -3  -9  -3 10249.0 373.111   3
  -3  -9  -4 2473.90 225.365  29
  -3   9  -4 2261.87 191.791  34
  -3  -9  -4 2033.39 181.775  34
   3  -9   4 2131.39 219.679  31
  -3  -9  -4 2158.29 215.716   2
  -3  -9  -5 18963.3 715.151  29
  -3   9  -5 21046.0 706.837  34
  -3  -9  -5 20926.5 693.149  34
   3  -9   5 21432.7 761.776  31
  -3   9  -6 47.0740 39.1724  34
  -3  -9  -6-23.3421 44.2921  34
  -3  -9  -6 50.3949 65.2579  29
  -3  -9  -6 29.4181 52.8664   2
  -3   9  -7 112.412 65.3424  34
   3  -9   7 31.6415 62.5981  31
  -3  -9  -7-81.9176 58.1953   2
  -3  -9  -7 19.9932 36.2573  34
  -3  -9  -8 2408.45 135.648  26
  -3   9  -8 2423.59 136.734  26
  -3   9  -8 2530.54 138.262  18
  -3  -9  -8 2610.61 142.510   6
  -3  -9  -9 1765.49 120.218  20
  -3   9  -9 1789.43 123.991  17
  -3   9  -9 1992.02 126.219  18
  -3  -9 -10 45.4048 33.5334  20
  -3   9 -10 47.2432 33.5357  18
  -3   9 -10 48.4984 30.0375  17
  -3  -9 -11-4.42074 29.1165  20
  -3   9 -11 22.6487 29.6808  18
  -3  -9 -11 9.45244 31.3003  18
  -3   9 -11 0.59662 26.7883  17
  -3  -9 -12 1011.51 90.8935  18
  -3   9 -12 892.757 81.3507  17
  -3  -9 -12 931.472 82.6046  20
  -3   9 -12 1021.13 87.1939  13
  -3  -9 -13 604.693 59.4722  20
  -3  -9 -13 667.676 65.8139  18
  -3   9 -13 753.084 65.5724  17
  -3   9 -13 748.571 67.1339  13
  -3   9 -13 556.889 62.3359  21
  -3   9 -14 437.150 42.6436  21
  -3   9 -14 516.409 45.1308  13
   3  10 -14 164.608 27.7084  15
   3 -10 -13 10.5427 18.8576  20
   3 -10 -13-21.9969 26.9738  14
   3  10 -13 14.7849 20.8783  13
   3 -10 -12 75.0402 37.3315   5
   3 -10 -12 70.1221 32.8950  20
   3  10 -12 42.9564 29.1571  15
   3  10 -12 77.3953 31.3037  13
   3 -10 -12 73.7590 31.2875  14
   3  10 -12 78.7353 33.1733  24
   3 -10 -11 84.7659 32.5464  20
   3 -10 -11 39.8984 29.6705   5
   3  10 -11 26.3616 30.8090  15
   3  10 -11 122.613 42.5546  13
   3 -10 -10 842.224 85.6399   5
   3  10 -10 849.792 85.0088  21
   3 -10 -10 842.547 84.9457  20
   3 -10 -10 769.860 83.1089  19
   3  10 -10 831.826 84.1487  15
   3  10  -9 305.713 50.4718  15
   3  10  -9 184.870 44.8720  21
   3 -10  -9 177.651 41.0676  20
   3 -10  -9 224.697 46.9020  19
   3 -10  -9 221.689 48.4366   5
   3  10  -8 3826.33 183.670  21
   3 -10  -8 3921.82 183.014   5
   3  10  -8 4025.76 181.874  15
   3 -10  -8 4022.01 182.736  19
   3 -10  -8 3757.16 175.379  25
  -3 -10   7 2104.36 257.821   3
  -3 -10   7 2559.86 283.547  31
   3 -10  -7 2411.30 257.413  28
  -3 -10   6 65.0488 46.5935   3
   3  10  -6-16.1104 38.0570  33
   3 -10  -5 1650.71 197.189  32
   3 -10  -5 1906.97 208.368  28
   3  10  -5 1628.42 181.289  33
  -3 -10   5 2080.62 228.660   3
   3 -10  -4 335.812 90.2166  28
  -3 -10   4 289.942 84.4581   3
   3 -10  -4 393.036 101.308  32
   3  10  -4 436.183 94.7879  33
  -3  10   3 7089.91 364.895  36
   3 -10  -3 7131.53 371.762  32
   3 -10  -3 6648.30 332.906   1
  -3 -10   3 7006.14 388.192   3
  -3 -10   2 291.121 81.7749   3
   3 -10  -2 238.145 65.6878   1
   3 -10  -2 161.679 61.5758  32
  -3 -10   2 84.2554 43.1236   2
  -3  10   2 203.984 66.3053  36
  -3 -10   1 437.559 91.2032   3
  -3  10   1 531.237 98.0946  36
  -3 -10   1 549.917 91.5313   2
   3 -10  -1 498.984 88.1302  32
   3 -10  -1 425.907 90.5946   1
   3  10  -1 511.623 75.4081  36
   3  10   0 833.571 102.986  36
  -3 -10   0 846.778 119.066   3
  -3  10   0 1021.74 127.820  36
  -3 -10   0 900.132 122.482   2
   3 -10   0 853.887 118.620  31
   3 -10   0 986.490 132.547   1
   3 -10   0 886.397 103.912  32
  -3  10  -1 8263.61 378.666  36
   3 -10   1 8209.59 307.112  32
  -3 -10  -1 8528.72 376.754   3
   3 -10   1 7586.30 374.201  31
  -3 -10  -2 73525.5 1564.58   2
  -3 -10  -2 71242.0 1460.13   3
  -3 -10  -3 1507.72 176.083   2
   3 -10   3 1354.94 169.423  31
   3 -10   4 1912.12 209.347  31
  -3 -10  -4 1958.02 213.845   2
  -3 -10  -5 25901.6 858.504  29
   3 -10   5 26217.6 879.427  31
  -3 -10  -6 7682.82 462.251  29
   3 -10   6 6473.11 434.690  31
  -3 -10  -6 7451.27 453.464   2
   3 -10   7 9070.58 539.735  31
  -3 -10  -7 11380.0 589.010   2
  -3  10  -8 205.600 46.1489  18
  -3  10  -8 152.122 41.3301  17
  -3 -10  -8 197.012 41.1726  26
  -3  10  -8 229.051 49.5284   8
  -3  10  -8 260.545 48.0392  26
  -3 -10  -8 177.726 43.1921   6
  -3 -10  -9 5388.86 216.997  20
  -3  10  -9 4847.81 205.776  18
  -3  10  -9 4784.55 210.420  17
  -3 -10 -10 1259.88 102.024  20
  -3  10 -10 1250.60 102.124  18
  -3  10 -10 1187.69 102.637  17
  -3 -10 -11 18.9530 27.5633  20
  -3  10 -11 38.4227 32.3807  13
  -3 -10 -11-21.9941 35.0534  18
  -3  10 -11-11.6679 27.5956  17
  -3 -10 -12 450.749 57.9867  20
  -3 -10 -12 416.533 59.5912  18
  -3  10 -12 429.564 57.7637  17
  -3  10 -12 366.180 53.0084  13
  -3 -10 -13 1106.41 77.2780  20
  -3 -10 -13 1139.48 82.2313  18
  -3  10 -13 984.586 78.0214  21
  -3  10 -13 1045.81 76.8373  13
  -3  10 -13 1094.74 76.6779  17
  -3 -10 -14 21.0954 17.4626  18
   3  11 -13 16.7095 19.8180  15
   3  11 -13 18.7666 19.1975  13
   3 -11 -12 4360.67 181.599   5
   3 -11 -12 4352.95 172.561  20
   3  11 -12 4412.23 181.513  13
   3  11 -12 4142.94 175.189  15
   3 -11 -12 4459.60 168.315  14
   3  11 -12 4372.51 167.670  24
   3 -11 -11-33.1457 28.4792  20
   3 -11 -11 0.62061 31.4606   5
   3  11 -11 38.9248 29.1671  21
   3  11 -11 3.90465 26.9129  13
   3  11 -11 26.3789 29.9946  15
   3  11 -10 2943.86 160.183  21
   3 -11 -10 2770.21 155.992   5
   3 -11 -10 2826.88 153.705  20
   3 -11 -10 2853.56 157.090  19
   3  11 -10 2967.46 157.659  15
   3  11 -10 2941.61 159.951  13
   3  11  -9 86.5172 36.6046  21
   3 -11  -9-12.9245 25.5368  20
   3  11  -9-47.5707 36.6927  13
   3 -11  -9-11.2159 30.4990  19
   3  11  -9 12.1643 24.9591  15
   3 -11  -9 34.5629 31.6763   5
   3  11  -8 1671.41 119.535  21
   3 -11  -8 1769.80 120.852   5
   3 -11  -8 1734.20 119.721  19
   3 -11  -8 1986.62 129.538  25
   3  11  -8 1751.15 117.700  13
   3  11  -8 1925.61 122.092  15
   3 -11  -7 89.1795 60.8267  28
   3 -11  -7-24.1468 23.7400   5
  -3 -11   7-79.4363 58.0505   3
  -3 -11   7 4.40191 42.0634  31
   3 -11  -7 81.1000 38.3587  25
   3 -11  -7 14.4148 20.1879  19
  -3 -11   6 3616.21 328.369   3
   3  11  -6 3547.89 291.249  33
   3 -11  -6 3326.18 297.359  28
   3 -11  -5 7038.59 421.523  28
   3 -11  -5 7402.83 435.862  32
   3  11  -5 6890.23 393.299  33
  -3 -11   5 6806.78 438.689   3
  -3 -11   4 229.466 84.8170   3
  -3  11   4 213.801 71.8599  36
   3 -11  -4 206.941 76.4768  32
  -3 -11   3 28111.0 905.283   3
  -3  11   3 27422.9 849.503  36
   3 -11  -3 31286.5 896.694  32
   3 -11  -3 30500.0 829.488   1
  -3  11   2 5772.23 330.723  36
   3 -11  -2 5420.82 314.970  32
   3 -11  -2 6247.34 331.250   1
  -3 -11   2 5883.12 304.952   2
  -3 -11   2 5235.47 337.521   3
   3 -11  -1 19983.9 660.294   1
   3 -11  -1 21739.5 650.581  32
  -3  11   1 20329.9 664.990  36
   3  11  -1 23075.6 616.895  36
  -3 -11   1 17791.0 657.547   3
  -3 -11   1 18489.6 623.587   2
   3  11   0 4367.89 248.718  36
   3 -11   0 4016.61 237.278  32
  -3 -11   0 3851.62 261.266   2
  -3  11   0 3834.29 259.832  36
  -3 -11   0 3537.46 255.371   3
   3 -11   0 3514.92 257.229   1
   3 -11   0 3944.81 256.300  31
   3  11   1 13600.1 485.959  36
  -3  11  -1 12282.0 495.455  36
  -3 -11  -1 12315.3 510.918   2
   3 -11   1 13185.0 513.246  31
  -3 -11  -1 12410.2 490.839   3
   3 -11   2 14.7333 48.0524  31
  -3 -11  -2 86.6477 46.9405   3
  -3 -11  -2 6.49904 42.4869   2
  -3 -11  -3 6492.05 367.721  29
   3 -11   3 6083.00 372.412  31
  -3 -11  -3 6949.75 393.063   2
   3 -11   4-5.54794 56.8809  31
  -3 -11  -4 17.2500 43.4564  29
  -3 -11  -4 102.439 63.7604   2
  -3 -11  -5 1099.81 167.557  29
   3 -11   5 1015.40 163.463  31
  -3 -11  -5 1188.15 172.204   2
   3 -11   6 18301.3 777.940  31
  -3 -11  -6 18985.6 773.212  29
  -3 -11  -6 18581.7 767.148   2
   3 -11   7 258.022 97.2845  31
  -3  11  -7 263.465 44.0450  17
  -3 -11  -7 273.193 46.6889   6
  -3  11  -8 566.180 69.2983  17
  -3  11  -8 647.029 70.2477  26
  -3  11  -8 643.861 75.3534   8
  -3  11  -8 690.347 74.0015  18
  -3 -11  -8 688.655 74.8801   6
  -3 -11  -8 584.193 67.1340  26
  -3 -11  -9 1192.65 99.1863  20
  -3  11  -9 1146.53 101.141  17
  -3 -11  -9 1245.97 97.5718  26
  -3  11  -9 1309.95 102.583  13
  -3 -11  -9 1148.27 97.9980   6
  -3  11  -9 1189.99 98.0817  18
  -3 -11 -10 135.994 36.0719  20
  -3  11 -10 141.381 42.7897  17
  -3  11 -10 199.275 40.1790  13
  -3 -11 -11 555.037 64.4872  20
  -3 -11 -11 448.714 62.9651  18
  -3  11 -11 551.671 68.7439  17
  -3  11 -11 567.240 66.5915  13
  -3  11 -12 568.223 63.9314  17
  -3  11 -12 456.862 60.9414  21
  -3 -11 -12 465.956 55.5849  20
  -3 -11 -12 466.008 58.8148  18
  -3  11 -12 483.467 59.8224  13
  -3 -11 -13 36.8644 24.6334  18
  -3  11 -13 17.8436 23.5198  21
  -3 -11 -13 19.9630 20.3122  20
  -3  11 -13 14.9330 18.4041  13
   3 -12 -13 668.455 53.9635  20
   3 -12 -13 509.072 45.7060  14
   3  12 -13 635.504 55.5585  15
   3  12 -13 639.506 56.5978  13
   3 -12 -12 1927.46 114.094   5
   3 -12 -12 1614.55 98.2200  14
   3  12 -12 1932.88 110.925  15
   3  12 -12 1879.04 103.247  24
   3 -12 -12 1724.81 102.770  20
   3  12 -12 1792.15 109.802  13
   3 -12 -11 86.6509 32.4907  20
   3 -12 -11 112.999 38.0790   5
   3  12 -11 64.2396 31.9742  15
   3  12 -11 110.044 33.8059  21
   3  12 -11 123.542 37.4551  13
   3  12 -10 362.450 57.8248  21
   3 -12 -10 276.478 50.9139  20
   3 -12 -10 336.247 55.6407   5
   3 -12 -10 312.853 55.7020  19
   3  12 -10 299.300 52.7849  13
   3  12 -10 366.452 58.0906  15
   3  12  -9 4507.10 206.545  21
   3 -12  -9 4411.83 194.794  20
   3 -12  -9 4647.25 202.830  19
   3  12  -9 4711.57 204.064  15
   3 -12  -9 4547.66 204.011   5
   3  12  -9 4607.18 202.540  13
   3  12  -8 1124.68 99.2602  21
   3 -12  -8 1352.90 106.559   5
   3 -12  -8 1214.70 100.399  19
   3  12  -8 1148.17 95.6757  15
   3  12  -8 1187.69 97.3592  13
   3 -12  -7 86.7062 26.4651  19
   3  12  -7 26.8083 22.1122  21
  -3 -12   7 167.605 84.2601   3
   3 -12  -7 93.8225 31.2587   5
   3  12  -7 151.260 35.9529  13
   3 -12  -7 252.240 62.9569  25
   3  12  -7 123.952 35.5362  15
   3  12  -7 103.245 33.4315   8
  -3 -12   6 29.6024 67.0211   3
   3 -12  -6 40.3237 77.4681  32
   3 -12  -6 91.0705 54.4274  28
   3  12  -6 92.4144 62.3351  33
  -3 -12   5 8831.95 523.138   3
   3 -12  -5 9224.79 505.613  32
   3 -12  -5 8670.06 487.310  28
  -3  12   5 9638.22 505.991  36
   3  12  -5 9862.85 485.815  33
  -3  12   4 27568.7 885.898  36
   3 -12  -4 26939.8 891.649  32
  -3 -12   4 27577.5 944.126   3
   3 -12  -3 17620.1 671.497  32
   3 -12  -3 18557.9 635.353   1
   3 -12  -2 18875.6 661.974  32
   3 -12  -2 19764.9 661.387   1
  -3 -12   2 19001.6 713.517   3
  -3 -12   2 19048.5 632.198   2
  -3 -12   1 4817.69 293.890   2
   3 -12  -1 4286.79 288.118   1
   3  12  -1 4019.25 245.568  36
   3 -12  -1 4151.56 269.150  32
  -3  12   1 3676.74 272.508  36
  -3 -12   1 3811.39 288.790   3
   3 -12   0 21216.3 643.208  32
   3 -12   0 20299.0 669.583  31
   3  12   0 19179.2 629.551  36
  -3 -12   0 21044.6 697.898   2
  -3 -12   0 21880.6 724.682   3
   3 -12   0 20812.1 705.313   1
   3 -12   1 5299.15 324.777  31
  -3  12  -1 5553.81 332.476  36
  -3 -12  -1 5786.94 347.112   2
   3  12   1 5757.64 318.908  36
  -3 -12  -1 5619.42 335.255   3
  -3 -12  -2 1183.55 147.046   3
   3 -12   2 899.499 139.713  31
  -3 -12  -2 999.648 150.365   2
  -3 -12  -3 7489.35 423.755   2
  -3 -12  -3 7783.25 410.410  29
   3 -12   3 7243.68 421.744  31
   3 -12   4 828.008 147.457  31
  -3 -12  -4 1224.79 167.969  29
  -3 -12  -4 1148.35 170.871   2
   3 -12   5 2526.42 265.416  31
  -3 -12  -5 2293.73 247.847   2
  -3 -12  -5 3052.91 280.363  29
   3 -12   6 39.1540 49.8532  31
  -3 -12  -6 48.8869 56.0254   2
  -3  12  -7 1265.14 99.9368  17
  -3  12  -7 1289.02 105.398   8
  -3  12  -7 1461.30 102.185  13
  -3  12  -7 1404.59 103.993  26
  -3 -12  -7 1275.34 99.7080   6
  -3  12  -8 637.570 73.1246  17
  -3 -12  -8 741.380 77.2790  26
  -3  12  -8 743.268 76.9811  26
  -3  12  -8 718.921 76.1711  13
  -3  12  -8 723.675 81.5634   8
  -3 -12  -8 609.358 72.5185   6
  -3  12  -9 21.8113 26.2697  17
  -3  12  -9-27.1458 24.7155   8
  -3 -12  -9 24.2181 21.3040  26
  -3 -12  -9-12.8909 24.2899   6
  -3  12  -9-3.23977 22.6558  13
  -3 -12 -10 1345.73 104.141  20
  -3  12 -10 1115.79 98.9899  17
  -3  12 -10 1387.85 105.620  13
  -3 -12 -11 4.64707 27.6324  20
  -3  12 -11 14.5536 25.0868  17
  -3 -12 -11-7.44297 36.1489  18
  -3  12 -11 20.7638 26.1706  13
  -3 -12 -12 523.700 59.2319  20
  -3  12 -12 511.279 58.4385  13
  -3  12 -12 465.206 56.6089  17
  -3 -12 -12 472.781 59.5536  18
  -3  12 -12 440.278 60.5677  21
  -3  12 -13 1033.54 74.5116  21
  -3 -12 -13 988.727 68.2662  20
  -3 -12 -13 896.326 67.7276  18
  -3  12 -13 934.506 66.9366  13
   3 -13 -13 902.181 59.2155  20
   3  13 -13 980.252 67.2742  13
   3 -13 -13 870.704 56.4706  14
   3  13 -12 140.281 33.4704  24
   3  13 -12 128.038 34.4262  15
   3 -13 -12 99.8290 31.1432  14
   3  13 -12 102.255 33.4186  13
   3 -13 -12 153.816 34.2105  20
   3  13 -11 2397.92 132.624  15
   3 -13 -11 2666.66 136.541  20
   3  13 -11 2843.62 145.895  21
   3 -13 -11 2605.67 141.369   5
   3  13 -11 2567.31 140.826  13
   3  13 -10 2073.03 132.921  21
   3 -13 -10 1899.09 125.437   5
   3 -13 -10 2042.76 125.185  20
   3 -13 -10 2079.11 130.398  19
   3  13 -10 2071.95 127.805  15
   3  13 -10 2144.83 132.493  13
   3  13  -9 2295.35 144.238  21
   3 -13  -9 2218.19 137.946   5
   3 -13  -9 2275.67 135.814  20
   3 -13  -9 2293.75 140.261  19
   3  13  -9 2282.29 139.900  13
   3  13  -9 2482.10 142.250  15
   3  13  -8 4982.80 218.023  21
   3 -13  -8 5117.93 213.846   5
   3 -13  -8 5111.14 213.334  19
   3  13  -8 4883.82 207.802  13
   3  13  -8 5220.53 211.377  15
   3  13  -7 5452.57 227.593  21
   3 -13  -7 5437.27 218.702   5
   3 -13  -7 5855.62 224.612  19
   3  13  -7 5686.49 228.587   8
   3  13  -7 5415.87 215.832  13
   3  13  -7 5815.36 219.921  15
  -3 -13   6 2034.73 263.184   3
   3 -13  -6 1933.57 241.241  32
  -3 -13   6 1657.99 236.191  31
   3 -13  -6 1658.27 221.319  28
  -3  13   6 1641.10 214.316  36
  -3 -13   5 3679.22 344.110   3
   3 -13  -5 4095.82 338.240  32
  -3  13   5 3870.87 323.809  36
   3 -13  -5 4030.88 330.310  28
   3  13  -5 3992.34 308.210  33
  -3  13   4 438.802 107.887  36
  -3 -13   4 452.621 128.252   3
   3 -13  -4 417.927 106.840  32
  -3 -13   3 23.9459 54.8663   3
  -3  13   3 76.5475 60.9049  36
   3 -13  -3 7.86411 40.9195  32
   3 -13  -2 27005.2 808.693   1
  -3 -13   2 24866.6 862.623   3
   3 -13  -2 25183.7 806.885  32
  -3  13   2 23918.6 812.801  36
  -3 -13   1 3356.87 257.191   2
   3 -13  -1 3155.78 252.809   1
   3 -13  -1 2907.69 233.558  32
   3  13  -1 3008.32 223.320  36
  -3  13   1 3196.82 259.040  36
  -3 -13   1 3257.91 276.447   3
   3 -13   0 1706.57 169.518  32
   3 -13   0 1777.79 182.661  31
  -3  13   0 1673.38 186.852  36
  -3 -13   0 1970.97 202.427   2
   3  13   0 1435.29 158.886  36
   3 -13   0 1745.60 190.621   1
  -3 -13   0 1645.34 188.158   3
  -3  13  -1 2820.83 242.980  36
  -3 -13  -1 2754.66 240.994   3
   3 -13   1 2547.79 228.730  31
   3  13   1 2387.68 210.864  36
  -3 -13  -1 2800.36 250.061   2
  -3 -13  -2 1764.45 189.172   3
  -3 -13  -2 1415.52 185.555   2
   3 -13   2 1587.23 191.706  31
   3  13   2 1526.33 175.302  36
   3 -13   3 36.0930 57.3027  31
  -3 -13  -3 11.2615 44.5150  29
  -3 -13  -3-41.4240 59.6072   2
   3 -13   4-40.0209 77.5028  31
  -3 -13  -4 36.7229 38.5058  29
  -3 -13  -4 8.36318 34.9380   2
  -3 -13  -5 565.334 127.012   2
  -3 -13  -5 580.659 124.472  29
   3 -13   5 182.074 68.9061  31
  -3  13  -6 168.106 38.5054  17
  -3 -13  -6 178.851 77.7915   2
   3 -13   6 274.717 103.875  31
  -3  13  -7 2390.14 135.478  13
  -3  13  -7 2258.38 137.205  17
  -3  13  -7 2355.45 144.130   8
  -3  13  -7 2188.80 133.887  26
  -3 -13  -7 2261.55 137.601   6
  -3 -13  -8 2324.39 137.982  26
  -3  13  -8 2393.63 147.271   8
  -3  13  -8 2287.33 142.081  17
  -3  13  -8 2425.15 141.725  13
  -3  13  -8 2344.04 140.034  26
  -3 -13  -8 2232.65 139.845   6
  -3  13  -9 28.0558 24.0783   8
  -3  13  -9 50.1710 38.0584  17
  -3  13  -9 24.1197 29.7172  13
  -3 -13  -9 37.7554 26.2869  26
  -3 -13  -9 23.0957 22.1977   6
  -3 -13 -10 11.6714 26.8206  20
  -3  13 -10 13.7747 23.7724  13
  -3  13 -10 73.6523 36.0385  17
  -3  13 -11 956.751 91.6212  21
  -3 -13 -11 827.528 77.0630  20
  -3 -13 -11 834.584 80.3183  18
  -3  13 -11 909.555 85.2701  17
  -3  13 -11 959.023 83.1598  13
  -3  13 -12 539.970 62.2043  21
  -3 -13 -12 599.585 60.9325  20
  -3 -13 -12 583.817 62.0931  18
  -3  13 -12 628.399 62.2922  13
  -3  13 -13-44.5963 23.4753  13
  -3  13 -13-20.7367 20.3173  21
  -3 -13 -13-30.1178 19.7613  20
  -3 -13 -13 5.23233 18.7801  18
   3 -14 -13 1210.69 63.0978  14
   3 -14 -12 4106.25 152.857  20
   3  14 -12 4249.70 157.643  21
   3 -14 -12 3930.04 147.398  14
   3  14 -12 4262.30 164.742  13
   3  14 -12 4147.85 153.432  24
   3  14 -11 27.4836 23.2960  21
   3 -14 -11 43.6625 27.5228  20
   3 -14 -11 13.5546 30.7943   5
   3  14 -11 11.0782 21.5086  15
   3  14 -11 43.1970 30.0464  13
   3  14 -10 2221.34 138.544  21
   3 -14 -10 2719.12 147.924   5
   3 -14 -10 2659.71 141.815  20
   3 -14 -10 2430.10 140.018  19
   3  14 -10 2538.99 138.821  15
   3  14 -10 2436.75 141.802  13
   3  14  -9 145.323 41.4286  21
   3 -14  -9 157.995 45.4712   5
   3 -14  -9 219.297 45.8604  20
   3  14  -9 116.080 37.7844  13
   3  14  -9 194.644 44.9840  15
   3 -14  -9 150.455 44.7850  19
   3  14  -8 8943.32 313.888  21
   3 -14  -8 10225.0 318.214   5
   3 -14  -8 9868.99 314.886  19
   3  14  -8 10241.9 312.523  15
   3  14  -8 9284.68 307.606  13
   3  14  -7 3723.83 184.319  21
   3 -14  -7 3614.25 175.532   5
   3 -14  -7 3929.17 182.063  19
   3  14  -7 3776.84 185.454   8
   3  14  -7 3846.72 174.667  15
   3  14  -7 3561.33 172.442  13
   3  14  -6-8.22337 26.2334  21
   3 -14  -6 75.8079 25.7151  10
   3 -14  -6 37.0835 23.0021   5
   3  14  -6 34.8732 25.0204   8
   3  14  -6 39.6730 22.4129  15
   3  14  -6 31.4737 28.4034  13
  -3 -14   5 3369.68 341.780   3
   3 -14  -5 3202.24 307.713  32
   3  14  -5 3045.17 277.918  33
   3 -14  -5 2934.48 288.401  28
  -3  14   5 3689.35 324.180  36
  -3 -14   4 827.320 165.442   3
  -3  14   4 675.132 140.144  36
   3 -14  -4 722.817 132.791  32
   3 -14  -3 1324.64 179.848  32
  -3  14   3 1260.98 178.819  36
  -3 -14   2 1172.16 177.976   3
  -3  14   2 1011.86 156.132  36
   3 -14  -2 898.143 132.648   1
   3 -14  -2 1137.27 160.466  32
  -3 -14   1 2876.82 271.194   3
   3 -14  -1 2868.74 250.065   1
  -3  14   1 3391.91 281.251  36
   3 -14  -1 3360.80 257.548  32
  -3 -14   1 3230.99 262.290   2
   3  14  -1 2859.18 229.477  36
  -3 -14   0 2841.38 264.746   3
   3  14   0 3336.37 253.004  36
  -3  14   0 3307.80 274.077  36
   3 -14   0 2814.62 240.161  31
   3 -14   0 2662.81 247.213   1
  -3 -14   0 2575.42 242.227   2
  -3 -14  -1 130.139 63.4384   3
   3  14   1-0.16736 40.1238  36
  -3  14  -1 58.8993 49.9734  36
  -3 -14  -1 77.6038 53.6755   2
   3 -14   1 22.1665 48.0668  31
  -3 -14  -2 1681.53 189.573   3
   3  14   2 1774.21 197.675  36
  -3 -14  -2 1891.21 213.764   2
   3 -14   3 31.8796 52.5057  31
  -3 -14  -3-42.1123 43.8872  29
  -3 -14  -3 38.7107 49.7571   2
  -3 -14  -4 1726.03 209.892  29
   3 -14   4 1346.26 203.334  31
  -3 -14  -4 1756.76 225.425   2
   3 -14   5 1205.17 194.438  31
  -3 -14  -5 1600.58 211.649  29
  -3 -14  -5 1364.17 206.689   2
  -3 -14  -6 23.5553 20.5859  10
  -3  14  -6 6.93954 18.5104  26
  -3  14  -6 27.2279 27.0793   8
  -3  14  -6 35.4819 24.6095  13
  -3  14  -6-23.6438 29.8681  17
  -3 -14  -6 5.79782 17.7454   6
  -3  14  -7 1492.35 117.298   8
  -3  14  -7 1493.59 111.776  17
  -3  14  -7 1624.59 114.593  13
  -3 -14  -7 1245.64 104.275   6
  -3  14  -7 1441.85 108.934  26
  -3  14  -8 67.4700 32.5274  17
  -3  14  -8 148.462 39.9341   8
  -3 -14  -8 145.136 38.3196  26
  -3  14  -8 190.002 44.6491  13
  -3 -14  -8 166.886 42.1216   6
  -3  14  -9 3304.85 175.268   8
  -3  14  -9 3380.87 177.037  17
  -3 -14  -9 3806.01 175.179  26
  -3  14  -9 3626.34 177.247  13
  -3 -14  -9 3377.70 172.839   6
  -3 -14 -10 252.109 49.1850  20
  -3  14 -10 209.150 41.6257  13
  -3  14 -10 279.505 52.9509  17
  -3  14 -11 7.21127 31.0621  21
  -3  14 -11-14.0404 27.2162  17
  -3 -14 -11 34.4890 26.3284  20
  -3 -14 -11 56.2604 32.6470  18
  -3  14 -11 39.3154 28.0659  13
  -3  14 -12 68.7160 33.2223  21
  -3 -14 -12 48.6580 23.7985  20
  -3 -14 -12 54.4364 24.2432  18
  -3  14 -12 78.1921 26.8183  13
  -3  14 -13 142.246 29.2959  21
  -3 -14 -13 112.061 23.0866  20
  -3 -14 -13 72.7664 18.2900  18
   3  15 -12 32.9228 19.6630  21
   3 -15 -12 56.2965 24.2625  20
   3  15 -12 31.3638 21.5846  24
   3 -15 -12 55.7501 22.4539  14
   3  15 -12 15.4783 19.5630  13
   3  15 -11 3.53416 27.0826  13
   3  15 -11 24.7514 25.7872  21
   3 -15 -11 29.7009 22.2366  20
   3 -15 -11 45.6601 29.1112   5
   3  15 -10 694.056 76.8499  21
   3 -15 -10 622.458 70.2182   5
   3 -15 -10 632.969 68.7880  20
   3 -15 -10 658.996 71.5268  19
   3  15 -10 688.272 69.2031  15
   3  15 -10 622.877 70.6960  13
   3  15  -9 495.255 69.6948  21
   3 -15  -9 454.727 61.4559  20
   3 -15  -9 459.370 63.0713  19
   3 -15  -9 515.978 64.7673   5
   3  15  -9 426.671 62.8628  13
   3  15  -9 467.834 57.7648  15
   3  15  -8 3613.59 185.997  21
   3 -15  -8 3957.06 185.022   5
   3 -15  -8 3506.04 175.595  19
   3  15  -8 3723.60 181.347  13
   3  15  -8 4099.94 182.495  15
   3  15  -7 2941.35 165.462  21
   3 -15  -7 3085.35 160.610   5
   3 -15  -7 2868.03 156.185  19
   3  15  -7 3218.49 158.974  15
   3 -15  -7 3140.21 161.773  10
   3  15  -7 2997.14 159.720  13
   3  15  -7 2725.48 158.555   8
   3 -15  -6 2221.72 131.304  10
   3  15  -6 2064.00 133.494  21
   3 -15  -6 2030.86 126.559   5
   3  15  -6 1985.65 124.635  13
   3  15  -6 2046.58 133.908   8
   3  15  -6 2170.82 126.949  15
   3  15  -5 1062.65 93.0481  21
  -3 -15   5 1239.62 205.240   3
   3  15  -5 1099.04 94.8645   8
   3  15  -5 933.069 156.641  33
  -3  15   5 1075.54 179.868  36
  -3 -15   4 34.8380 54.7007   3
   3 -15  -4 56.3704 60.0771  32
  -3  15   4 57.4695 49.0607  36
  -3 -15   3 8915.58 540.701   3
  -3  15   3 9373.65 516.186  36
   3 -15  -3 8208.95 474.253  32
  -3  15   2 23.1529 37.5000  36
  -3 -15   2-40.3056 74.8141   3
   3 -15  -2 18.6426 47.0444   1
   3 -15  -2-51.9373 55.3659  32
  -3 -15   1 1735.30 220.782   3
  -3 -15   1 1613.52 197.726   2
   3 -15  -1 1272.59 176.429   1
  -3  15   1 1939.15 219.613  36
   3 -15  -1 1660.01 187.818  32
   3 -15   0 4430.49 328.130   1
  -3 -15   0 4118.79 334.869   3
  -3 -15   0 5078.95 351.200   2
   3  15   0 4424.89 308.462  36
  -3  15   0 3883.60 311.538  36
   3 -15   0 4302.59 308.189  31
   3  15   1 5446.33 353.252  36
  -3  15  -1 6037.51 393.220  36
  -3 -15  -1 6119.22 395.092   3
  -3 -15  -1 6011.70 396.789   2
   3 -15   1 5259.83 358.838  31
  -3 -15  -2 1313.47 171.045  29
   3 -15   2 1158.28 172.260  31
   3  15   2 1371.22 181.890  36
  -3 -15  -2 1169.16 177.056   2
   3  15   3 131.751 69.8833  36
   3 -15   3 251.220 84.5057  31
  -3 -15  -3 236.012 81.9971   2
  -3 -15  -3 260.760 84.9635  29
   3 -15   4 11573.8 618.451  31
  -3 -15  -4 12275.3 631.707   2
  -3 -15  -5 2536.03 270.100  29
  -3  15  -5 2522.42 148.958   8
  -3  15  -5 2735.23 145.201  17
  -3 -15  -5 2735.64 149.240   6
  -3 -15  -6 92.9806 36.6355  10
  -3  15  -6 48.2989 25.2767  17
  -3  15  -6 55.1431 31.0818   8
  -3  15  -6 99.2156 34.9854  13
  -3 -15  -6 20.9479 21.5918   6
  -3  15  -7 162.438 41.1689  17
  -3  15  -7 114.156 35.4830  13
  -3  15  -7 76.1147 40.7677   8
  -3 -15  -7 106.211 33.8920   6
  -3  15  -8 3264.36 175.637   8
  -3  15  -8 3174.56 169.884  17
  -3 -15  -8 3159.31 167.881   6
  -3  15  -8 3555.33 174.473  13
  -3  15  -9 582.725 74.6172   8
  -3  15  -9 575.752 73.8973  17
  -3  15  -9 652.854 75.0412  13
  -3 -15  -9 672.505 72.3244  26
  -3 -15  -9 558.144 69.7831   6
  -3  15 -10 37.9624 28.9611  17
  -3  15 -10-8.71049 31.1494  21
  -3 -15 -10-28.0482 24.4407  20
  -3  15 -10 15.7544 24.2750   8
  -3  15 -10-5.05258 25.2485  13
  -3  15 -11 1771.54 116.659  21
  -3 -15 -11 1765.84 107.023  20
  -3 -15 -11 1828.24 113.646  18
  -3  15 -11 1863.72 112.136  13
  -3  15 -12 28.6290 22.4721  21
  -3 -15 -12 0.49812 19.4656  20
  -3 -15 -12 7.38925 21.4922  18
  -3  15 -12-16.9749 22.9983  13
  -3  15 -13 53.9263 20.0999  21
  -3 -15 -13 54.5431 19.3394  18
   3  16 -12 57.3259 22.0465  21
   3 -16 -12 41.7327 19.2926  20
   3 -16 -12 50.4003 19.0486  14
   3  16 -12 59.0865 21.3372  24
   3  16 -11 454.158 56.6599  21
   3 -16 -11 321.232 45.4747  20
   3 -16 -11 406.641 49.6604   5
   3  16 -11 470.381 56.8363  13
   3 -16 -10 167.405 35.8678  20
   3 -16 -10 132.986 37.4294   5
   3 -16 -10 130.808 40.5443  19
   3  16 -10 221.645 46.3164  13
   3  16  -9 700.890 80.5446  21
   3 -16  -9 732.037 75.4698   5
   3 -16  -9 772.378 79.3023  19
   3  16  -9 647.408 72.8736  13
   3 -16  -8 22.6612 23.2722   5
   3  16  -8-4.33056 28.7142  21
   3  16  -8-1.26935 24.9943  13
   3  16  -8-36.7605 27.3327  15
   3 -16  -8-31.4962 35.7820  19
   3  16  -7 9035.66 311.832  21
   3 -16  -7 9292.21 301.651   5
   3 -16  -7 9229.50 302.464  19
   3  16  -7 9301.15 315.366   8
   3 -16  -7 9715.51 307.257  10
   3  16  -7 8987.34 301.447  13
   3 -16  -6 1294.82 100.471   5
   3  16  -6 1162.36 103.451   8
   3  16  -6 1097.67 93.5422  13
   3  16  -6 1038.84 96.4859  21
   3 -16  -6 1168.80 97.5783  10
   3  16  -5 112.627 36.7719  21
   3 -16  -5 146.712 35.2527  10
   3 -16  -5 80.0489 30.7227  27
   3 -16  -5 79.3895 24.9362  23
   3  16  -5 113.982 37.1861   8
   3  16  -5 119.428 37.6494  13
   3  16  -4 6443.35 239.790  21
  -3 -16   4 6123.82 472.751   3
  -3  16   4 6207.05 436.581  36
   3  16  -4 6178.31 240.241   8
   3 -16  -4 6157.59 433.616  32
  -3 -16   4 6457.94 463.584  31
  -3 -16   3 482.239 126.708   3
  -3  16   3 388.614 113.525  36
   3 -16  -3 365.633 99.3855  32
  -3 -16   2 142.589 73.8799   3
  -3  16   2 74.0942 76.8968  36
   3 -16  -2 128.502 59.0398  32
  -3 -16   1 1454.22 191.826   2
   3 -16  -1 1334.30 179.747   1
  -3 -16   1 970.208 173.322   3
  -3  16   1 1445.64 196.165  36
   3 -16   0 2438.19 250.598   1
  -3 -16   0 2471.22 267.728   3
  -3 -16   0 2721.25 265.466   2
  -3 -16  -1 12715.6 611.518   3
   3  16   1 12254.0 569.584  36
   3 -16   1 11384.3 559.926  31
  -3 -16  -2 2612.84 273.327   2
   3 -16   2 2193.00 245.009  31
   3  16   2 2325.23 242.118  36
   3  16   3 160.209 81.4111  36
   3 -16   3 16.1495 43.9654  31
  -3 -16  -3 137.071 73.6601   2
  -3  16  -4 2730.51 152.857   8
   3 -16   4 2462.76 281.269  31
  -3 -16  -4 2871.83 281.364  29
   3  16   4 2385.18 267.854  36
  -3 -16  -4 2269.68 269.437   2
  -3 -16  -5 3114.94 159.784  10
  -3 -16  -5 3090.31 161.921   6
  -3  16  -5 2704.73 149.574  17
  -3  16  -5 2969.09 152.529  13
  -3  16  -5 2817.48 161.097   8
  -3 -16  -6 25.8223 28.0305  10
  -3  16  -6 5.34421 25.9138  17
  -3  16  -6 25.7865 22.1416  13
  -3  16  -6 30.1742 31.5197   8
  -3 -16  -6 44.9296 25.1932   6
  -3  16  -7 1458.22 117.867   8
  -3  16  -7 1396.29 111.305  17
  -3  16  -7 1519.11 112.924  13
  -3 -16  -7 1412.71 112.802   6
  -3  16  -8-7.54477 29.4661  17
  -3  16  -8 8.68419 35.2382   8
  -3  16  -8-4.31846 29.5264  13
  -3 -16  -8-43.3380 34.5078   6
  -3  16  -9 498.058 69.9724  21
  -3  16  -9 416.990 64.4973   8
  -3  16  -9 470.418 66.5246  17
  -3  16  -9 517.084 67.2287  13
  -3 -16  -9 543.494 63.9012  26
  -3 -16  -9 513.048 66.2943   6
  -3  16 -10 287.562 54.1450  21
  -3 -16 -10 339.894 50.5449  20
  -3  16 -10 345.886 53.4884  13
  -3  16 -10 290.075 48.1451   8
  -3  16 -11 759.912 74.8449  21
  -3 -16 -11 772.996 68.9485  20
  -3 -16 -11 833.084 76.8038  18
  -3  16 -11 739.865 68.3260  13
  -3  16 -12 815.929 67.4557  21
  -3 -16 -12 701.143 56.1967  20
  -3 -16 -12 810.680 62.6739  18
   3  17 -12 23.1374 15.6877  21
   3 -17 -12-9.82691 17.4153  20
   3  17 -12-25.7152 19.3432  24
   3 -17 -12-40.5576 21.4714  14
   3 -17 -11 3969.67 153.599   5
   3  17 -11 4175.00 166.372  21
   3 -17 -11 4131.15 153.538  20
   3  17 -10 1101.16 91.9628  21
   3 -17 -10 1295.61 90.6001  20
   3 -17 -10 1156.47 89.1392  19
   3  17 -10 1181.31 92.4023  13
   3 -17 -10 1226.00 89.5718   5
   3  17  -9 45.7774 30.4925  21
   3 -17  -9 28.7477 25.7542  20
   3 -17  -9 40.8152 24.9221   5
   3 -17  -9 65.3251 30.9537  19
   3  17  -9 27.3096 32.3134  13
   3  17  -8 17.6922 28.9818  21
   3 -17  -8 69.8253 31.8168   5
   3 -17  -8 12.4210 28.0074  19
   3  17  -8 36.9455 30.1449  13
   3  17  -7 5948.12 245.309  21
   3 -17  -7 6394.33 238.167   5
   3 -17  -7 6088.21 237.494  19
   3 -17  -7 6428.35 241.244  10
   3  17  -7 5728.08 233.615  13
   3  17  -6 247.188 52.3798  21
   3 -17  -6 254.944 51.3033  10
   3 -17  -6 320.774 52.9798   5
   3  17  -6 296.556 52.1022  13
   3  17  -6 224.134 50.4910   8
   3  17  -5 1246.57 103.533  21
   3 -17  -5 1037.32 92.0551  10
   3 -17  -5 1171.59 94.1645   5
   3  17  -5 1186.69 102.357   8
   3 -17  -5 1158.34 96.6714  27
   3  17  -4 1425.69 109.148  21
   3 -17  -4 1398.16 103.762  10
   3 -17  -4 1524.15 109.564  27
   3  17  -4 1414.82 111.412   8
  -3 -17   3 24.0071 60.8506  31
   3  17  -3 15.0765 22.1106  21
   3 -17  -3-2.04458 22.7679  27
   3  17  -3-10.4440 27.4742   8
   3 -17  -3 48.1551 30.1591  23
  -3 -17   2 36.3683 49.3892   3
  -3  17   2 146.057 82.1592  36
   3 -17  -2 22.6061 37.0955  32
  -3 -17   2 109.300 74.6277  31
  -3 -17   1 4821.86 393.897   3
  -3  17   1 3895.58 336.482  36
  -3 -17   1 4518.76 355.063  31
   3 -17  -1 4944.65 362.258   1
   3 -17   0 1479.14 203.999   1
  -3  17   0 1235.01 186.358  36
  -3 -17   0 1333.04 193.297   2
   3  17   1 201.201 78.4342  36
   3 -17   1 258.917 83.8020  31
  -3 -17  -1 268.863 93.0571   2
   3 -17   1 232.558 90.2277   1
  -3 -17  -2-16.4869 47.6080   2
   3  17   2-125.415 64.7362  36
   3 -17   2 39.9607 55.2798  31
   3  17   3 1288.57 195.533  36
   3 -17   3 1284.25 200.385  31
  -3  17  -3 1167.24 98.6595   8
  -3 -17  -4 64.1490 27.2771  10
  -3 -17  -4 86.9078 29.3945   7
  -3  17  -4 89.8051 66.4594   8
  -3 -17  -5 413.310 60.4541   6
  -3 -17  -5 461.418 62.1419  10
  -3  17  -5 305.612 57.8503   8
  -3  17  -5 402.501 56.5246  21
  -3 -17  -6 43.9495 25.2517  10
  -3  17  -6 14.4752 20.8405  21
  -3  17  -6 22.3019 22.2170  13
  -3  17  -6 29.2944 29.1784   8
  -3 -17  -6 26.2515 28.2243   6
  -3  17  -7 108.415 35.6605  21
  -3  17  -7 40.9970 32.2201  17
  -3  17  -7-18.1143 33.8925   8
  -3  17  -7 123.836 39.6210  13
  -3 -17  -7 18.6729 27.2731   6
  -3  17  -8 8.69276 26.2043  21
  -3  17  -8-3.23815 26.4384  13
  -3  17  -8 26.9300 30.4958   8
  -3 -17  -8-23.8504 32.1693   6
  -3  17  -9 231.536 47.7315   8
  -3  17  -9 347.155 56.5867  21
  -3  17  -9 352.150 55.3735  13
  -3 -17  -9 329.763 51.8073  26
  -3 -17  -9 312.468 52.3097   6
  -3  17 -10 240.698 47.9069  21
  -3  17 -10 209.380 39.7276   8
  -3 -17 -10 254.820 45.9246  20
  -3  17 -10 224.596 44.1558  13
  -3  17 -11 519.606 61.0827  21
  -3 -17 -11 561.724 60.6307  18
  -3 -17 -11 570.432 56.9272  20
  -3  17 -12 848.641 64.2897  21
  -3 -17 -12 844.496 57.6259  20
  -3 -17 -12 975.241 65.5369  18
   3 -18 -11 67.0236 22.1906  20
   3  18 -11 90.8031 28.6118  21
   3  18 -10-9.69779 26.2052  21
   3 -18 -10 24.3541 24.9698  20
   3 -18 -10 0.27839 21.6162   5
   3 -18 -10 27.6205 28.8694  19
   3  18  -9 60.4909 30.3625  21
   3 -18  -9 59.1610 29.4689  20
   3 -18  -9 41.0168 23.4905   5
   3 -18  -9 30.5101 28.9563  19
   3  18  -8 63.1322 36.0569  21
   3 -18  -8 13.3813 21.4585   5
   3 -18  -8 45.6203 29.1077  19
   3  18  -7 4436.58 209.237  21
   3 -18  -7 4989.79 205.183   5
   3 -18  -7 4845.29 206.956  19
   3 -18  -7 4789.35 204.998  10
   3  18  -6 88.4201 40.9319  21
   3 -18  -6 40.1495 25.5962  10
   3  18  -6 96.7539 41.7794   8
   3 -18  -6 7.88930 21.7608   5
   3  18  -5 4748.66 209.866  21
   3 -18  -5 4665.70 203.926  10
   3  18  -5 4468.62 209.389   8
   3 -18  -5 4375.45 197.431  27
   3  18  -4 13100.3 387.864   8
   3  18  -4 12989.1 381.025  21
   3 -18  -4 13246.3 377.000  10
   3 -18  -4 12853.6 376.490  27
   3  18  -3 5254.14 220.893   8
   3 -18  -3 4757.76 209.050  27
   3  18  -3 5223.06 216.740  21
   3  18  -2 50.3239 27.6924  21
   3 -18  -2 90.8506 33.6903  27
   3  18  -2 105.546 31.2657   8
  -3  18   1 1121.67 181.869  36
  -3 -18   1 1012.67 90.6516   7
   3 -18  -1 1090.04 94.4616  27
   3 -18   0 14794.3 692.613   1
  -3 -18   0 16891.1 744.861   2
  -3 -18   0 16331.8 432.831   7
   3 -18   0 15755.9 430.819  27
   3 -18   1 25.5678 26.4183  27
  -3 -18  -1 58.1304 63.9962   2
  -3 -18  -1-7.98826 20.9648   7
  -3 -18  -2 120.162 33.8407  10
   3 -18   2 79.9360 72.2252  31
   3 -18   2 73.7509 34.8572  27
  -3  18  -3 5084.20 218.241   8
  -3 -18  -3 4740.63 203.354  10
  -3 -18  -3 4948.36 208.004   7
   3 -18   3 5255.76 215.500  27
  -3 -18  -4 1993.25 129.249  10
  -3  18  -4 2013.59 136.762   8
  -3 -18  -5 207.606 47.7165   6
  -3 -18  -5 242.614 46.1490  10
  -3  18  -5 214.587 42.6487  21
  -3  18  -5 219.572 48.5569   8
  -3 -18  -6 353.726 58.7695  10
  -3  18  -6 378.833 60.8435  21
  -3  18  -6 291.519 55.1463   8
  -3 -18  -6 348.107 58.6904   6
  -3  18  -7 1292.00 104.730  21
  -3  18  -7 1233.26 109.766   8
  -3 -18  -7 1253.70 106.377   6
  -3  18  -8 1172.18 99.7948  21
  -3  18  -8 1106.84 101.643   8
  -3  18  -8 1327.90 102.896  13
  -3 -18  -8 1220.60 102.481   6
  -3  18  -9 721.879 77.4814  21
  -3  18  -9 728.715 76.0375   8
  -3 -18  -9 676.179 67.9872  26
  -3 -18  -9 705.539 74.3148   6
  -3  18 -10 737.963 73.0337  21
  -3 -18 -10 850.677 73.2539  20
  -3  18 -10 846.654 75.0403   8
  -3 -18 -11 101.839 27.7013  20
  -3 -18 -11 146.369 35.6511  18
  -3  18 -11 136.668 35.3496  21
  -3  18 -12-19.2121 17.5798  21
  -3 -18 -12-3.71526 17.6264  18
   3  19 -11 7.39014 18.8583  21
   3 -19 -11-6.87815 15.6540  20
   3 -19 -10 2761.73 122.821   5
   3 -19 -10 2929.35 128.675  20
   3 -19 -10 2819.14 130.486  19
   3  19 -10 2974.48 142.857  21
   3  19  -9 377.609 59.4003  21
   3 -19  -9 273.087 45.9464  20
   3 -19  -9 266.253 43.1279   5
   3 -19  -9 328.940 51.8135  19
   3 -19  -8 2932.91 146.341   5
   3 -19  -8 2893.31 151.035  19
   3  19  -8 2926.76 160.698  21
   3  19  -7 332.758 57.6642  21
   3 -19  -7 253.025 48.0716  19
   3 -19  -7 361.639 54.3364   5
   3  19  -6 1575.42 119.820  21
   3 -19  -6 1690.83 119.372  10
   3  19  -5 194.511 45.1708  21
   3 -19  -5 129.969 37.7523  10
   3  19  -5 94.6529 36.8648   8
   3  19  -4 764.491 82.4166  21
   3 -19  -4 660.735 76.6532  10
   3  19  -4 764.405 84.5183   8
   3 -19  -4 600.549 75.3792  27
   3  19  -3 8771.09 297.338  21
   3  19  -3 8914.37 303.478   8
   3 -19  -3 8845.29 301.138  27
   3  19  -2 1053.86 93.3782  21
   3  19  -2 1117.88 96.8405   8
   3 -19  -2 990.170 92.9779  27
   3  19  -1 10618.0 324.196  21
   3 -19  -1 10690.6 334.266  27
  -3 -19   1 10232.0 330.580   7
  -3 -19   0 9030.71 304.726   7
   3 -19   0 9424.28 311.357  27
  -3  19  -1 2703.01 147.692   8
  -3 -19  -1 2438.49 144.323   7
   3 -19   1 2610.61 152.216  27
  -3 -19  -2 1624.42 112.770  10
  -3 -19  -2 1281.39 104.399   7
  -3  19  -2 1435.48 110.221   8
   3 -19   2 1543.71 114.666  27
   3 -19   3 16.4046 26.0756  27
  -3 -19  -3 43.0372 30.6318  10
  -3  19  -3 33.7780 30.2883   8
  -3 -19  -3 101.429 36.3792   7
  -3 -19  -4 9595.23 315.146  10
  -3  19  -4 10008.6 329.537   8
  -3 -19  -5 1525.60 114.355  10
  -3  19  -5 1452.86 117.364   8
  -3 -19  -5 1322.86 109.353   6
  -3 -19  -6 35.8697 32.6148  10
  -3  19  -6 45.5738 27.5951  21
  -3  19  -6 69.5070 36.8304   8
  -3 -19  -6 54.8814 32.8482   6
  -3  19  -7 14.6663 23.9548  21
  -3  19  -7 12.9800 31.0044   8
  -3 -19  -7 24.0524 29.2939   6
  -3  19  -8 1254.61 105.398   8
  -3  19  -8 1441.25 106.680  21
  -3 -19  -8 1278.31 97.8661  26
  -3 -19  -8 1138.93 97.5175   6
  -3  19  -9 192.899 42.5327  21
  -3 -19  -9 219.639 41.2117  26
  -3 -19  -9 167.929 39.8393   6
  -3  19  -9 177.657 41.2510   8
  -3  19 -10 40.3000 25.7542  21
  -3 -19 -10 69.8135 30.9360  20
  -3  19 -10 49.1955 25.3929   8
  -3  19 -11 4279.95 155.330  21
  -3 -19 -11 4043.78 141.810  20
  -3 -19 -11 4158.05 149.335  18
   3  20 -11 3313.23 124.945  21
   3  20 -11 3186.20 120.740  16
   3  20 -10 1457.08 93.9344  21
   3 -20 -10 1465.28 83.8794  20
   3 -20 -10 1400.92 84.5570  19
   3 -20  -9 46.9394 22.0987   5
   3 -20  -9 92.7777 30.0534  19
   3 -20  -9 122.218 32.2188  20
   3  20  -9 49.5608 26.5607  21
   3 -20  -8 498.867 57.3133   5
   3  20  -8 462.518 69.4633  21
   3 -20  -8 443.458 58.5795  19
   3  20  -7 25.3287 28.6697  21
   3 -20  -7-21.3505 36.4058  19
  -3 -20   7 30.1742 26.0514   7
   3  20  -6 907.976 91.2359  21
   3 -20  -6 888.909 87.1591  10
   3  20  -5 3577.74 184.506  21
   3 -20  -5 3772.87 181.564  10
   3  20  -4 2553.51 151.917  21
   3 -20  -4 2719.00 154.033  10
   3  20  -4 2573.16 154.653   8
   3 -20  -4 2548.10 150.049  27
   3 -20  -3 2055.12 134.358  10
   3 -20  -3 2212.99 140.592  27
   3  20  -3 2196.69 138.601  21
   3  20  -2 7031.05 258.105  21
  -3 -20   2 7313.90 269.384   7
   3 -20  -2 6465.13 254.968  27
   3 -20  -1 24937.9 590.784  27
  -3 -20   1 23950.5 585.386   7
   3 -20   0 1323.86 111.709  27
  -3 -20   0 1175.63 103.976   7
   3 -20   1 3924.90 194.152  27
  -3  20  -1 4353.57 193.698   8
  -3 -20  -1 3944.34 190.863   7
  -3 -20  -2 21456.5 518.042  10
  -3  20  -2 21428.8 524.469   8
   3 -20   2 19808.8 516.345  27
  -3 -20  -2 19564.3 507.519   7
  -3 -20  -3 6653.03 251.091  10
   3 -20   3 6978.35 257.759  27
  -3  20  -3 6066.80 247.082   8
  -3 -20  -3 5994.78 239.524   7
  -3  20  -4 330.471 53.6505  11
  -3 -20  -4 355.934 59.1860  10
  -3  20  -4 431.215 67.0902   8
  -3  20  -5 3400.22 181.411   8
  -3 -20  -5 3442.76 175.606  10
  -3 -20  -5 3294.55 175.121   6
  -3  20  -6 1196.95 97.1822  21
  -3  20  -6 1011.32 102.077   8
  -3 -20  -6 1100.20 95.9335  10
  -3 -20  -6 1106.23 99.0845   6
  -3  20  -7 3856.83 178.337  21
  -3  20  -7 3467.36 181.667   8
  -3 -20  -7 3480.33 176.608   6
  -3  20  -8 960.172 86.1206  21
  -3  20  -8 995.551 94.4302   8
  -3 -20  -8 1007.43 90.8450   6
  -3 -20  -8 971.592 83.2599  26
  -3  20  -9 1415.50 98.7897  21
  -3  20  -9 1351.16 99.4621   8
  -3 -20  -9 1319.31 87.8942  26
  -3 -20  -9 1324.33 95.2295   6
  -3  20 -10 852.077 70.5793  21
  -3 -20 -10 943.561 70.7810  20
  -3  20 -10 874.296 69.4611   8
  -3  20 -11 500.425 47.6945  21
  -3 -20 -11 460.563 41.4079  20
  -3 -20 -11 476.716 44.9894  18
   3  21 -10 145.292 33.7902  21
   3 -21 -10 104.760 24.1709  20
   3 -21 -10 98.7254 25.9208  19
   3  21  -9 962.668 81.7370  21
   3 -21  -9 945.293 71.2620  20
   3 -21  -9 959.575 73.9700  19
   3 -21  -8 31.6226 26.1674  19
   3  21  -8 83.2988 33.3240  21
   3 -21  -7 1310.54 99.7830  19
  -3 -21   7 1390.81 102.396   7
   3  21  -7 1228.10 102.097  21
   3  21  -6 3948.17 191.472  21
   3 -21  -6 4234.23 187.972  10
  -3 -21   6 4419.84 199.034   7
  -3  21   5 361.386 56.4045  11
   3  21  -5 354.460 60.5941  21
   3 -21  -5 338.085 56.7098  10
  -3 -21   5 334.129 60.7506   7
  -3  21   4 576.661 70.4885  11
   3 -21  -4 685.801 80.2341  10
  -3 -21   4 691.356 83.0740   7
   3  21  -4 630.222 75.9646  21
   3 -21  -3 1684.91 122.430  10
   3  21  -3 1778.57 124.528  21
  -3 -21   3 1960.89 134.098   7
   3 -21  -3 1696.81 123.079  27
   3  21  -2 34047.1 729.606  21
  -3 -21   2 34084.5 744.118   7
   3 -21  -1 7190.97 273.936  27
  -3 -21   1 7910.49 283.752   7
   3 -21   0 2886.19 162.578  27
  -3 -21   0 2790.21 159.914   7
  -3 -21  -1 7997.69 279.696  10
  -3  21  -1 7931.52 277.544   8
  -3 -21  -1 7979.22 285.492   7
   3 -21   1 8367.20 293.826  27
  -3 -21  -2 1131.51 101.227  10
  -3  21  -2 1083.04 97.7042   8
  -3 -21  -2 1062.76 96.1001   7
   3 -21   2 1379.37 109.555  27
  -3 -21  -3 29450.2 672.762  10
  -3  21  -3 30780.8 685.423   8
   3 -21   3 30058.2 677.020  27
  -3 -21  -3 29073.2 666.404   7
  -3  21  -4 218.120 52.6969   8
  -3 -21  -4 166.382 42.9416  10
  -3  21  -4 148.825 37.8274  11
  -3 -21  -5 3504.86 176.431  10
  -3  21  -5 3655.82 187.214   8
  -3 -21  -5 3252.05 174.384   6
  -3  21  -6 90.2196 29.7977  21
  -3  21  -6 101.818 42.3352   8
  -3 -21  -6 31.2054 28.7810   6
  -3  21  -7 7066.01 244.697  21
  -3  21  -7 6742.22 258.128   8
  -3 -21  -7 6639.02 248.570   6
  -3  21  -8 793.310 73.9151  21
  -3 -21  -8 836.724 75.2473  26
  -3  21  -8 583.196 70.7855   8
  -3 -21  -8 758.374 76.3262   6
  -3  21  -9 65.6249 27.9020  21
  -3 -21  -9 93.8977 30.2469  20
  -3 -21  -9 89.2318 32.4356   6
  -3  21  -9 118.932 35.6017   8
  -3 -21  -9 49.6640 21.8354  26
  -3  21 -10 1629.56 89.8348  21
  -3 -21 -10 1641.98 86.5441  20
  -3  21 -10 1693.09 91.2156   8
   3  22 -10 1041.39 68.4383  21
   3  22 -10 865.269 63.8394  16
   3 -22  -9 374.241 42.9694  20
   3 -22  -9 277.164 38.4311  19
   3  22  -9 244.415 41.2565  21
   3  22  -8 2592.66 137.759  21
   3 -22  -8 2527.34 126.631  19
   3  22  -7 1311.76 101.989  21
   3 -22  -7 1155.01 90.6993  19
  -3 -22   7 1232.14 94.2393   7
   3  22  -6 26.4928 34.8692  21
   3 -22  -6 43.1272 28.1735  10
  -3 -22   6 6.40155 23.7032   7
   3  22  -5 3252.25 170.211  21
   3 -22  -5 3135.82 162.884  10
  -3 -22   5 3425.39 176.340   7
  -3  22   5 3610.39 168.024  11
   3  22  -4 2158.72 137.788  21
   3 -22  -4 2075.74 133.752  10
  -3 -22   4 2261.58 145.921   7
  -3  22   4 2426.87 142.184  11
   3 -22  -3 3027.35 163.564  10
   3  22  -3 3080.86 163.330  21
  -3 -22   3 3103.99 171.176   7
  -3  22   3 3078.95 167.097  11
   3 -22  -2 15106.3 423.701  27
  -3 -22   2 14917.2 426.974   7
   3 -22  -1 7947.53 285.672  27
  -3 -22   1 7208.30 275.276   7
   3 -22   0 2311.22 147.168  27
  -3 -22   0 1986.18 135.450   7
  -3 -22  -1 29904.9 646.320  10
   3 -22   1 28302.9 647.738  27
  -3 -22  -2 6631.98 253.149  10
  -3  22  -2 6787.55 256.381   8
  -3 -22  -2 6291.70 249.087   7
  -3  22  -3 511.305 71.5506  11
  -3 -22  -3 523.439 72.7704  10
   3 -22   3 516.002 69.8967  27
  -3  22  -3 541.137 72.1176   8
  -3 -22  -3 462.391 64.7184   7
  -3 -22  -4 10494.7 325.127  10
  -3  22  -4 9473.34 321.720   8
  -3 -22  -4 10170.2 325.115   6
  -3  22  -4 9627.02 313.122  11
  -3 -22  -5 7275.72 258.092  10
  -3  22  -5 6816.30 262.507   8
  -3 -22  -5 6640.06 256.730   6
  -3  22  -6 39.9793 35.1362   8
  -3 -22  -6-3.47699 27.8177   6
  -3  22  -7 447.867 56.5781  21
  -3  22  -7 410.436 63.1913   8
  -3 -22  -7 434.204 64.9644   6
  -3  22  -8 218.787 40.0739  21
  -3  22  -8 169.466 44.0983   8
  -3 -22  -8 172.740 35.5322  26
  -3 -22  -8 185.883 39.6325   6
  -3  22  -9 52.1251 26.5394  21
  -3 -22  -9 24.9079 17.3758  26
  -3 -22  -9 54.9569 26.0878  20
  -3  22  -9 46.8899 26.6008   8
  -3  22 -10 914.699 61.1407  21
  -3 -22 -10 981.525 60.4163  20
  -3  22 -10 1015.99 64.2287   8
   3  23  -9 617.233 57.9303  21
   3 -23  -9 572.231 47.4050  20
   3 -23  -9 566.533 49.2839  19
   3  23  -9 629.703 58.7267  16
   3  23  -8 125.483 32.5242  21
   3 -23  -8 96.0254 28.5062  19
   3  23  -7 344.987 52.2633  21
   3 -23  -7 354.042 50.7237  19
  -3 -23   7 390.798 51.1897   7
   3 -23  -6 133.656 34.3552  10
   3  23  -6 83.7340 36.0996  21
  -3 -23   6 73.8301 34.4546   7
  -3  23   5 144.410 35.7516  11
   3  23  -5 180.871 44.2577  21
   3 -23  -5 244.493 49.1053  10
  -3 -23   5 256.882 49.2152   7
   3 -23  -4 2141.94 134.604  10
   3  23  -4 2232.41 136.120  21
  -3 -23   4 2483.64 148.302   7
  -3  23   4 2344.81 139.153  11
   3 -23  -3 4057.16 190.947  10
  -3 -23   3 4622.71 210.256   7
  -3  23   3 4353.30 197.292  11
   3 -23  -2 1415.80 111.312  10
  -3 -23   2 1549.63 120.155   7
   3  23  -2 1461.22 108.258  16
   3 -23  -2 1496.24 117.070  27
  -3  23   2 1449.87 116.824  11
  -3  23   1 72.4580 40.6853  11
   3 -23  -1 135.184 45.0497  27
  -3 -23   1 119.698 41.5695   7
  -3 -23   0 8437.89 284.207  10
  -3 -23   0 7553.36 282.029   7
   3 -23   0 8224.24 290.821  27
  -3  23   0 7683.83 284.922  11
  -3 -23  -1 5244.95 224.510   7
   3 -23   1 5362.00 226.944  27
  -3  23  -1 4897.74 221.391  11
  -3 -23  -2 13750.2 385.244  10
  -3  23  -2 13588.0 383.351   8
  -3 -23  -2 12186.3 371.965   7
   3 -23   2 13488.2 386.803  27
  -3  23  -2 12350.7 377.300  11
  -3  23  -3 485.932 68.0527  11
  -3 -23  -3 487.186 67.4980  10
  -3  23  -3 568.648 72.6584   8
   3 -23   3 555.149 71.7511  27
  -3  23  -4 7171.88 265.340   8
  -3 -23  -4 6757.54 257.748   6
  -3  23  -4 7194.89 255.769  11
  -3 -23  -5 1279.04 100.551  10
  -3  23  -5 1217.07 103.525   8
  -3 -23  -5 1229.82 102.802   6
  -3  23  -6 2923.83 156.787   8
  -3 -23  -6 2734.39 148.509   6
  -3  23  -7 374.591 48.2199  21
  -3  23  -7 343.837 59.4807   8
  -3 -23  -7 283.218 49.9492   6
  -3  23  -8 631.527 58.5815  21
  -3  23  -8 623.771 66.2135   8
  -3 -23  -8 560.458 55.7135  26
  -3 -23  -8 646.877 64.5735   6
  -3  23  -9 3615.94 132.555  21
  -3 -23  -9 3517.21 130.907  20
  -3  23  -9 3820.05 144.890   8
   3  24  -9 1441.89 79.7657  16
   3  24  -8 108.285 27.9878  21
   3 -24  -8 150.886 29.1320  20
   3 -24  -8 144.813 30.5808  19
   3  24  -8 165.683 34.6997  16
   3  24  -7 20.0476 24.9118  21
   3 -24  -7 52.2234 25.2304  19
  -3 -24   7 28.2004 22.2898   7
   3 -24  -6 305.208 46.6048  10
   3  24  -6 178.972 39.8646  21
  -3 -24   6 205.265 42.4391   7
   3 -24  -6 217.657 42.4401  19
  -3  24   5 17.8790 22.6075  11
   3 -24  -5 37.3854 24.0150  10
   3  24  -5 7.01620 27.3981  21
  -3 -24   5 30.8900 26.4595   7
   3 -24  -4 728.112 76.1313  10
  -3 -24   4 853.481 85.8366   7
  -3  24   4 765.203 76.2446  11
   3 -24  -3 1163.91 97.1574  10
   3  24  -3 1255.28 97.6228  16
  -3 -24   3 1402.43 110.029   7
  -3  24   3 1250.27 99.8373  11
   3 -24  -2 925.992 87.7877  10
  -3 -24   2 1112.88 100.644   7
  -3  24   2 1050.28 96.4682  11
  -3  24   1 19.4962 36.6294  11
  -3 -24   1 10.8944 32.8187   7
  -3 -24   0 1574.66 113.719  10
   3 -24   0 1444.22 113.984  27
  -3  24   0 1573.88 120.667  11
  -3 -24   0 1579.79 117.728   7
  -3  24  -1 100.558 39.7368  11
  -3 -24  -1 73.8687 32.2434  10
   3 -24   1 110.791 38.5603  27
  -3  24  -2 84.3050 40.2869  11
  -3 -24  -2 104.264 35.9971  10
   3 -24   2 59.7320 29.0411  27
  -3  24  -2 69.5259 28.2480   8
  -3 -24  -2 65.4357 32.5872   7
  -3 -24  -3 1438.65 106.075  10
  -3  24  -3 1555.18 110.802   8
  -3 -24  -3 1462.63 108.792   6
  -3  24  -3 1367.83 105.978  11
  -3 -24  -4 5022.91 205.301  10
  -3  24  -4 4904.50 207.946   8
  -3 -24  -4 5323.21 214.214   6
  -3  24  -4 4939.44 199.570  11
  -3 -24  -5 385.584 54.6643  10
  -3  24  -5 417.037 61.3263   8
   3  24   5 459.718 57.8541  12
  -3 -24  -5 396.668 57.8321   6
  -3 -24  -6 675.085 70.1800   6
  -3  24  -6 746.573 78.4815   8
  -3  24  -7 1659.78 106.859   8
  -3 -24  -7 1437.75 96.5260   6
  -3  24  -8 600.017 59.9449   8
  -3 -24  -8 567.498 50.7187  26
  -3 -24  -8 543.163 53.6422   6
  -3 -24  -9 309.272 33.9967  20
  -3  24  -9 393.123 41.2800   8
   3 -25  -8 241.763 31.4714  19
   3  25  -8 279.467 38.9643  16
   3  25  -7 8.87778 20.8539  16
   3 -25  -7 52.2833 25.0770  19
  -3 -25   7 27.5401 17.6593   7
   3 -25  -7-2.14069 16.6878   6
   3 -25  -6 1768.97 103.321  19
   3  25  -6 1899.77 110.619  16
  -3 -25   6 1915.81 110.892   7
  -3  25   5 274.131 43.5056  11
   3 -25  -5 247.393 42.1032  10
  -3 -25   5 185.925 40.8947   7
   3  25  -5 189.284 40.7674  16
   3 -25  -4 683.596 70.2656  10
  -3 -25   4 620.295 71.5034   7
   3  25  -4 630.286 67.9117  12
   3  25  -4 692.172 70.3281  16
  -3  25   4 523.977 62.1944  11
  -3  25   3 56.1586 32.5919  11
   3 -25  -3-0.47687 29.6420  10
   3  25  -3 52.9800 26.3907  16
  -3 -25   3 52.8973 31.3864   7
   3 -25  -2 1373.78 104.893  10
  -3 -25   2 1366.98 108.383   7
  -3  25   2 1513.89 111.430  11
  -3  25   1 181.926 46.0103  11
  -3 -25   1 201.298 43.9493  10
  -3 -25   1 113.911 41.3777   7
  -3  25   0 13.4631 34.4180  11
  -3 -25   0 58.0046 29.5987  10
  -3 -25   0 59.3459 34.9032   7
  -3 -25  -1 116.483 32.2507   6
  -3  25  -1 125.461 40.6311  11
  -3 -25  -1 191.572 42.0624  10
  -3 -25  -1 152.290 43.1386   7
  -3  25  -2 13.2650 28.9463  11
  -3 -25  -2-11.7925 26.9188  10
  -3  25  -2-4.84898 23.5087   8
  -3 -25  -2-19.8474 23.1470   7
  -3 -25  -2 4.47557 22.2742   6
  -3 -25  -3 781.670 76.6218  10
  -3  25  -3 717.836 74.9771   8
  -3 -25  -3 713.920 74.6118   6
  -3  25  -3 711.042 75.0977  11
  -3 -25  -4 532.258 63.9718  10
  -3  25  -4 555.699 65.3579   8
  -3 -25  -4 637.256 69.5486   6
  -3  25  -4 511.377 60.4939  11
  -3  25  -5 688.073 71.6382   8
   3  25   5 680.521 63.9294  12
  -3 -25  -5 691.600 70.6499   6
  -3  25  -6 252.574 46.0909   8
  -3 -25  -6 236.455 45.4369   6
  -3 -25  -7 151.927 32.8582   6
  -3  25  -7 227.065 39.8812   8
  -3 -25  -7 179.417 32.5968  26
  -3 -25  -8 1277.64 71.4857  20
  -3  25  -8 1367.68 81.3942   8
  -3 -25  -8 1347.19 70.3581  26
   3  26  -7 767.103 60.2037  16
   3 -26  -7 852.199 58.7343  19
  -3 -26   7 826.946 57.3458   7
   3 -26  -7 815.126 56.2302   6
   3 -26  -6 5.69895 19.9705  19
  -3 -26   6 4.01385 18.5324   7
   3  26  -6 17.0722 21.2892  16
   3 -26  -5-17.0631 20.4968  10
   3  26  -5 45.9701 24.5529  16
  -3 -26   5 13.4951 24.5862   7
  -3  26   5 40.0510 26.0199  11
   3 -26  -4 775.735 72.3750  10
  -3 -26   4 720.811 74.2944   7
   3  26  -4 782.722 70.0572  12
   3  26  -4 830.185 70.9347  16
  -3  26   4 763.367 70.7839  11
  -3  26   3 52.5649 27.4947  11
   3  26  -3 44.8970 27.4574  16
   3 -26  -3 45.8528 30.3481  10
  -3 -26   3 73.4760 34.0929   7
   3  26  -3 121.992 38.7621  12
   3 -26  -2 1701.86 112.075  10
  -3 -26   2 1692.53 106.176  10
  -3 -26   2 1740.23 118.632   7
  -3  26   2 1466.18 106.946  11
  -3  26   1 526.683 69.5919  11
   3 -26  -1 577.415 67.0830  10
  -3 -26   1 536.604 69.6234   7
  -3 -26   1 526.987 61.4954  10
  -3 -26   0 3146.95 153.364  10
  -3 -26   0 3071.54 158.545   7
  -3 -26  -1 2119.73 124.284  10
  -3 -26  -1 2170.64 129.238   7
  -3  26  -1 2431.97 138.807  11
  -3  26  -2 356.584 56.2699  11
  -3 -26  -2 486.115 60.7875  10
  -3 -26  -2 359.691 51.1972   6
  -3  26  -3 85.1482 32.7407  11
  -3 -26  -3 31.6555 23.6083  10
  -3  26  -3 72.1122 29.8824   8
  -3 -26  -3 51.5794 28.3224   6
  -3 -26  -4 835.234 72.6665  10
  -3  26  -4 832.385 75.7960   8
   3  26   4 749.538 70.0699  12
  -3 -26  -4 719.100 71.4015   6
  -3  26  -4 663.329 63.2739  11
  -3  26  -5 47.2866 26.7221   8
   3  26   5 43.6431 19.0500  12
  -3 -26  -5 59.7643 25.3947   6
  -3  26  -6 298.194 45.4874   8
  -3 -26  -6 313.505 42.7627   6
  -3  26  -7 236.033 35.0332   8
  -3 -26  -7 177.158 28.7040  26
  -3 -26  -7 181.624 32.2074   6
   3 -27  -6 17.4989 17.1441   6
   3 -27  -6 31.5297 20.0258  19
   3  27  -6 22.0117 18.1917  16
  -3 -27   6 2.31251 16.7125   7
   3 -27  -5 677.620 58.8847  10
   3 -27  -5 648.814 57.3041  19
  -3 -27   5 663.454 61.8656   7
   3  27  -5 676.847 57.8470  16
   3 -27  -4 1445.03 90.3056  10
   3  27  -4 1287.69 81.7324  16
  -3 -27   4 1261.69 90.0822   7
   3  27  -4 1366.60 83.6020  12
  -3  27   4 1363.18 87.7163  11
   3 -27  -3 526.811 59.1192  10
  -3 -27   3 561.492 65.4103   7
   3  27  -3 511.635 58.3804  12
  -3  27   3 574.958 62.4289  11
  -3  27   2 81.0264 35.0950  11
   3 -27  -2 70.3160 29.7207  10
  -3 -27   2 74.4507 33.7053   7
   3  27  -2 106.849 36.3224  12
  -3  27   1 77.9958 37.5312  11
  -3 -27   1 130.166 31.7153  10
   3 -27  -1 135.421 36.5539  10
  -3 -27   1 122.182 37.8566   7
  -3 -27   0 6850.60 226.841  10
   3 -27   0 6963.23 239.304  10
  -3 -27   0 7410.62 245.489   7
  -3  27   0 7121.27 245.082  11
  -3 -27  -1 796.138 72.8311  10
  -3 -27  -1 777.584 75.1850   7
   3 -27   1 852.221 71.7663   7
  -3  27  -1 861.994 82.0201  11
  -3 -27  -2 1211.77 87.1547  10
  -3 -27  -2 1221.35 85.9314   6
  -3  27  -2 1256.26 93.3020  11
  -3 -27  -3 2539.06 124.557  10
  -3  27  -3 2598.78 124.560   8
  -3 -27  -3 2685.44 129.145   6
   3  27   3 2753.26 134.083  12
  -3  27  -3 2541.37 127.068  11
  -3  27  -4 6086.77 201.959   8
   3  27   4 6479.98 204.939  12
  -3 -27  -4 6120.47 204.563   6
  -3  27  -5 297.901 41.9233   8
  -3 -27  -5 311.103 43.0343   6
  -3  27  -6 33.8509 22.4099   8
  -3 -27  -6 15.5970 16.1549   6
  -3  27  -7 1242.06 69.8987   8
   3 -28  -5 1135.87 67.7535  19
  -3 -28   5 1249.17 75.8971   7
   3 -28  -4 230.912 36.5367  10
  -3 -28   4 223.708 37.9914   7
   3 -28  -3 4234.21 158.371  10
  -3 -28   3 4329.91 166.381   7
   3  28  -3 4100.79 155.530  12
  -3  28   3 4167.05 158.533  11
   3 -28  -2 336.385 47.7648  10
  -3 -28   2 364.740 51.8554   7
   3  28  -2 339.783 48.9941  12
  -3  28   2 326.846 47.5059  11
   3 -28  -1 3238.27 144.656  10
  -3 -28   1 3322.01 149.572   7
   3  28  -1 3529.97 152.487  12
  -3  28   1 3477.57 152.675  11
  -3  28   0 221.942 42.8221  11
  -3 -28   0 248.076 37.6445  10
   3 -28   0 256.224 45.9124  10
  -3 -28   0 236.950 42.9664   7
   3  28   0 253.867 46.1695  12
  -3 -28  -1 1549.28 91.6866  10
   3  28   1 1410.65 97.0658  12
  -3  28  -1 1525.35 99.0090  11
  -3 -28  -2 779.915 63.6106  10
   3 -28   2 767.418 63.5141   7
   3  28   2 752.186 70.2612  12
  -3 -28  -2 839.979 64.4244   6
  -3  28  -2 796.725 68.9983  11
  -3 -28  -3 457.315 49.3014  10
  -3  28  -3 435.134 44.2810   8
   3  28   3 470.409 52.4242  12
   3 -28   3 417.968 49.0550   7
  -3 -28  -3 434.705 47.9574   6
  -3  28  -4 18.1946 17.7654   8
   3  28   4 25.8239 20.3810  12
  -3 -28  -4 33.7762 18.2460   6
  -3  28  -5 141.604 27.2281   8
  -3 -28  -5 139.898 27.7374   6
   3 -28   6 129.407 24.9666   7
   3 -29  -4 16.2561 16.8119  19
  -3 -29   4 47.1591 20.3647   7
   3  29  -3 83.2462 21.6306  12
  -3 -29   3 93.6279 25.2879   7
   3 -29  -3 123.842 28.5792  10
   3 -29  -2 627.447 56.1044  10
  -3 -29   2 652.653 58.9476   7
   3  29  -2 665.724 57.8661  12
  -3  29   2 559.028 55.4232  11
   3 -29  -1 800.519 63.5085  10
  -3 -29   1 676.067 61.2356   7
   3  29  -1 746.297 64.5469  12
  -3  29   1 785.113 67.1844  11
   3 -29   0 1069.18 76.8145  10
   3  29   0 1258.11 84.0187  12
  -3  29   0 1290.42 83.7277  11
   3 -29   1 1330.06 83.6760  10
  -3 -29  -1 1139.30 70.0984  10
   3  29   1 1226.05 82.0614  12
  -3  29  -1 1181.27 79.8041  11
  -3 -29  -2-13.1008 17.0599  10
   3 -29   2 33.3332 19.6780  10
   3 -29   2 10.2976 13.8565   7
   3  29   2 2.75396 19.1200  12
   3 -29   3 2713.01 110.806   7
  -3 -29  -3 2750.13 107.308   6
   3  29   3 2724.08 113.637  12
   3 -29   4 525.766 45.7992   7
  -3 -29  -4 522.299 44.1399   6
   3 -30  -2 125.059 24.6684  10
   3  30  -2 74.0148 22.0426  12
   3 -30  -1 116.792 25.7222  10
   3  30  -1 71.8666 23.8742  12
   3 -30   0 2505.15 106.035  10
   3  30   0 2452.16 107.877  12
   3 -30   1 1859.66 90.0846  10
   3  30   1 1921.73 93.3682  12
   3 -30   2 26.4272 17.8489  10
   3  30   2 48.4125 20.8663  12
   4   0 -14 4736.18 164.583  15
   4   0 -13-20.2419 28.4451  15
   4   0 -13 927.806 81.4573  14
   4   0 -12 387.945 59.3146  15
   4   0 -12 321.340 44.1681  24
   4   0 -12 371.110 53.8291  14
   4   0 -11 76.6896 39.1423   5
   4   0 -11-18.7081 34.1807  14
   4   0 -11 44.1764 33.6540  15
   4   0 -11-11.8005 27.5309  24
   4   0 -10 10745.1 312.605  20
   4   0 -10 10178.6 312.583   5
   4   0 -10 9069.70 292.808  14
   4   0 -10 9557.86 314.052  15
   4   0 -10 9711.33 301.992  24
   4   0  -9 23.2761 23.0493   5
   4   0  -9 9.95491 21.9421  24
   4   0  -9-18.9048 25.9939  14
   4   0  -8 400.019 120.677  34
   4   0  -7 14.8483 42.1695  34
   4   0  -7-7.47813 48.4401   4
   4   0  -6 265.768 89.9292   4
   4   0  -6 205.982 72.9902  34
   4   0  -5 66.8267 69.0401   4
   4   0  -5 61.8176 47.8638  34
   4   0  -4 5811.79 313.050  33
   4   0  -4 6304.23 338.182   4
   4   0  -3 26.7796 45.3112   4
   4   0  -3-6.92522 48.3582  33
   4   0  -2 19623.8 560.969  33
   4   0  -2 19193.6 589.932   4
   4   0  -1 122.935 42.2214  33
   4   0  -1 25.0400 39.8012   4
   4   0   0 35058.8 816.472   1
   4   0   0 35093.6 745.044  33
   4   0   1 30.8715 25.4810  33
   4   0   1 40.2685 36.6858   1
   4   0   2 35978.3 799.149   1
   4   0   2 33866.2 678.659  33
  -4   0  -3 16.7926 43.5952   2
   4   0   3-12.9456 30.6868   1
  -4   0  -4 10839.9 440.419   2
   4   0   4 11228.1 374.708   1
  -4   0  -4 9953.54 414.399  29
  -4   0  -5-59.9920 57.7745   2
  -4   0  -5-20.0993 43.2889  29
  -4   0  -6 42.6026 46.8684   2
  -4   0  -6-19.0021 71.6209  34
  -4   0  -7-57.0904 63.9619   2
  -4   0  -7-24.2611 60.2812  30
  -4   0  -7 29.0726 43.0384  34
  -4   0  -8 3585.91 345.566  34
  -4   0  -8 3732.36 321.318   2
  -4   0  -8 3180.53 295.329  30
  -4   0  -9 17.9349 24.2114  20
  -4   0  -9 12.2469 19.8132  26
  -4   0  -9-3.97122 23.3794  18
  -4   0 -10 8206.84 272.076  20
  -4   0 -10 8213.95 279.833  18
  -4   0 -11 10.4029 21.9071  20
  -4   0 -11 27.4229 29.0264  18
  -4   0 -12 5325.93 214.427  18
  -4   0 -13-5.95924 31.5301  18
  -4   0 -14 3180.34 131.525  18
   4   1 -14 590.965 56.8126  15
   4  -1 -14 596.750 54.7166  15
   4   1 -13 118.608 37.4143  15
   4  -1 -13 106.021 34.1355  15
   4   1 -12 1091.37 86.3321  14
   4   1 -12 951.836 77.5011  24
   4   1 -12 929.460 87.2763  15
   4  -1 -12 826.053 81.9740  15
   4  -1 -12 859.784 77.6954  14
   4  -1 -11 1895.61 121.898   5
   4   1 -11 1691.32 110.660  14
   4  -1 -11 1776.92 116.257  20
   4  -1 -11 1618.97 117.645  15
   4   1 -11 1922.39 118.103  24
   4  -1 -11 1813.85 115.288  14
   4  -1 -11 1735.15 113.131  24
   4   1 -11 1869.70 127.802  15
   4  -1 -10 2813.52 151.912   5
   4  -1 -10 2754.68 144.489  20
   4   1 -10 2402.22 134.754  14
   4  -1 -10 2452.76 138.289  14
   4   1 -10 2633.26 151.219  15
   4  -1 -10 2593.69 142.104  24
   4   1 -10 2631.64 142.261  24
   4  -1 -10 2701.06 151.892  15
   4  -1  -9 3251.83 161.649   5
   4   1  -9 3459.04 157.103  14
   4   1  -9 3303.68 158.139  24
   4   1  -9 3233.26 165.765  15
   4  -1  -9 3207.74 155.156  24
   4  -1  -8-44.5939 76.9919  34
   4   1  -8 57.4373 53.4030  34
   4   1  -7 3323.31 304.293  34
   4  -1  -7 3764.34 322.556  34
   4   1  -7 3747.82 323.068   4
   4  -1  -7 4088.31 333.957   4
   4   1  -6 23451.3 822.940  34
   4  -1  -6 24119.0 840.571   4
   4   1  -6 24616.4 848.092   4
   4  -1  -6 25583.4 850.750  34
   4   1  -5 78.4053 50.4533  34
   4  -1  -5 184.690 73.5083   4
   4   1  -5 62.8968 53.3224   4
   4  -1  -5 204.018 81.3925  34
   4  -1  -4 6819.22 356.008   4
   4   1  -4 6761.83 354.344   4
   4   1  -4 7089.66 343.004  33
   4  -1  -3 1199.80 127.506  33
   4   1  -3 1325.30 134.187  33
   4  -1  -3 1132.52 131.858   4
   4   1  -3 1190.22 135.492   4
   4   1  -2 15550.5 480.558  33
   4  -1  -2 15588.2 474.210  28
   4  -1  -2 16153.9 523.891   4
   4   1  -2 15637.1 517.413   4
   4  -1  -2 15036.6 480.589  33
   4  -1  -1 445.657 66.1324  28
  -4  -1   1 554.076 63.0843   2
   4  -1  -1 463.902 68.8648  33
   4   1  -1 541.737 75.9214  33
   4  -1  -1 540.925 85.0708   4
   4   1  -1 548.609 87.5290   4
   4  -1   0 268.617 49.9838  33
  -4  -1   0 354.834 57.8752   2
   4   1   0 329.959 56.3235  33
   4  -1   0 382.799 75.8270   1
  -4  -1  -1 1255.77 116.972   2
   4  -1   1 1141.01 85.0557  33
   4  -1   1 1238.99 120.062   1
   4   1   1 1320.20 118.416   1
   4  -1   2 154.453 28.1088  33
  -4  -1  -2 110.913 52.0731   2
   4  -1   2 119.019 51.1024   1
   4   1   2 123.883 44.7221   1
   4   1   3 5769.43 246.035   1
   4  -1   3 5460.89 258.545   1
  -4  -1  -4 7263.10 357.449  29
  -4  -1  -4 8286.27 378.588   2
   4  -1   4 8119.26 327.733   1
   4   1   4 8251.57 295.537   1
  -4   1  -4 7280.76 339.750  29
  -4   1  -5 1219.52 149.105   2
  -4  -1  -5 1012.35 139.452   2
  -4  -1  -5 1063.53 143.750  29
  -4   1  -5 1083.67 137.875  29
  -4  -1  -6 4753.93 323.222   2
  -4   1  -6 4618.39 340.296  34
  -4  -1  -6 4897.82 347.513  34
  -4   1  -6 4356.94 304.672   2
  -4   1  -7 113.015 63.2906  34
  -4   1  -7 275.864 85.0064  30
  -4   1  -7 158.431 56.1497   2
  -4  -1  -7 123.192 60.6546  34
  -4  -1  -7 220.374 78.9849   2
  -4  -1  -8 2248.56 275.446  34
  -4   1  -8 2230.08 247.818   2
  -4  -1  -8 1863.42 223.433   2
  -4  -1  -8 2093.97 238.296  30
  -4   1  -8 2207.93 238.445  30
  -4   1  -8 2201.89 270.013  34
  -4  -1  -9 1236.79 97.9893  26
  -4   1  -9 1380.57 98.0540  20
  -4  -1  -9 1304.43 96.3215  20
  -4  -1  -9 1325.94 101.701  18
  -4   1  -9 1193.11 95.8896  26
  -4   1  -9 1301.05 101.386  18
  -4   1 -10 124.800 36.4354  20
  -4  -1 -10 83.4550 38.4798  18
  -4  -1 -10 106.748 32.9250  20
  -4   1 -10 49.2327 35.4041  18
  -4  -1 -11 272.457 48.3632  20
  -4  -1 -11 320.790 54.3376  18
  -4   1 -11 263.323 48.6939  18
  -4  -1 -12 593.653 72.6103  18
  -4   1 -12 582.235 68.5279  18
  -4   1 -13 940.358 81.3554  18
  -4  -1 -13 1049.49 83.9992  18
  -4   1 -14 68.0222 26.6448  18
  -4  -1 -14 57.7041 27.8421  18
   4   2 -14-0.50555 22.3393  15
   4  -2 -14-14.1254 18.6712  15
   4  -2 -13 2214.62 111.987  14
   4   2 -13 1980.11 118.167  15
   4  -2 -13 1992.24 114.841  15
   4  -2 -12 86.6567 35.0303  15
   4   2 -12 94.9937 37.5723  15
   4  -2 -12 26.6203 28.8208  14
   4   2 -12 60.6415 24.7497  24
   4  -2 -11 35.4069 24.3309  20
   4  -2 -11 71.1258 33.5423   5
   4   2 -11 94.5098 37.6788  15
   4   2 -11 38.9311 26.3711  14
   4  -2 -11 4.90994 29.8318  14
   4  -2 -11 101.685 35.6145  15
   4  -2 -11 16.6939 27.8507  24
   4   2 -11 89.8634 32.2879  24
   4  -2 -10 1664.77 116.541   5
   4  -2 -10 1814.98 116.606  20
   4   2 -10 1531.21 104.237  14
   4   2 -10 1715.54 120.686  15
   4  -2 -10 1791.93 121.237  15
   4   2 -10 1546.74 107.792  24
   4  -2 -10 1562.48 109.001  14
   4  -2 -10 1654.38 112.746  24
   4  -2  -9 86.3578 31.6390  24
   4  -2  -9 130.327 36.7857   5
   4   2  -9 75.4399 31.5678  15
   4   2  -9 67.5714 20.8940  14
   4   2  -9 134.062 34.8680  24
   4  -2  -8 9088.54 538.169  34
   4   2  -8 9179.44 542.178  34
   4  -2  -7 140.238 71.9472  34
   4   2  -7 215.240 82.7953  34
   4  -2  -7 231.201 80.9901   4
   4   2  -7 185.488 76.4572   4
   4   2  -6 18081.3 704.941  34
   4  -2  -6 18697.3 721.832   4
   4   2  -6 18761.6 725.087   4
  -4  -2   6 20993.2 677.860   3
   4  -2  -6 19274.6 724.863  34
   4  -2  -5 20.8489 51.2491  34
  -4  -2   5 64.1721 39.4033   3
   4   2  -5 114.675 63.5438  34
   4   2  -5 96.0012 59.3520  33
   4  -2  -5 46.4507 41.9417   4
   4   2  -5-38.3639 73.0715   4
   4   2  -4 16995.8 564.860  33
   4  -2  -4 15433.7 564.914   4
   4   2  -4 15609.4 569.809   4
   4  -2  -4 16177.0 551.101  28
   4   2  -3 367.709 80.2023  33
   4  -2  -3 256.611 69.2991  28
   4   2  -3 355.973 81.9138   4
   4  -2  -3 180.438 64.3864   4
  -4   2   2 270.723 33.4163  36
   4  -2  -2 255.803 58.5899  28
   4  -2  -2 234.729 65.1038   4
   4   2  -2 149.540 55.9711   4
  -4  -2   2 144.567 28.0481   2
   4   2  -2 183.170 60.0143  33
   4  -2  -1 2651.72 187.770   1
  -4  -2   1 3260.49 157.267   2
   4  -2  -1 2747.00 163.773  33
   4  -2  -1 3232.87 205.971   4
   4   2  -1 3112.40 204.899   4
   4  -2  -1 2766.11 164.799  28
   4   2  -1 2724.61 169.891  33
  -4  -2   0 924.613 93.1997   2
   4  -2   0 807.686 80.0102  33
   4  -2   0 879.558 109.940   1
   4  -2   1 6158.81 208.578  33
   4  -2   1 6120.38 279.357   1
   4  -2   1 5676.62 196.942  28
  -4  -2  -2 7.10706 42.1773   2
   4  -2   2-3.54226 39.3495   1
   4  -2   3 3483.66 211.367   1
  -4  -2  -3 3622.74 231.983   2
   4   2   3 3520.30 178.643   1
  -4   2  -3 2880.71 187.434  29
  -4  -2  -4 4232.60 276.366   2
  -4   2  -4 4570.18 257.541  29
  -4   2  -5 92.9584 62.0892   2
  -4  -2  -5 190.706 62.5623   2
  -4  -2  -5 42.0487 39.1470  29
   4  -2   5 196.619 53.4141   1
  -4  -2  -6 13984.7 600.999  34
  -4  -2  -6 13997.9 579.497   2
  -4  -2  -6 13439.8 572.813  29
  -4   2  -6 12110.3 569.090  34
  -4  -2  -7 200.001 81.0139  34
  -4   2  -7 286.089 92.3056   2
  -4  -2  -7 69.1393 47.7030   2
  -4   2  -7 73.9871 39.9704  30
  -4   2  -7 198.829 78.2023  34
  -4   2  -8 3396.12 333.498  34
  -4  -2  -8 3559.32 342.982  34
  -4   2  -8 3304.97 305.368   2
  -4  -2  -8 4119.55 336.883   2
  -4  -2  -8 3203.39 298.502  30
  -4   2  -9 69.4384 23.0215  20
  -4  -2  -9 18.1246 19.8433  20
  -4  -2  -9 26.8998 22.6077  18
  -4   2  -9-3.20067 26.2827  26
  -4  -2  -9-26.2453 24.3975  26
  -4  -2 -10 149.705 36.0396  20
  -4   2 -10 140.229 36.3228  18
  -4  -2 -10 187.214 44.3778  18
  -4  -2 -11 311.913 51.3732  20
  -4   2 -11 321.861 54.8224  18
  -4  -2 -11 405.866 58.2749  18
  -4   2 -12 28.2292 31.3076  18
  -4  -2 -12 130.294 39.0957  18
  -4   2 -13 361.953 52.0443  18
  -4  -2 -13 356.426 51.0776  18
  -4   2 -13 303.011 47.1081  17
  -4   2 -14 1368.54 82.7021  18
  -4  -2 -14 1444.82 84.6579  18
  -4   2 -14 1244.00 70.5465  15
   4   3 -14 618.108 57.9867  15
   4  -3 -14 647.843 54.6948  15
   4  -3 -13 11.9725 23.3712  15
   4  -3 -13 106.023 35.8205  14
   4   3 -13 44.7303 31.2142  15
   4  -3 -12 60.3817 29.1823  15
   4  -3 -12-1.68972 32.7399  14
   4   3 -12 75.0833 29.4864  15
   4   3 -12 12.6398 22.4814  24
   4   3 -11 5606.86 210.958  14
   4  -3 -11 5840.45 227.262   5
   4  -3 -11 5920.92 223.026  20
   4  -3 -11 5609.08 211.948  24
   4  -3 -11 5712.96 227.675  15
   4  -3 -11 5244.62 210.658  14
   4   3 -11 5765.06 218.676  24
   4   3 -11 5648.00 231.403  15
   4  -3 -10 4739.88 205.515   5
   4  -3 -10 4942.34 200.797  20
   4   3 -10 4952.10 212.102  15
   4   3 -10 4252.19 183.004  14
   4  -3 -10 4710.20 194.324  24
   4   3 -10 4829.58 198.851  24
   4  -3  -9 694.081 75.9639   5
   4   3  -9 816.791 81.6017  15
   4   3  -9 647.829 66.8416  14
   4  -3  -9 660.792 70.0440  24
   4   3  -9 787.315 77.0230  24
   4   3  -8 83.6112 73.0967  34
   4  -3  -8 75.7723 58.3109  34
   4  -3  -7 117.652 78.0331  34
   4   3  -7 87.2159 73.3778  34
   4  -3  -7 24.2413 39.5570   4
   4   3  -7 46.1963 68.5567   4
   4  -3  -6 1452.94 183.366  34
   4   3  -6 1339.93 173.818  34
   4   3  -6 1292.11 179.517   4
   4  -3  -6 1047.46 162.754   4
  -4  -3   6 1577.69 172.564   3
   4   3  -5 3137.77 243.004  33
  -4  -3   5 3623.37 250.989   3
   4  -3  -5 3095.41 254.226  34
   4   3  -5 2825.11 240.937  34
   4  -3  -5 3047.75 253.315   4
   4   3  -5 3259.24 262.821   4
   4  -3  -5 3008.88 237.791  28
   4   3  -4 40586.5 1057.79   4
   4   3  -4 43954.9 1051.39  33
   4  -3  -4 42042.2 1038.93  28
   4  -3  -4 42421.2 1067.02   4
   4   3  -3 1277.84 140.596   4
  -4   3   3 1114.73 88.4416  36
   4  -3  -3 1092.08 126.997  28
   4   3  -3 1051.15 125.256  33
   4  -3  -3 1016.97 130.285   4
   4   3  -2 4253.55 229.816  33
  -4   3   2 4454.14 169.561  36
   4  -3  -2 3779.37 217.299  28
   4  -3  -2 3672.72 227.212   4
  -4  -3   2 3930.84 156.060   2
   4  -3  -2 3799.79 230.285   1
   4   3  -2 4005.81 240.815   4
   4  -3  -1 12327.8 433.167   1
   4  -3  -1 13280.6 442.407   4
  -4  -3   1 11579.1 346.226   2
   4   3  -1 12238.7 434.598   4
   4  -3  -1 10949.5 372.763  28
  -4  -3   0 8047.73 296.909   2
   4  -3   0 7711.60 329.401   1
  -4  -3  -1 1097.37 115.945   2
   4  -3   1 877.455 107.505   1
   4  -3   2 4787.97 252.555   1
  -4  -3  -2 4164.03 240.554   2
   4  -3   2 4292.97 150.843  28
  -4  -3  -3 16269.0 541.591   2
  -4   3  -3 14818.7 453.875  29
   4  -3   4 49.7569 36.4714   1
  -4   3  -4 63.1094 37.5937  29
  -4  -3  -5 44.4340 46.5312   2
  -4  -3  -5 139.735 69.2937  29
   4  -3   5 62.3335 32.6142   1
  -4   3  -6 2111.15 212.579   2
  -4   3  -6 2149.69 231.047  34
  -4  -3  -6 2525.65 236.325   2
  -4   3  -6 2142.76 192.819  30
  -4  -3  -6 1922.15 211.196  29
  -4  -3  -6 2693.53 257.103  34
  -4   3  -7 6583.57 406.974   2
  -4   3  -7 6651.43 444.095  34
  -4  -3  -7 6651.57 439.277  34
  -4  -3  -7 6133.15 399.793   2
  -4   3  -8 332.466 91.0235   2
  -4   3  -8 327.713 114.333  34
  -4  -3  -8 484.796 136.218  34
  -4  -3  -8 230.884 91.2964  30
  -4  -3  -8 380.574 100.062   2
  -4  -3  -9 363.196 55.0709  18
  -4  -3  -9 470.626 59.6439  20
  -4   3  -9 455.519 59.5196  26
  -4  -3  -9 413.888 56.2217  26
  -4   3  -9 426.371 58.0154  18
  -4  -3 -10-8.74087 32.9366  20
  -4   3 -10 21.3191 27.7885  18
  -4  -3 -10 15.1180 30.1959  18
  -4  -3 -11-1.01765 25.9075  20
  -4   3 -11 40.2273 27.2229  18
  -4  -3 -11 26.8238 27.0110  18
  -4  -3 -12 592.944 68.3223  20
  -4  -3 -12 638.437 72.1887  18
  -4   3 -12 571.813 68.4026  18
  -4   3 -13 65.0240 27.7767  18
  -4  -3 -13 21.8794 25.3646  18
  -4   3 -13 13.6277 23.3872  17
  -4   3 -14 41.1130 22.9347  18
  -4  -3 -14 42.3892 22.6196  18
  -4   3 -14 43.7067 20.0666  13
   4   4 -14 111.915 29.9734  15
   4  -4 -14 120.536 24.6590  15
   4  -4 -13 75.8414 28.7574  15
   4  -4 -13 88.1766 30.3889  14
   4   4 -13 74.2738 34.1114  15
   4  -4 -12 885.670 78.6253  20
   4  -4 -12 995.630 81.3083  14
   4   4 -12 848.588 85.2668  15
   4   4 -12 847.079 75.1047  24
   4  -4 -12 810.189 79.7820  15
   4  -4 -11 4764.97 205.918   5
   4  -4 -11 5126.16 204.733  20
   4   4 -11 5101.67 196.454  14
   4  -4 -11 5126.26 210.104  15
   4  -4 -11 4572.54 192.767  14
   4   4 -11 5058.87 201.156  24
   4  -4 -11 4939.33 195.613  24
   4   4 -11 4680.73 209.641  15
   4  -4 -10 194.294 37.9094  20
   4  -4 -10 116.511 35.9104   5
   4   4 -10 154.405 42.1793  15
   4   4 -10 171.827 40.9393  14
   4  -4 -10 65.6822 29.6769  24
   4   4 -10 173.896 41.3395  24
   4  -4  -9 1766.43 120.166   5
   4   4  -9 1687.81 117.424  15
   4   4  -9 1656.04 105.391  14
   4  -4  -9 1669.55 110.486  24
   4  -4  -8 1202.07 192.150  34
   4   4  -8 949.824 173.373  34
   4  -4  -7 66816.8 1665.68  34
   4   4  -7 64317.8 1644.01  34
   4  -4  -7 63910.7 1653.40   4
   4   4  -7 64557.1 1666.66   4
   4   4  -6 5475.31 362.257  34
   4   4  -6 5895.51 362.510  33
   4  -4  -6 5446.12 368.162   4
   4   4  -6 6166.92 390.386   4
   4  -4  -6 5572.64 365.316  34
  -4  -4   6 6020.55 360.498   3
   4  -4  -5 17218.5 628.656  28
   4  -4  -5 16997.9 640.649   4
   4   4  -5 17057.3 646.313   4
  -4  -4   5 19218.3 641.660   3
   4   4  -5 17972.6 633.926  33
   4   4  -4 5404.36 303.776  33
   4  -4  -4 5347.99 312.940   4
   4   4  -4 5112.65 310.580   4
  -4  -4   4 5950.24 319.143   3
   4  -4  -4 5476.40 310.376  28
   4   4  -3 31548.4 864.776   4
   4  -4  -3 33085.7 869.340   4
  -4   4   3 36538.3 765.458  36
   4   4  -3 33419.3 860.094  33
   4  -4  -3 34914.8 876.871  28
  -4   4   2 201.458 43.1609  36
   4   4  -2 224.495 63.8180  33
  -4  -4   2 242.515 40.3212   2
   4  -4  -2 154.078 49.4164   4
   4   4  -2 222.635 64.4133   4
   4  -4  -2 246.041 66.9328   1
   4  -4  -2 419.523 76.7883  28
  -4   4   1 1597.16 108.005  36
   4   4  -1 1937.88 161.264   4
  -4  -4   1 1701.45 122.872   2
   4  -4  -1 1715.37 154.481   1
   4  -4  -1 1873.03 158.286   4
   4  -4  -1 1725.98 137.354  28
   4  -4   0 2489.59 154.680  28
   4  -4   0 2699.06 194.292   1
  -4  -4   0 2704.72 167.343   2
   4  -4   1 706.563 105.406   1
  -4  -4  -1 655.194 91.1887   2
   4  -4   2 22256.2 656.797   1
  -4  -4  -2 25123.5 683.002   2
   4  -4   3 18634.0 577.237   1
  -4   4  -3 17529.3 487.881  29
  -4  -4  -4 223.750 71.0870   2
   4  -4   4 212.951 69.0320   1
  -4  -4  -4 213.542 62.2461  29
  -4  -4  -5 3852.59 284.977  29
  -4  -4  -5 3792.68 282.236   2
   4  -4   5 4321.26 273.845   1
  -4  -4  -6-61.9210 72.9294  34
  -4   4  -6-71.8400 81.4649  34
  -4  -4  -6-3.89111 46.5667   2
  -4  -4  -6 74.4566 49.8818  29
  -4   4  -7 1086.38 162.648   2
  -4  -4  -7 1179.82 183.550  34
  -4  -4  -7 1219.24 177.677   2
  -4   4  -7 833.028 160.162  34
  -4   4  -8 180.014 66.8989   2
  -4   4  -8 97.9348 86.7152  34
  -4  -4  -8 78.5434 66.9662  34
  -4  -4  -8 180.225 84.1054   2
  -4  -4  -8 19.6497 64.6202  30
  -4  -4  -9 2032.23 121.701  20
  -4   4  -9 2044.32 127.272  18
  -4  -4  -9 2148.61 132.761  18
  -4  -4  -9 2091.85 128.255  26
  -4   4  -9 2119.30 128.878  26
  -4  -4 -10 419.242 56.2399  20
  -4   4 -10 480.378 65.4446  18
  -4  -4 -10 451.542 63.5070  18
  -4  -4 -11 1696.12 114.494  20
  -4   4 -11 1621.49 115.830  18
  -4  -4 -11 1725.90 119.786  18
  -4  -4 -12 3159.56 151.699  20
  -4   4 -12 3039.45 156.781  18
  -4  -4 -12 2873.58 153.549  18
  -4   4 -13 1352.39 94.8423  18
  -4  -4 -13 1426.36 98.1193  18
  -4   4 -13 1376.03 93.9021  17
  -4  -4 -14 257.803 38.0339  18
  -4   4 -14 321.978 37.0003  17
  -4   4 -14 255.500 32.6787  13
   4  -5 -14 257.800 31.5680  15
   4   5 -14 254.172 38.7885  15
   4   5 -13 290.498 48.9690  15
   4  -5 -13 310.561 43.7497  15
   4   5 -13 409.258 49.8990  13
   4  -5 -13 315.195 44.6984  14
   4  -5 -12 1064.02 90.2094   5
   4  -5 -12 1092.14 85.2984  20
   4   5 -12 1079.55 93.7734  15
   4  -5 -12 998.587 84.4950  15
   4  -5 -12 893.113 77.6976  14
   4   5 -12 1025.48 81.9068  24
   4  -5 -11 905.751 88.6947   5
   4  -5 -11 1034.44 87.8138  20
   4  -5 -11 1094.55 93.1977  15
   4   5 -11 1024.03 96.0818  15
   4  -5 -11 1122.03 91.8897  14
   4   5 -11 1179.67 93.0987  24
   4  -5 -10 2247.15 138.790   5
   4  -5 -10 2497.54 138.803  20
   4   5 -10 2447.13 145.978  15
   4   5 -10 2368.03 133.103  14
   4  -5 -10 2384.81 133.089  24
   4   5 -10 2358.43 136.072  24
   4  -5  -9 3220.14 166.966   5
   4   5  -9 3412.68 171.142  15
   4  -5  -9 3345.11 165.913  19
   4  -5  -9 3337.37 163.156  25
   4   5  -9 3125.80 147.515  14
   4  -5  -9 3209.40 155.824  24
   4  -5  -8 158.061 38.2941  19
   4  -5  -8 157.816 38.7185   5
   4   5  -8 19.6007 67.8928  34
   4   5  -8 76.4241 26.8924  15
   4   5  -8 56.0534 21.0645  14
   4  -5  -8 4.60731 41.8910  34
   4   5  -7 3358.02 304.494  34
   4  -5  -7 4049.48 334.753  34
  -4  -5   6 350.362 88.3355   3
   4   5  -6 303.821 87.3332  34
   4   5  -6 339.853 97.2527   4
   4  -5  -6 410.766 100.906  28
   4  -5  -6 248.368 84.8347   4
   4   5  -6 454.713 100.436  33
   4  -5  -6 334.988 96.4060  34
   4   5  -5 8600.60 417.807  33
   4  -5  -5 7551.14 408.731   4
   4   5  -5 7595.78 411.682   4
  -4  -5   5 8283.90 413.246   3
   4  -5  -5 7983.49 408.156  28
   4  -5  -4 40118.7 1023.04   4
   4   5  -4 37802.1 1015.36   4
   4  -5  -4 38800.4 1010.93  28
  -4  -5   4 41555.6 1034.99   3
   4   5  -4 39232.5 1002.53  33
  -4   5   3 38492.6 834.394  36
   4   5  -3 36434.4 909.378  33
   4   5  -3 34623.2 908.923   4
   4  -5  -3 36319.7 913.044   4
  -4  -5   3 34616.2 919.707   3
   4  -5  -3 35892.8 918.233  28
   4  -5  -2 47345.8 1100.40   1
  -4   5   2 47844.4 986.848  36
   4  -5  -2 45983.3 1068.51  28
   4  -5  -2 47016.7 1070.59   4
   4   5  -2 47608.4 1085.17   4
  -4  -5   2 50117.7 950.221   2
  -4   5   1 871.430 89.1599  36
   4  -5  -1 1017.82 112.807  28
   4  -5  -1 887.188 109.765   4
   4   5  -1 863.347 109.713   4
  -4  -5   1 835.993 91.5869   2
   4  -5  -1 881.933 114.320   1
   4   5   0 19.8868 11.6712  36
  -4  -5   0 32.7333 29.9778   2
   4  -5   0 46.8666 51.2262   1
  -4  -5  -1 1307.87 127.233   2
   4  -5   1 1339.05 144.396   1
   4  -5   2 50097.1 1136.06   1
  -4   5  -2 47911.8 945.393  29
  -4  -5  -2 50822.6 1126.78   2
  -4  -5  -3 280.510 80.9040   2
   4  -5   3 421.747 93.3346   1
  -4  -5  -4 1953.34 195.239  29
  -4  -5  -4 1903.09 187.355   2
   4  -5   4 1902.36 178.671   1
  -4  -5  -5 1083.70 158.347  29
  -4  -5  -5 1251.42 165.828   2
   4  -5   5 1182.44 149.666   1
  -4  -5  -6 813.337 147.786  29
  -4   5  -6 760.615 145.010  34
  -4  -5  -6 743.315 133.017   2
  -4  -5  -6 911.034 156.137  34
   4  -5   6 824.635 130.455   1
  -4   5  -7 2165.69 233.388   2
  -4   5  -7 2272.14 258.802  34
  -4  -5  -7 2335.63 259.569  34
  -4  -5  -7 2312.53 246.130   2
  -4   5  -8 2977.33 289.247   2
  -4   5  -8 3317.42 337.438  34
  -4  -5  -8 3322.02 332.484  34
  -4  -5  -8 3564.67 323.133   2
  -4  -5  -9 314.916 50.1374  20
  -4   5  -9 322.975 51.1514  18
  -4  -5  -9 309.904 53.4125  18
  -4   5  -9 285.776 48.2044  26
  -4  -5  -9 327.658 52.0529  26
  -4  -5 -10 2066.32 127.681  20
  -4   5 -10 2021.84 131.300  18
  -4  -5 -10 2059.22 133.633  18
  -4  -5 -11-7.79261 25.3778  20
  -4   5 -11 14.8372 28.9393  18
  -4  -5 -11 18.8499 28.4643  18
  -4  -5 -12 7276.95 240.214  20
  -4   5 -12 7090.18 247.944  18
  -4  -5 -12 7097.47 250.330  18
  -4   5 -12 6846.23 246.919  17
  -4   5 -13 3119.24 145.429  18
  -4  -5 -13 3243.55 147.335  18
  -4   5 -13 3120.91 143.183  17
  -4  -5 -14 2014.00 97.1760  18
  -4   5 -14 1850.11 85.5214  17
   4  -6 -14 403.571 46.0010  14
   4   6 -14 73.0681 26.7479  15
   4  -6 -13 231.770 37.7966  15
   4  -6 -13 207.603 35.2412  14
   4   6 -13 267.528 41.0032  13
   4   6 -13 232.477 36.0572  24
   4   6 -13 236.410 42.1644  15
   4  -6 -12 351.076 49.4868  20
   4  -6 -12 376.879 56.6583   5
   4   6 -12 405.895 62.4224  15
   4  -6 -12 388.739 50.9200  14
   4  -6 -12 352.210 50.9575  15
   4   6 -12 372.531 50.1087  24
   4  -6 -11 787.775 81.7988   5
   4  -6 -11 819.820 77.7579  20
   4   6 -11 784.348 84.3305  15
   4  -6 -11 827.006 81.0385  15
   4  -6 -11 796.262 76.5023  14
   4   6 -11 930.512 82.0342  24
   4  -6 -10 1136.76 98.4985   5
   4  -6 -10 1158.05 94.7823  20
   4  -6 -10 1143.52 90.9965  24
   4   6 -10 1116.60 100.133  15
   4  -6  -9 570.656 68.7368   5
   4  -6  -9 513.243 66.0526  19
   4   6  -9 590.628 70.8195  15
   4  -6  -9 700.861 73.3895  25
   4  -6  -9 451.753 55.9754  24
   4   6  -9 620.987 69.4034  14
   4  -6  -8 4604.38 196.341   5
   4  -6  -8 5071.00 201.567  19
   4  -6  -8 4893.17 391.598  34
   4   6  -8 4677.08 197.709  15
   4  -6  -8 4444.20 188.708  25
   4  -6  -8 4453.91 185.685  24
   4   6  -8 4463.20 174.458  14
   4   6  -7 846.257 148.551  34
   4  -6  -7 1175.50 179.179  34
  -4  -6   6 567.085 122.741   3
   4  -6  -6 502.257 110.559   4
   4   6  -6 491.131 108.200  33
   4   6  -6 512.187 111.179   4
   4  -6  -6 578.355 121.286  28
   4  -6  -5 318.035 87.5815  28
  -4  -6   5 376.184 89.5114   3
   4   6  -5 399.799 85.9904  33
   4  -6  -5 322.092 93.0537   4
   4   6  -5 260.524 79.4835   4
   4   6  -4 17790.5 614.371  33
   4  -6  -4 18473.7 630.848   4
   4  -6  -4 17892.3 632.942  28
   4   6  -4 18310.1 633.697   4
  -4  -6   4 20226.1 666.385   3
   4  -6  -3 68.5473 48.0036   1
  -4  -6   3 33.9413 40.9179   3
  -4   6   3 39.9732 39.2753  36
   4  -6  -3 41.2982 41.2540  28
   4   6  -3 18.3769 34.3594   4
   4  -6  -3 62.7621 45.6924   4
   4   6  -3 106.612 54.5450  33
   4  -6  -2 1343.64 150.840   1
  -4  -6   2 649.693 98.1614   3
  -4   6   2 999.777 111.719  36
   4  -6  -2 865.589 112.596  28
   4  -6  -2 1036.62 135.074   4
   4   6  -2 611.968 95.7665   4
  -4  -6   2 657.030 75.8345   2
  -4  -6   1-30.1571 47.5847   3
   4   6  -1 70.1916 43.5120   4
  -4   6   1 31.4112 31.0590  36
   4  -6  -1-17.6461 35.2997   4
   4  -6  -1 36.8822 51.4755   1
  -4  -6   1 36.3019 31.5384   2
   4   6   0 2024.08 110.495  36
   4  -6   0 1934.24 173.359   1
  -4  -6   0 2339.33 167.812   2
  -4  -6   0 2186.18 170.482   3
   4  -6   1 45823.0 1102.95   1
  -4  -6  -1 48260.0 1076.61   2
   4  -6   2 15917.2 558.936   1
  -4  -6  -2 15111.3 487.469   3
  -4  -6  -3 968.046 134.332   2
  -4  -6  -3 1190.12 114.419   3
   4  -6   3 984.125 135.642   1
   4  -6   4 1932.38 196.153  31
  -4  -6  -4 1505.27 175.745  29
  -4  -6  -4 1843.23 189.466   2
  -4  -6  -5 48.2298 59.2260   2
   4  -6   5 83.6835 57.5126  31
  -4  -6  -5 16.8628 58.8955  29
  -4   6  -6 16380.1 690.692  34
  -4  -6  -6 18668.7 716.255  34
  -4  -6  -6 16859.3 699.456  29
  -4  -6  -6 18865.6 717.223   2
  -4  -6  -7 273.267 111.923  34
  -4  -6  -7 155.826 68.5414   2
  -4   6  -7 145.936 73.7619  34
  -4   6  -8 1989.14 236.801   2
  -4   6  -8 2443.57 132.993  18
  -4  -6  -8 2288.29 257.792   2
  -4   6  -8 2110.75 127.474  26
  -4  -6  -8 2353.14 133.052  26
  -4  -6  -9 902.774 82.7207  20
  -4   6  -9 862.191 82.3243  18
  -4   6  -9 933.247 86.8379  26
  -4  -6  -9 967.300 87.5216  26
  -4  -6 -10 477.970 66.3019  20
  -4  -6 -10 533.285 65.8973  26
  -4  -6 -10 503.159 72.9397  18
  -4   6 -10 447.565 64.4255  18
  -4  -6 -11 518.271 65.7349  20
  -4   6 -11 530.760 69.3708  18
  -4  -6 -11 469.081 64.9970  18
  -4  -6 -12 4843.41 188.360  20
  -4   6 -12 5086.54 202.025  18
  -4  -6 -12 4670.68 198.016  18
  -4   6 -12 4561.31 194.860  17
  -4  -6 -13 158.196 54.7814  18
  -4   6 -13 163.640 44.6595  17
  -4   6 -13 130.485 36.9263  13
  -4   6 -14 20.7618 16.3647  21
  -4  -6 -14 27.1207 21.1533  18
   4   7 -14 592.659 52.1424  15
   4  -7 -14 799.339 54.1010  14
   4  -7 -13 543.470 53.1855  14
   4   7 -13 587.195 61.7402  15
   4   7 -13 557.387 55.3861  13
   4   7 -13 637.275 55.7769  24
   4  -7 -12 501.858 56.4468  20
   4  -7 -12 509.963 63.8968   5
   4   7 -12 495.081 59.9924  13
   4   7 -12 537.585 64.7056  15
   4   7 -12 452.660 56.1052  24
   4  -7 -12 421.660 56.0004  14
   4  -7 -11 1228.26 101.455   5
   4  -7 -11 1285.92 97.1227  20
   4   7 -11 1212.23 103.238  15
   4   7 -11 1219.82 94.8454  24
   4  -7 -10 131.702 34.3793  20
   4  -7 -10 206.904 46.2627   5
   4   7 -10 177.918 46.0534  15
   4  -7 -10 116.044 30.8200  24
   4  -7  -9-23.8506 35.9784  19
   4  -7  -9-0.60122 24.1565   5
   4   7  -9 26.7162 29.2009  15
   4  -7  -9-7.29503 34.8372  25
   4  -7  -9-51.9492 35.8135  24
   4  -7  -8 64.8802 24.2292  19
   4  -7  -8 137.093 36.8011   5
   4   7  -8 59.9289 28.2190  15
   4  -7  -8 81.7304 26.4129  25
   4  -7  -8 29.0641 23.1117  24
   4   7  -7 2142.82 236.040  33
   4  -7  -7 1964.55 229.383  28
   4   7  -6 2397.09 244.961   4
   4  -7  -6 2535.37 248.915   4
   4  -7  -6 2828.84 263.715  28
   4   7  -6 3296.33 277.595  33
  -4  -7   6 3245.79 284.997   3
   4  -7  -5 1949.15 204.830   4
   4   7  -5 2090.10 212.749   4
   4  -7  -5 2334.52 222.964  28
   4   7  -5 2266.98 214.515  33
  -4  -7   5 2232.45 223.190   3
   4   7  -4 14324.8 545.900  33
  -4   7   4 14823.2 517.474  36
   4  -7  -4 14650.3 549.146   4
   4   7  -4 14045.0 547.707   4
   4  -7  -4 13764.6 551.279  28
  -4  -7   4 15160.4 584.051   3
   4  -7  -3 1326.83 144.129   4
   4   7  -3 1063.71 130.762   4
   4  -7  -3 1399.85 157.823  28
  -4   7   3 1090.17 121.509  36
   4  -7  -3 1277.10 143.240   1
   4   7  -3 1419.49 149.763  33
  -4  -7   3 1091.88 144.226   3
  -4   7   2 1771.13 149.648  36
   4  -7  -2 1624.66 149.423   4
   4   7  -2 1722.07 157.371   4
   4  -7  -2 1637.32 159.815  28
  -4  -7   2 1731.62 172.616   3
  -4  -7   2 1773.99 133.791   2
   4  -7  -2 1659.64 163.986   1
   4   7  -1 16790.5 525.162   4
   4  -7  -1 17076.9 519.720   4
   4  -7  -1 15393.0 543.546   1
  -4  -7   1 15819.9 493.544   2
  -4  -7   1 15924.4 547.010   3
  -4   7   1 15619.0 485.506  36
   4  -7   0 2745.12 189.111   4
  -4   7   0 2089.19 163.832  36
   4  -7   0 2626.69 206.799   1
   4   7   0 2892.46 200.119   4
  -4  -7   0 3043.18 203.220   2
  -4  -7   0 2370.99 186.839   3
   4  -7   1 7955.72 378.467   1
  -4  -7  -1 8257.17 361.790   2
  -4  -7  -1 7194.37 323.161   3
   4  -7   2 7567.88 374.691   1
  -4  -7  -2 6819.23 307.935   3
  -4  -7  -2 7649.43 364.431   2
   4  -7   3 21210.6 720.669  31
  -4  -7  -3 23131.1 619.353   3
   4  -7   3 22799.4 728.312   1
  -4  -7  -4 18070.1 665.069  29
  -4  -7  -4 16648.8 636.936   2
  -4   7  -5 19326.7 706.789  34
  -4  -7  -5 21362.4 725.240  34
  -4  -7  -5 18459.1 709.206  29
  -4  -7  -5 16989.2 676.216   2
   4  -7   5 20422.6 735.471  31
  -4   7  -6 5245.86 372.343  34
  -4  -7  -6 5457.55 368.964  34
  -4  -7  -6 4128.80 327.187   2
   4  -7   6 4940.55 357.890  31
  -4  -7  -6 4774.94 356.059  29
  -4  -7  -7 95.3631 76.8681  34
  -4   7  -7 144.407 84.8925  34
  -4  -7  -7 113.217 61.2711   2
  -4  -7  -8 2378.81 130.217  20
  -4   7  -8 2230.74 129.564  18
  -4  -7  -8 2090.81 128.453  26
  -4   7  -8 2191.97 132.146  26
  -4  -7  -9 3824.54 175.473  20
  -4   7  -9 3516.00 170.569  18
  -4  -7  -9 3290.94 167.393  26
  -4   7  -9 3449.94 171.297  26
  -4  -7 -10 3247.99 162.595  20
  -4   7 -10 3225.14 167.456  18
  -4  -7 -10 3188.31 168.848  18
  -4  -7 -10 3347.62 165.382  26
  -4  -7 -11 661.618 71.0476  20
  -4   7 -11 683.199 76.5531  18
  -4   7 -11 576.540 71.9250  17
  -4  -7 -11 444.932 67.5195  18
  -4  -7 -12 62.7346 31.1810  20
  -4   7 -12 95.4643 37.6904  18
  -4   7 -12 111.504 38.1497  17
  -4  -7 -12 53.8923 34.7291  18
  -4  -7 -13 13475.3 324.083  20
  -4  -7 -13 13020.0 336.779  18
  -4   7 -13 12750.2 334.386  17
  -4   7 -13 13571.2 327.966  13
  -4  -7 -14 1514.91 80.1675  18
   4  -8 -14 539.441 45.5125  14
   4   8 -14 453.900 44.1990  15
   4   8 -13 24.7160 26.8206  15
   4  -8 -13 22.2896 23.1606  14
   4   8 -13 24.5217 21.7209  13
   4   8 -13 21.1898 17.8076  24
   4  -8 -12 21.3860 31.8759  20
   4  -8 -12 21.6970 26.8157   5
   4   8 -12 21.8623 31.2678  15
   4  -8 -12-44.1084 34.7937  14
   4   8 -12 16.3173 25.1467  13
   4   8 -12 28.5887 22.3650  24
   4  -8 -11 4990.42 210.619   5
   4  -8 -11 5317.19 206.220  20
   4   8 -11 5611.46 216.298  13
   4   8 -11 4864.38 199.367  24
   4   8 -11 5151.82 215.440  15
   4  -8 -10 4795.58 211.386   5
   4  -8 -10 4855.33 202.396  20
   4  -8 -10 4868.79 210.206  19
   4  -8 -10 5306.21 209.402  25
   4  -8 -10 5060.60 199.727  24
   4   8 -10 5276.16 220.234  15
   4  -8  -9 3848.33 186.419   5
   4  -8  -9 3621.29 173.610  25
   4  -8  -9 4004.81 186.524  19
   4  -8  -9 3901.13 175.579  24
   4   8  -9 3912.51 187.044  15
   4  -8  -8-29.0653 30.7941  24
   4  -8  -8-29.4319 30.7636  19
   4  -8  -8 45.3762 28.7879   5
   4   8  -8 23.6584 22.4602  15
   4  -8  -8 66.7609 22.9809  25
   4   8  -7 4.19678 47.0716  33
   4  -8  -7 3.64126 43.7631  28
   4  -8  -6 708.174 131.234   4
   4   8  -6 549.692 118.064  33
  -4  -8   6 625.643 129.901   3
   4   8  -6 645.719 135.380   4
   4  -8  -6 544.112 121.869  28
  -4  -8   5 305.922 94.1788   3
   4   8  -5 224.487 70.3354  33
   4  -8  -5 324.654 88.1987  28
   4  -8  -5 301.063 82.0194   4
   4   8  -5 248.981 78.0704   4
  -4   8   4 15484.6 549.675  36
   4   8  -4 15266.0 574.563  33
   4  -8  -4 14567.9 554.094   4
   4   8  -4 14923.1 570.966   4
  -4  -8   4 16003.0 620.338   3
   4  -8  -4 14143.8 578.101  28
  -4  -8   3 172.207 65.3119   3
  -4   8   3 190.431 58.1320  36
   4  -8  -3 298.234 78.9695   1
   4  -8  -3 319.538 78.3451  28
   4  -8  -3 231.203 65.1953   4
   4   8  -3 243.441 70.9622   4
  -4   8   2 1790.98 157.040  36
   4  -8  -2 1353.22 153.791   1
   4   8  -2 1521.68 147.244   4
  -4  -8   2 1644.01 172.099   3
   4  -8  -2 1428.22 139.201   4
  -4  -8   2 1428.86 127.692   2
   4  -8  -1 2876.19 223.346   1
   4   8  -1 2916.66 198.155   4
  -4  -8   1 3041.15 205.090   2
  -4  -8   1 2823.29 219.129   3
  -4   8   1 3399.71 212.170  36
   4  -8  -1 3661.05 217.558   4
   4  -8   0 136228. 2745.89   1
  -4   8   0 160909. 2707.78  36
   4  -8   0 161988. 2692.53   4
   4   8   0 134100. 2652.09   4
  -4  -8   0 151936. 2738.54   3
  -4  -8   0 144691. 2704.67   2
   4  -8   1 2539.96 215.415   1
  -4  -8  -1 2871.82 215.911   2
  -4  -8  -1 2723.05 198.665   3
  -4  -8  -2 164.002 53.5894   3
  -4  -8  -2 271.216 70.1270   2
   4  -8   2 200.954 77.7224   1
   4  -8   2 149.948 65.0984  31
  -4  -8  -3 4570.48 298.333   2
   4  -8   3 3840.84 283.202  31
  -4  -8  -4 1296.89 168.898   2
  -4  -8  -4 1307.91 168.766  29
   4  -8   4 1105.72 161.694  31
  -4   8  -5 22676.4 787.855  34
  -4  -8  -5 24207.3 795.837  34
  -4  -8  -5 24531.4 838.561  29
  -4  -8  -5 24618.7 835.841   2
   4  -8   5 23146.0 823.377  31
  -4  -8  -6 937.181 157.305  29
  -4   8  -6 1430.18 192.602  34
  -4  -8  -6 1156.31 169.040  34
  -4  -8  -6 1154.33 172.579   2
   4  -8   6 1216.68 174.389  31
  -4   8  -7 4653.76 380.126  34
  -4  -8  -7 4528.23 365.752  34
  -4  -8  -7 4777.36 377.446   2
   4  -8   7 4630.31 371.121  31
  -4  -8  -8 7249.69 246.625  20
  -4   8  -8 7075.89 246.696  18
  -4  -8  -8 6866.40 248.880  26
  -4   8  -8 6762.04 248.470  26
  -4  -8  -9 23049.1 540.051  20
  -4   8  -9 22579.1 544.180  18
  -4  -8  -9 21675.1 539.433  26
  -4  -8 -10 148.895 38.1919  20
  -4   8 -10 151.266 42.4487  18
  -4  -8 -10 170.756 46.1206  18
  -4   8 -10 196.382 48.2088  17
  -4  -8 -10 218.402 44.5544  26
  -4  -8 -11 47.4919 28.5022  20
  -4   8 -11 19.1046 26.4173  18
  -4   8 -11 95.4093 39.5589  17
  -4  -8 -11 50.6633 32.1082  18
  -4  -8 -12-3.79325 25.9772  20
  -4  -8 -12 25.5679 30.9264  18
  -4   8 -12 37.2868 26.5767  17
  -4   8 -12 0.51731 26.7526  13
  -4  -8 -13 455.522 51.8022  20
  -4  -8 -13 552.009 61.5658  18
  -4   8 -13 440.418 53.9289  17
  -4   8 -13 391.954 46.7740  13
  -4  -8 -14 857.358 58.1429  18
   4   9 -13 3.21441 23.2050  15
   4  -9 -13 1.80713 21.3307  14
   4   9 -13-16.4518 22.5065  13
   4   9 -13-7.33687 18.0505  24
   4  -9 -12 57.8306 27.1630  20
   4  -9 -12 16.1170 28.5942   5
   4   9 -12 53.4337 29.1582  15
   4  -9 -12-24.1820 27.2896  14
   4   9 -12 18.4784 20.3329  13
   4   9 -12 19.4092 25.2675  24
   4  -9 -11 1077.81 94.8809   5
   4  -9 -11 1123.78 90.0511  20
   4   9 -11 1140.71 97.6379  15
   4   9 -11 1174.51 94.7055  13
   4   9 -11 1074.39 89.2469  24
   4  -9 -10 1088.89 98.9780   5
   4  -9 -10 1224.14 96.0825  20
   4  -9 -10 1095.17 95.2161  19
   4   9 -10 1233.21 102.125  15
   4   9 -10 1223.74 98.9814  13
   4  -9  -9 281.097 50.8279  19
   4  -9  -9 231.890 48.4400   5
   4   9  -9 315.879 54.0342  15
   4  -9  -9 301.821 56.3393  25
   4  -9  -9 455.430 64.1383  24
   4   9  -8 91.4977 38.6682  21
   4  -9  -8 40.9328 25.4793  19
   4  -9  -8 54.1534 31.0952   5
   4  -9  -8-63.8016 40.4169  25
   4   9  -8 126.938 46.9024  15
   4  -9  -8 0.28468 27.1119  24
   4  -9  -7 286.235 47.8156  19
   4  -9  -7 304.484 48.8138   5
   4   9  -7 209.192 80.0208  33
   4  -9  -7 231.169 81.7838  28
   4  -9  -6 8664.27 489.027  28
   4   9  -6 9504.25 500.628  33
  -4  -9   6 8981.02 516.199   3
  -4  -9   5 178.526 78.9905   3
  -4   9   5 167.796 66.5871  36
   4   9  -5 137.099 71.8998  33
   4   9  -5 80.9153 45.7053   4
   4  -9  -5 148.788 64.7867   4
   4  -9  -5 175.009 67.5246  28
  -4  -9   4 59.6831 71.8084   3
  -4   9   4 75.7768 41.8634  36
   4   9  -4 67.8656 67.1409  33
   4   9  -4 24.5689 41.4156   4
   4  -9  -4 59.2383 51.3756   4
   4  -9  -4 128.201 63.7631  28
  -4  -9   3 136.979 66.5857   3
  -4   9   3 55.6108 43.3401  36
   4  -9  -3 110.257 57.1127   4
   4   9  -3 111.051 50.4581   4
   4  -9  -3 144.628 67.0494  28
   4  -9  -3 92.9543 47.2178   1
  -4   9   2 38990.3 974.474  36
   4   9  -2 39211.9 940.335   4
   4  -9  -2 37165.3 965.064  32
   4  -9  -2 38702.3 1009.75   1
   4  -9  -2 39479.5 926.524   4
  -4  -9   2 37264.7 1028.43   3
  -4  -9   2 39113.4 914.699   2
   4   9  -1 5643.70 278.235   4
  -4   9   1 5365.76 290.060  36
   4  -9  -1 5741.67 325.564   1
  -4  -9   1 4733.76 301.012   3
   4  -9  -1 5020.78 272.197  32
  -4  -9   1 6775.06 320.906   2
   4  -9  -1 6223.88 284.869   4
   4  -9   0 1538.44 172.511   1
  -4   9   0 1789.75 165.909  36
   4   9   0 1609.41 145.942   4
   4  -9   0 1627.48 144.007   4
  -4  -9   0 1616.73 163.911   2
  -4  -9   0 1597.51 164.091   3
  -4  -9  -1 297.058 72.3748   3
   4  -9   1 343.437 94.0000   1
  -4  -9  -1 199.175 59.0172   2
   4  -9   2 26039.9 826.365  31
  -4  -9  -2 29361.1 848.430   2
  -4  -9  -2 28385.2 771.635   3
   4  -9   2 28187.2 854.564   1
   4  -9   3 11345.6 516.797  31
  -4  -9  -3 11660.4 515.127   2
  -4  -9  -4 2956.49 259.499  29
   4  -9   4 2808.51 260.264  31
  -4  -9  -4 2554.61 240.673   2
  -4  -9  -5 363.588 92.9994  34
  -4  -9  -5 268.778 90.8780   2
  -4  -9  -5 246.083 85.5460  29
   4  -9   5 284.930 96.7814  31
  -4   9  -5 245.609 79.6778  34
  -4   9  -6 1664.80 210.252  34
   4  -9   6 1763.33 225.432  31
  -4  -9  -6 1911.75 232.483   2
  -4  -9  -6 2128.85 242.128  29
  -4  -9  -6 2082.53 228.011  34
   4  -9   7 2930.21 300.281  31
  -4  -9  -7 2777.67 292.227   2
  -4  -9  -8 7.60123 24.4016  20
  -4   9  -8 25.3270 26.7100  18
  -4   9  -8 18.7657 24.7494  26
  -4  -9  -8 4.36083 22.8752  26
  -4  -9  -9 6132.39 233.462  20
  -4   9  -9 6607.17 243.500  18
  -4   9  -9 5961.20 235.894  26
  -4  -9  -9 6259.74 239.284  26
  -4  -9 -10 643.364 70.2157  20
  -4   9 -10 659.802 75.1683  18
  -4  -9 -10 602.973 76.1912  18
  -4   9 -10 592.055 74.2786  17
  -4  -9 -10 636.423 71.5047  26
  -4  -9 -11 78.1262 32.3165  20
  -4   9 -11 41.0276 32.0885  18
  -4   9 -11 84.2101 37.0799  17
  -4  -9 -11 31.2080 32.6518  18
  -4   9 -11 15.9545 25.0447  13
  -4  -9 -12 5205.92 188.904  20
  -4  -9 -12 5008.31 197.722  18
  -4   9 -12 4977.92 198.821  17
  -4   9 -12 5154.50 192.093  13
  -4   9 -13 829.813 72.6232  21
  -4  -9 -13 788.283 61.3462  20
  -4   9 -13 865.930 69.4084  17
  -4   9 -13 929.359 66.4644  13
  -4  -9 -13 872.147 70.4275  18
  -4  -9 -14 110.218 23.5647  18
   4  10 -13 357.936 44.1675  15
   4 -10 -13 338.020 40.6825  14
   4  10 -13 401.014 43.3976  13
   4  10 -13 307.013 37.7567  24
   4 -10 -12 23.0927 29.0673   5
   4  10 -12 16.5863 26.0023  24
   4  10 -12 9.73094 26.5694  15
   4 -10 -12 27.9163 26.9350  14
   4  10 -12-20.2642 22.2548  13
   4 -10 -11 1394.83 106.341   5
   4 -10 -11 1324.08 95.6417  20
   4  10 -11 1377.77 105.628  15
   4  10 -11 1378.59 102.166  13
   4  10 -11 1395.10 100.410  24
   4 -10 -10 1208.44 102.898   5
   4 -10 -10 1223.97 95.3535  20
   4 -10 -10 1206.18 100.620  19
   4  10 -10 1263.29 104.335  15
   4  10 -10 1323.09 103.289  13
   4  10  -9 60.7841 31.0152  21
   4 -10  -9 37.6311 31.1040  19
   4 -10  -9 48.6245 27.5826   5
   4  10  -9 42.6100 29.2876  15
   4  10  -9 90.2505 33.6036  13
   4  10  -8 1184.64 98.6654  21
   4 -10  -8 1224.09 100.993   5
   4 -10  -8 1268.02 101.497  19
   4  10  -8 1267.10 97.0939  13
   4 -10  -8 1495.27 108.344  24
   4  10  -8 1316.67 102.930  15
   4 -10  -8 1168.41 97.1966  25
  -4 -10   7 4235.51 370.558   3
   4  10  -7 3340.45 166.637  21
   4 -10  -7 3445.32 169.587   5
   4 -10  -7 3624.65 169.548  19
   4  10  -7 3975.23 335.088  33
   4  10  -7 3584.87 168.945  15
   4 -10  -7 3458.23 160.296  24
   4 -10  -7 3370.05 164.359  25
   4  10  -6 4716.41 352.155  33
   4 -10  -6 4611.76 355.905  28
  -4 -10   6 4478.14 370.883   3
  -4 -10   5 144.003 84.7947   3
  -4  10   5 161.399 73.6869  36
   4  10  -5 165.669 69.8839  33
   4 -10  -5 207.773 80.4462  28
  -4  10   4 8689.69 429.169  36
   4 -10  -4 7214.30 418.068  28
   4  10  -4 7519.30 406.007  33
  -4 -10   4 7346.40 435.617   3
   4 -10  -3 970.641 134.395   1
  -4 -10   3 1052.39 156.424   3
  -4  10   3 1004.06 134.861  36
   4 -10  -3 872.951 136.608  32
   4 -10  -3 1021.45 150.021  28
  -4  10   2 13853.8 529.299  36
   4 -10  -2 13587.9 523.295  32
   4 -10  -2 14361.9 551.839   1
  -4 -10   2 14178.6 578.995   3
   4 -10  -1 48225.6 1212.17   1
   4 -10  -1 50010.6 1145.20  32
  -4 -10   1 48315.2 1161.67   2
  -4  10   0 19903.9 646.726  36
   4 -10   0 18972.2 679.939   1
   4 -10   0 19391.4 575.579  32
  -4 -10   0 20504.2 678.691   3
   4 -10   1 1805.65 193.573   1
   4  10   1 1926.42 161.238  36
  -4 -10  -1 1913.08 195.678   2
  -4 -10  -1 1907.88 181.440   3
   4 -10   2 2962.27 251.873  31
  -4 -10  -2 3433.40 266.059   2
  -4 -10  -2 3414.71 239.926   3
   4 -10   2 3490.71 276.165   1
  -4 -10  -3 25360.9 821.748   2
   4 -10   3 21631.1 779.574  31
   4 -10   4 7378.03 436.666  31
  -4 -10  -4 6908.76 415.433  29
   4 -10   5 222.978 75.0710  31
  -4 -10  -5 450.778 107.921  29
  -4 -10  -5 536.440 121.951   2
   4 -10   6 5912.51 422.991  31
  -4 -10  -6 6093.38 424.826  29
  -4 -10  -6 5810.02 414.696   2
  -4  10  -7 2700.47 139.718  18
  -4  10  -7 2556.60 149.125   8
  -4  10  -7 2878.73 151.440  26
  -4 -10  -7 2592.83 144.900   6
  -4 -10  -7 2584.78 144.581  26
  -4  10  -8 617.825 70.5739  18
  -4  10  -8 549.316 70.1658   8
  -4  10  -8 582.522 69.5963  17
  -4 -10  -8 584.025 67.5022  26
  -4  10  -8 476.828 60.8866  26
  -4 -10  -8 644.441 72.6313   6
  -4 -10  -9 67.6916 30.8307  20
  -4  10  -9 103.022 36.4173  18
  -4  10  -9 77.7003 33.8896  17
  -4 -10  -9 43.2584 27.8185  26
  -4  10  -9 30.3504 28.2355  13
  -4  10  -9 99.7905 33.1798  26
  -4 -10 -10 494.512 62.2945  20
  -4  10 -10 522.319 69.2612  17
  -4 -10 -10 602.067 69.5175  26
  -4  10 -10 634.220 70.6853  13
  -4 -10 -11 1858.90 115.120  20
  -4 -10 -11 1831.98 121.110  18
  -4  10 -11 1766.35 121.293  17
  -4  10 -11 1999.47 120.655  13
  -4 -10 -12 331.518 46.0975  20
  -4 -10 -12 372.725 55.6185  18
  -4  10 -12 317.061 49.1641  17
  -4  10 -12 324.919 46.4215  13
  -4  10 -13 36.1257 24.7045  21
  -4 -10 -13 53.5704 21.0657  20
  -4 -10 -13 47.9137 25.4029  18
  -4  10 -13 55.3018 27.0498  17
  -4  10 -13 75.8243 25.4392  13
   4 -11 -13 563.311 48.5269  14
   4  11 -13 621.728 50.2705  24
   4  11 -13 633.774 57.3083  15
   4 -11 -12 579.111 65.0679   5
   4  11 -12 507.303 60.3648  15
   4 -11 -12 503.000 56.0412  14
   4  11 -12 568.773 58.2308  13
   4  11 -12 644.298 62.7095  24
   4 -11 -11 12.7002 23.7590  20
   4 -11 -11 38.0122 34.9639   5
   4  11 -11-7.06368 29.6884  15
   4  11 -11 38.4415 21.7553  13
   4 -11 -10 3133.58 165.250   5
   4 -11 -10 3084.95 154.419  20
   4 -11 -10 3050.70 162.399  19
   4  11 -10 3145.73 164.943  15
   4  11 -10 3507.99 168.917  13
   4  11  -9 180.408 45.9580  21
   4 -11  -9 189.711 41.1508  19
   4 -11  -9 214.745 48.5096   5
   4  11  -9 254.649 46.6016  13
   4  11  -9 179.780 45.2591  15
   4  11  -8 5466.35 226.378  21
   4 -11  -8 5205.43 219.852   5
   4 -11  -8 5217.60 218.213  19
   4  11  -8 5716.34 223.565  15
   4 -11  -8 5005.63 212.748  25
   4  11  -8 5576.85 218.458  13
   4  11  -7 2950.00 159.884  21
   4 -11  -7 3548.16 170.686   5
   4 -11  -7 3074.30 157.778  19
   4 -11  -7 2690.62 147.464  25
   4  11  -7 3197.77 159.738  15
   4 -11  -7 3544.98 165.561  24
  -4 -11   6 1465.66 216.813   3
   4 -11  -6 1529.69 210.211  28
   4  11  -6 1410.43 191.978  33
  -4  11   5 1289.85 174.949  36
   4  11  -5 1239.69 173.557  33
   4 -11  -5 1055.03 171.444  28
  -4 -11   5 1326.73 201.381   3
  -4  11   4 1644.27 192.189  36
   4 -11  -4 1652.60 202.289  28
   4  11  -4 1471.15 182.230  33
  -4 -11   4 1652.68 209.321   3
   4 -11  -3 12004.4 517.312   1
  -4  11   3 11786.6 519.002  36
   4 -11  -3 12029.4 529.283  32
  -4 -11   2 71.1804 49.7153   3
  -4  11   2 48.3353 42.9915  36
   4 -11  -2 98.7987 50.5940  32
   4 -11  -2 12.0692 36.2175   1
  -4  11   1 1467.54 164.676  36
   4 -11  -1 1395.28 170.615   1
   4 -11  -1 1177.46 136.652  32
  -4 -11   1 1402.30 172.632   3
  -4 -11   1 1463.84 161.837   2
  -4 -11   0 1345.50 161.569   2
   4 -11   0 1430.12 174.592   1
  -4  11   0 1242.75 153.420  36
  -4 -11   0 1201.88 158.024   3
   4 -11   1 3901.52 295.205   1
  -4 -11  -1 4702.99 309.610   2
  -4 -11  -1 4709.45 301.261   3
   4 -11   2 1341.44 173.455  31
  -4 -11  -2 1294.93 170.528   2
  -4 -11  -2 1428.62 161.750   3
   4 -11   2 973.210 154.788   1
  -4 -11  -3 153.953 81.7810   2
   4 -11   3 36.0379 43.5279  31
  -4 -11  -4 3254.15 285.224  29
  -4 -11  -4 2830.90 270.852   2
   4 -11   4 2467.24 255.750  31
  -4 -11  -5 1082.34 173.020  29
   4 -11   5 1114.07 184.176  31
  -4 -11  -5 1125.34 178.841   2
  -4 -11  -6 718.998 139.414  29
  -4 -11  -6 583.762 137.816   2
   4 -11   6 904.481 174.811  31
  -4  11  -7 1808.37 127.571   8
  -4  11  -7 2176.18 131.812  17
  -4  11  -7 1963.71 125.737  26
  -4 -11  -7 1951.81 125.955   6
  -4  11  -8 2282.16 144.240   8
  -4  11  -8 2287.84 141.260  17
  -4 -11  -8 2503.55 144.850  26
  -4  11  -8 2329.39 140.718  26
  -4  11  -8 2689.35 143.250  13
  -4 -11  -8 2418.03 145.081   6
  -4 -11  -9 44.9629 24.2305  20
  -4  11  -9 42.1488 32.1638  17
  -4  11  -9 70.5812 32.1897  26
  -4 -11  -9 66.9864 32.5268  26
  -4  11  -9 30.6100 25.9854  13
  -4 -11 -10 524.600 64.6897  20
  -4  11 -10 574.157 67.3002  13
  -4  11 -10 389.787 62.7007  17
  -4 -11 -10 525.816 64.2022  26
  -4 -11 -11 211.482 41.3347  20
  -4 -11 -11 130.281 39.5147  18
  -4  11 -11 221.029 49.7955  17
  -4  11 -11 220.673 43.6149  13
  -4 -11 -12 2.05891 20.1420  20
  -4  11 -12-7.97077 28.5717  17
  -4 -11 -12-14.4452 30.2005  18
  -4  11 -12-50.0677 26.9918  13
  -4  11 -13 395.246 47.0723  21
  -4 -11 -13 385.753 38.9779  20
  -4 -11 -13 379.610 44.1073  18
   4 -12 -13 3472.17 122.171  14
   4  12 -13 3545.01 121.845  24
   4 -12 -12 196.716 39.1471   5
   4  12 -12 242.298 40.0780  13
   4  12 -12 202.463 40.4018  15
   4 -12 -12 200.327 36.2391  14
   4  12 -12 284.368 43.8098  24
   4 -12 -11 202.426 38.8478  20
   4 -12 -11 227.381 46.6661   5
   4  12 -11 163.853 40.8933  15
   4  12 -11 187.946 41.0418  13
   4  12 -10 279.998 51.6002  21
   4 -12 -10 243.546 43.5698  20
   4 -12 -10 267.234 54.5853  19
   4 -12 -10 221.800 47.7036   5
   4  12 -10 310.104 56.4255  15
   4  12 -10 305.714 52.1289  13
   4  12  -9 1802.03 126.364  21
   4 -12  -9 1957.88 130.523   5
   4 -12  -9 2010.95 129.532  19
   4  12  -9 1794.60 123.881  15
   4  12  -9 1962.44 126.576  13
   4  12  -8 82.7223 35.5709  15
   4  12  -8 21.9364 25.1822  21
   4 -12  -8 20.7502 26.0754  19
   4 -12  -8 115.850 38.6550   5
   4  12  -8 88.2325 30.8608  13
   4  12  -7 1753.55 123.025  21
   4 -12  -7 1737.46 119.806  25
   4 -12  -7 1743.47 120.727   5
   4 -12  -7 1650.07 114.761  19
   4  12  -7 1603.41 113.136  15
   4  12  -7 1785.89 114.907  13
   4  12  -6 281.806 46.1837  21
  -4 -12   6 282.100 108.670   3
   4  12  -6 281.126 99.2280  33
   4  12  -6 336.788 51.2077  15
   4 -12  -6 319.756 51.6871  25
   4  12  -5 3625.08 303.997  33
   4 -12  -5 3798.20 325.803  28
  -4  12   5 3562.10 302.756  36
  -4 -12   5 4627.12 377.666   3
  -4 -12   4 260.207 93.2953   3
  -4  12   4 352.841 94.3194  36
   4  12  -4 189.955 73.1224  33
   4 -12  -4 297.346 94.3834  32
   4 -12  -4 204.327 84.6708  28
  -4 -12   3 299.776 97.4022   3
  -4  12   3 277.430 78.2063  36
   4 -12  -3 413.494 96.1804  32
   4 -12  -3 365.355 90.7754   1
  -4 -12   2 413.439 106.442   3
  -4  12   2 307.550 79.3521  36
   4 -12  -2 443.980 93.1335  32
   4 -12  -2 441.441 102.818   1
  -4 -12   1 114.374 60.0537   3
   4 -12  -1 49.3810 46.6930   1
  -4  12   1 53.6634 42.6477  36
   4 -12  -1 102.834 51.8144  32
  -4 -12   1 57.4525 39.8572   2
   4 -12   0 3821.42 296.575   1
  -4 -12   0 4447.36 306.636   2
  -4 -12   0 4057.60 299.925   3
   4 -12   1 1324.83 180.642   1
  -4 -12  -1 1171.92 162.697   2
  -4 -12  -1 1012.86 145.684   3
   4 -12   2 1791.87 207.226  31
   4 -12   2 1765.57 210.910   1
  -4 -12  -2 2295.37 212.234   3
   4 -12   3 2124.37 237.013  31
  -4 -12  -3 2234.70 240.164   2
   4 -12   4 6557.40 434.106  31
  -4 -12  -4 6058.16 413.583   2
   4 -12   5 276.521 100.035  31
  -4 -12  -5 362.169 109.402  29
  -4 -12  -5 502.567 150.820   2
  -4  12  -6 812.128 78.2322  26
  -4  12  -6 678.681 77.8529   8
  -4  12  -6 779.295 76.4090  17
  -4 -12  -6 886.427 167.797  29
  -4 -12  -6 865.139 81.1406   6
  -4  12  -7 373.096 57.2494  17
  -4  12  -7 294.556 55.0569   8
  -4  12  -7 252.408 46.9082  26
  -4 -12  -7 351.425 57.3237   6
  -4  12  -8 417.676 62.5728   8
  -4  12  -8 348.731 57.5250  17
  -4  12  -8 319.298 53.2298  26
  -4 -12  -8 330.244 54.1818  26
  -4  12  -8 413.036 57.7734  13
  -4 -12  -8 453.061 63.5370   6
  -4 -12  -9 774.530 77.6773  20
  -4  12  -9 701.317 79.1851   8
  -4  12  -9 720.919 79.4539  17
  -4  12  -9 727.326 78.1628  26
  -4 -12  -9 676.302 73.8471  26
  -4  12  -9 835.088 81.2542  13
  -4 -12 -10 1803.83 116.065  20
  -4  12 -10 1423.86 112.027  17
  -4 -12 -10 1650.82 111.665  26
  -4  12 -10 1625.54 111.549  13
  -4 -12 -11 315.683 46.0292  20
  -4 -12 -11 264.271 49.0333  18
  -4  12 -11 371.036 57.6351  17
  -4  12 -11 353.484 50.6472  13
  -4  12 -12 102.205 37.5195  21
  -4 -12 -12 22.8742 23.7527  20
  -4 -12 -12 44.4177 23.9098  18
  -4  12 -12 48.4779 24.6005  17
  -4  12 -12 38.7605 19.5722  13
  -4  12 -13-30.8131 23.8108  21
  -4 -12 -13-2.69023 17.3761  18
   4 -13 -13 1406.32 70.0529  14
   4 -13 -12 94.4813 31.8861   5
   4 -13 -12 39.8907 26.4619  14
   4  13 -12 53.3988 23.2054  13
   4 -13 -11 3579.88 164.532   5
   4  13 -11 3550.23 161.146  15
   4  13 -11 3843.33 164.355  13
   4  13 -10 846.785 82.5306  21
   4 -13 -10 804.268 82.1508   5
   4 -13 -10 735.512 71.9823  20
   4 -13 -10 821.665 81.9429  19
   4  13 -10 869.912 83.3544  15
   4  13 -10 753.896 76.3677  13
   4  13  -9 22816.9 558.200  21
   4 -13  -9 22715.7 553.272   5
   4 -13  -9 22343.9 547.697  19
   4  13  -9 23448.8 552.618  15
   4  13  -9 23639.2 552.869  13
   4  13  -8 51.5596 32.7689  21
   4 -13  -8 13.3428 25.2140  19
   4 -13  -8-35.0726 33.2614   5
   4  13  -8-21.4356 28.1601  13
   4  13  -8 31.5936 29.5477  15
   4  13  -7 3690.96 182.607  21
   4 -13  -7 3822.99 182.245   5
   4 -13  -7 3480.47 174.758  19
   4 -13  -7 3945.18 188.681  25
   4  13  -7 3931.20 179.908  13
   4  13  -7 3820.00 178.598  15
   4  13  -6 316.312 52.0870  21
   4 -13  -6 463.138 69.7593  25
   4  13  -6 367.760 53.7551  15
  -4  13   5 6307.17 421.644  36
   4  13  -5 6300.33 413.537  33
   4 -13  -5 5782.85 415.826  28
  -4 -13   5 7337.70 498.481   3
  -4  13   4 8932.15 488.209  36
   4 -13  -4 7775.16 465.217  32
   4 -13  -4 8130.93 484.000  28
   4  13  -4 7608.47 452.494  33
  -4 -13   4 8659.52 523.356   3
   4 -13  -3 6820.45 395.126   1
  -4  13   3 7561.79 434.322  36
   4 -13  -3 6722.42 408.933  32
  -4 -13   3 6348.96 434.617   3
   4 -13  -2 1721.24 190.293  32
   4 -13  -2 2131.90 218.779   1
  -4  13   2 2029.72 215.168  36
  -4 -13   2 1809.00 220.561   3
  -4 -13   1 621.454 124.798   3
   4 -13  -1 659.617 120.840   1
  -4  13   1 480.226 105.106  36
   4 -13  -1 497.484 94.9431  32
  -4 -13   1 504.560 101.328   2
   4 -13   0 2098.27 225.997   1
  -4 -13   0 2239.57 225.401   2
  -4 -13   0 2066.69 221.254   3
  -4 -13  -1 591.190 112.430   3
  -4 -13  -1 682.327 129.630   2
   4 -13   1 649.220 128.595   1
   4 -13   2 6722.24 414.640  31
  -4 -13  -2 5855.13 392.924   2
   4 -13   2 6156.73 403.713   1
   4 -13   3 1521.51 204.801  31
  -4 -13  -3 1519.43 202.413   2
  -4 -13  -3 1957.20 222.072  29
  -4 -13  -4 5074.64 370.675  29
   4 -13   4 3794.95 336.561  31
  -4 -13  -4 4504.39 362.553   2
  -4 -13  -5 52.1521 53.9473  29
   4 -13   5 46.3094 61.7255  31
  -4 -13  -5 62.5004 72.3981   2
  -4  13  -6 1846.13 129.246   8
  -4  13  -6 2031.07 125.943  17
  -4  13  -6 1894.14 124.091  26
  -4 -13  -6 1942.17 126.557   6
  -4  13  -7 10615.8 338.670   8
  -4  13  -7 10017.0 321.451  17
  -4  13  -7 9958.53 321.534  26
  -4 -13  -7 9570.22 318.437   6
  -4  13  -8 892.087 91.4506   8
  -4  13  -8 878.211 88.4042  17
  -4 -13  -8 797.227 82.5578  26
  -4  13  -8 867.217 87.2601  26
  -4  13  -8 1032.71 90.4228  13
  -4 -13  -8 840.067 86.4100   6
  -4 -13  -9 84.1606 34.0809  20
  -4  13  -9 86.6789 32.7878  13
  -4  13  -9 34.7173 31.6441   8
  -4  13  -9 83.8535 35.5480  17
  -4 -13  -9 122.314 37.5953  26
  -4  13  -9 45.9497 29.4174  26
  -4 -13 -10 104.060 38.0709  20
  -4  13 -10 131.144 41.9874  17
  -4 -13 -10 120.861 34.3562  26
  -4  13 -10 92.3268 34.4346  13
  -4 -13 -11 90.7187 28.1534  20
  -4 -13 -11 60.8906 29.2985  18
  -4  13 -11 117.683 36.1906  17
  -4  13 -11 94.0178 32.6517  13
  -4  13 -12-48.2325 32.6152  21
  -4 -13 -12-13.5866 23.2218  20
  -4 -13 -12-38.2357 31.7969  18
  -4  13 -12-5.16781 26.4910  17
  -4  13 -12-45.3601 28.3534  13
  -4  13 -13 10.4077 19.4611  21
  -4 -13 -13-9.83797 18.1135  18
   4 -14 -12 2997.58 121.026  14
   4  14 -12 2953.34 123.279  13
   4  14 -12 3207.15 128.463  24
   4  14 -11 1793.24 108.346  21
   4  14 -11 1899.77 109.516  13
   4 -14 -11 1658.41 105.870   5
   4  14 -10-6.94263 26.6395  15
   4 -14 -10-12.1107 21.3798  20
   4 -14 -10 8.61794 29.9428  19
   4 -14 -10-30.7853 35.2122   5
   4  14 -10 5.52316 23.5741  13
   4  14  -9 5653.11 231.558  21
   4 -14  -9 5400.19 222.945   5
   4 -14  -9 5882.27 220.674  20
   4 -14  -9 5631.52 226.828  19
   4  14  -9 5614.22 224.064  13
   4  14  -9 5875.15 226.890  15
   4  14  -8 2566.73 156.238  21
   4 -14  -8 2875.41 157.723   5
   4 -14  -8 2813.04 156.808  19
   4  14  -8 3027.94 157.527  15
   4  14  -8 2964.87 156.689  13
   4  14  -7 688.816 78.3210  21
   4 -14  -7 605.795 72.5625   5
   4 -14  -7 559.884 71.4058  19
   4  14  -7 702.019 75.4157  13
   4  14  -7 782.089 78.8797  15
   4  14  -6 202.543 45.7721  21
   4  14  -6 242.302 44.8238  15
   4  14  -6 181.327 37.1178  13
   4  14  -5 1231.38 99.3815  21
  -4  14   5 1208.63 184.532  36
   4  14  -5 1315.75 195.983  33
   4 -14  -5 1336.76 107.500  25
  -4  14   4 14561.2 657.072  36
   4  14  -4 12490.6 603.212  33
   4 -14  -4 11219.1 585.832  32
   4 -14  -4 12175.0 615.644  28
  -4 -14   4 14226.5 703.730   3
  -4  14   3 8240.05 469.997  36
   4 -14  -3 6961.30 428.169  32
  -4 -14   3 6759.57 462.401   3
  -4  14   2 4158.55 326.291  36
   4 -14  -2 4842.56 335.192  32
  -4 -14   2 4695.62 369.560   3
  -4 -14   1 1369.50 177.543   2
  -4  14   1 1881.99 213.606  36
   4 -14  -1 1471.47 189.307   1
  -4 -14   1 1564.47 206.991   3
  -4 -14   0 16.4033 54.4023   3
  -4  14   0-0.39313 58.8680  36
  -4 -14   0 16.5612 49.0757   2
   4 -14   0 22.5794 37.8223   1
   4 -14   1 3425.32 299.092   1
  -4 -14  -1 3090.24 282.857   2
  -4 -14  -1 3108.65 276.162   3
  -4 -14  -2-1.55666 43.5101   2
   4 -14   2 79.3957 68.8359  31
  -4 -14  -3 1567.43 198.633  29
  -4 -14  -3 1274.32 191.605   2
   4 -14   3 1335.06 192.105  31
   4 -14   4 1311.62 200.930  31
  -4 -14  -4 1609.20 216.023  29
  -4 -14  -4 1566.17 218.001   2
  -4  14  -5 71.1981 30.7941  17
  -4 -14  -5 80.3675 60.6299  29
  -4  14  -5 71.5579 37.8050   8
  -4  14  -5 44.1806 28.6706  26
  -4 -14  -5 83.6125 32.7156   6
  -4  14  -6 1311.27 109.810   8
  -4  14  -6 1279.83 101.765  17
  -4  14  -6 1224.31 100.264  26
  -4 -14  -6 1334.65 105.796   6
  -4  14  -7 4165.78 193.435  17
  -4  14  -7 4092.06 200.884   8
  -4  14  -7 4551.07 192.933  13
  -4 -14  -7 3910.46 190.281   6
  -4  14  -7 3640.84 183.158  26
  -4  14  -8 2318.01 143.620  17
  -4  14  -8 2077.01 134.659  26
  -4  14  -8 2158.99 143.306   8
  -4  14  -8 2410.71 138.686  13
  -4 -14  -8 1947.50 132.794   6
  -4 -14  -8 2151.44 133.556  26
  -4 -14  -9 379.657 53.9403  20
  -4  14  -9 335.559 58.6641  17
  -4  14  -9 380.188 56.0534  13
  -4  14  -9 323.183 54.7447   8
  -4 -14  -9 288.406 49.6624  26
  -4 -14 -10 16.6131 26.5001  20
  -4  14 -10 32.5326 32.6893  17
  -4 -14 -10-2.01446 23.6057  26
  -4  14 -10 11.1386 24.5091  13
  -4  14 -11-2.39738 29.9286  21
  -4 -14 -11 9.66260 22.7749  20
  -4 -14 -11-11.7436 33.1289  18
  -4  14 -11 28.7664 25.3204  17
  -4  14 -11 41.6620 23.2940  13
  -4  14 -12 449.252 53.4620  21
  -4 -14 -12 440.831 44.1002  20
  -4 -14 -12 420.176 48.4350  18
  -4  14 -13 254.053 34.0701  21
  -4 -14 -13 240.583 29.9366  18
   4 -15 -12 400.761 41.2289  14
   4  15 -12 372.729 42.5596  24
   4  15 -11 148.472 35.3266  21
   4 -15 -11 170.745 36.7580   5
   4  15 -11 116.223 30.6769  13
   4  15 -10 3236.70 160.099  21
   4 -15 -10 3034.56 152.989   5
   4 -15 -10 3211.52 156.366  19
   4  15 -10 3386.40 157.753  13
   4  15  -9 912.740 89.0375  21
   4 -15  -9 901.133 85.6203   5
   4 -15  -9 1046.06 88.0997  20
   4 -15  -9 946.864 90.4137  19
   4  15  -9 947.841 87.6831  13
   4  15  -9 952.055 86.5717  15
   4  15  -8 1369.08 103.146  15
   4  15  -8 1104.52 100.870  21
   4 -15  -8 1372.85 106.892   5
   4 -15  -8 1190.56 100.396  19
   4  15  -8 1191.22 97.6645  13
   4  15  -7 9.43139 32.5847  21
   4 -15  -7 26.2459 25.5803  19
   4 -15  -7 43.4118 27.1345   5
   4  15  -7-7.54103 26.8438  15
   4  15  -7 31.0239 23.0276  13
   4  15  -6 14115.4 408.952  21
   4 -15  -6 14817.9 404.715   5
   4  15  -6 14642.8 397.332  13
   4  15  -5 5494.91 226.947  21
   4  15  -5 5748.67 218.751  13
   4 -15  -5 5834.52 226.386  23
   4  15  -4 107.178 30.3273  21
  -4 -15   4 72.0405 61.4572   3
  -4  15   4 80.7245 56.2702  36
   4  15  -4 152.847 77.2807  33
   4 -15  -4 106.978 70.5192  32
  -4 -15   3 9572.17 568.587   3
  -4  15   3 8058.72 487.614  36
   4 -15  -3 8443.21 486.393  32
  -4 -15   2 198.906 80.3054   3
  -4  15   2 292.015 103.841  36
   4 -15  -2 349.508 93.6184  32
   4 -15  -2 234.687 78.5900   1
  -4 -15   1 5155.55 393.742   3
  -4 -15   1 6176.33 391.594   2
  -4  15   1 5654.05 387.791  36
   4 -15  -1 5973.22 399.900   1
   4 -15   0 116.764 54.0287   1
  -4 -15   0 43.8560 46.7923   3
  -4  15   0 111.655 72.4667  36
  -4 -15   0 77.4919 62.4297   2
  -4 -15  -1 92.7918 36.0893   3
   4 -15   1 169.430 82.0421   1
  -4 -15  -1 124.003 64.3094   2
   4 -15   2 308.203 100.425  31
   4 -15   2 178.987 73.0249   1
  -4 -15  -2 180.664 92.6815   2
   4 -15   3 7150.28 474.055  31
  -4 -15  -3 8671.67 493.092  29
  -4 -15  -3 7533.76 489.965   2
   4 -15   4 343.584 109.212  31
  -4  15  -4 380.966 61.2841   8
  -4 -15  -4 418.347 108.371  29
  -4 -15  -4 449.070 60.2515   6
  -4 -15  -5 438.298 58.1743  10
  -4  15  -5 426.844 61.0028  17
  -4  15  -5 389.111 60.6225   8
  -4  15  -5 351.314 55.0898  26
  -4 -15  -5 449.986 62.8377   6
  -4  15  -6 107.912 32.2984  17
  -4  15  -6 70.2402 30.5720  26
  -4  15  -6 91.5235 38.0941   8
  -4 -15  -6 123.322 36.4984   6
  -4  15  -7 67.6587 31.3065  17
  -4  15  -7 66.8832 35.9964   8
  -4  15  -7 56.5701 26.9662  13
  -4 -15  -7 35.7301 25.8662   6
  -4  15  -8 864.663 90.6606   8
  -4  15  -8 802.693 86.1478  17
  -4 -15  -8 779.966 81.6583  26
  -4  15  -8 964.888 87.5971  13
  -4 -15  -8 823.605 85.2970   6
  -4 -15  -9 431.321 59.1905  20
  -4 -15  -9 438.489 59.9003  26
  -4  15  -9 416.361 63.9305  17
  -4  15  -9 416.278 62.8439   8
  -4  15  -9 502.782 62.9015  13
  -4  15 -10 225.506 50.4262  21
  -4 -15 -10 257.749 43.9449  20
  -4  15 -10 263.157 51.0388  17
  -4  15 -10 200.098 42.9421   8
  -4 -15 -10 235.693 41.3969  26
  -4  15 -10 302.355 49.1517  13
  -4  15 -11 26.6858 27.0656  21
  -4 -15 -11-30.8693 25.1861  20
  -4 -15 -11-1.08208 24.8837  18
  -4  15 -11 11.6039 22.9189  13
  -4  15 -12 314.464 43.4857  21
  -4 -15 -12 284.293 34.8401  20
  -4 -15 -12 306.930 41.9632  18
   4 -16 -12 38.1682 16.8935  14
   4  16 -12 122.672 27.2207  24
   4  16 -11 330.162 46.0765  21
   4 -16 -11 300.198 43.1590   5
   4  16 -11 376.460 46.5689  16
   4  16 -10 51.4079 27.7423  21
   4 -16 -10 17.2625 23.9947   5
   4 -16 -10 107.460 37.6911  19
   4  16 -10 39.3484 21.8518  13
   4  16  -9 1673.49 118.929  21
   4 -16  -9 1654.05 113.824   5
   4 -16  -9 1725.00 108.799  20
   4 -16  -9 1694.12 116.583  19
   4  16  -9 1754.04 115.114  13
   4  16  -8 1283.49 107.898  21
   4 -16  -8 1378.95 105.884   5
   4 -16  -8 1368.10 106.192  19
   4  16  -8 1357.70 104.755  13
   4  16  -7 330.498 58.1797  21
   4 -16  -7 268.125 52.3116  19
   4 -16  -7 216.052 45.6912   5
   4  16  -7 305.402 49.6787  13
   4  16  -6 629.740 75.9352  21
   4 -16  -6 661.419 75.7120   5
   4  16  -6 724.101 76.8240  13
   4  16  -5 14540.0 412.597  21
  -4 -16   5 15049.6 409.992   7
   4 -16  -5 14284.1 399.906  23
   4  16  -4 5856.12 231.838  21
   4 -16  -4 5812.19 225.971  27
  -4 -16   4 5820.19 230.490   7
   4 -16  -4 5648.87 225.893  23
   4  16  -3 1083.33 92.2059  21
  -4  16   3 886.863 158.844  36
   4 -16  -3 994.079 164.324  32
   4 -16  -3 978.019 88.8370  27
   4 -16  -3 1036.60 91.2184  23
  -4 -16   2 24.2177 62.7778   3
  -4  16   2 49.9473 53.2013  36
  -4 -16   1 1536.73 220.501   3
   4 -16  -1 1223.82 182.070   1
  -4  16   1 1404.00 198.139  36
  -4 -16   1 1235.53 179.861   2
  -4 -16   0 6249.42 433.165   3
  -4 -16   0 5638.07 396.908   2
   4 -16   0 5144.28 386.127   1
  -4  16   0 5198.61 388.669  36
   4 -16   1 2104.81 248.219   1
  -4 -16  -1 2066.71 243.510   3
  -4 -16  -1 1835.32 226.753   2
  -4 -16  -2 727.956 139.444  29
   4 -16   2 560.018 131.728  31
   4 -16   2 546.545 130.939   1
  -4 -16  -2 658.338 139.700   2
  -4  16  -3 9482.03 307.299   8
  -4 -16  -3 8715.15 507.834  29
   4 -16   3 7874.99 510.458  31
  -4 -16  -3 8991.13 293.199   7
  -4 -16  -3 9517.66 563.125   2
  -4 -16  -4 2675.58 144.810  10
  -4  16  -4 2662.01 155.705   8
  -4  16  -4 2716.18 147.311  17
   4 -16   4 2872.46 155.391  27
  -4 -16  -4 3078.67 160.959   6
  -4 -16  -5 87.1485 36.7212  10
  -4  16  -5 84.8629 34.1540  17
  -4  16  -5 92.3590 40.2245   8
  -4 -16  -5 53.0129 31.7403   6
  -4  16  -6 1977.48 130.314  17
  -4  16  -6 1720.03 127.807   8
  -4 -16  -6 1877.91 128.339   6
  -4  16  -7 4899.32 222.116   8
  -4  16  -7 4961.74 216.201  17
  -4  16  -7 5253.37 213.876  13
  -4 -16  -7 4737.89 213.276   6
  -4  16  -8 2086.73 139.955   8
  -4  16  -8 1909.48 130.571  17
  -4  16  -8 2425.05 137.983  13
  -4 -16  -8 1914.34 129.213   6
  -4 -16  -8 1930.10 127.031  26
  -4 -16  -9 318.087 51.0625  26
  -4  16  -9 319.582 54.7318  21
  -4 -16  -9 333.222 50.0941  20
  -4  16  -9 305.285 56.4914  17
  -4  16  -9 328.048 56.4605   8
  -4  16  -9 343.368 51.2733  13
  -4  16 -10 601.296 69.0632  21
  -4 -16 -10 678.485 64.9495  20
  -4  16 -10 609.263 66.9311   8
  -4 -16 -10 658.709 65.1830  26
  -4  16 -10 670.733 67.1187  13
  -4  16 -11 230.322 44.4351  21
  -4 -16 -11 214.098 35.2495  20
  -4 -16 -11 218.965 40.6588  18
  -4 -16 -12 317.220 39.5880  18
  -4  16 -12 261.178 38.3773  21
   4 -17 -12 1651.07 73.3434  14
   4 -17 -11 490.866 51.3544   5
   4  17 -11 483.539 49.7861  16
   4  17 -11 562.855 54.7641  21
   4  17 -10 268.562 45.6862  21
   4 -17 -10 214.924 41.7948   5
   4 -17 -10 286.522 49.0759  19
   4  17  -9 3448.62 171.964  21
   4 -17  -9 3544.90 163.939   5
   4 -17  -9 3436.28 164.476  19
   4  17  -8 48.8611 32.1489  21
   4 -17  -8 35.5409 29.4772  19
   4 -17  -8 51.2912 33.3892   5
   4  17  -7 3637.78 187.913  21
   4 -17  -7 3992.58 184.568   5
   4 -17  -7 3925.25 184.519  19
   4  17  -6 627.157 76.8050  21
   4 -17  -6 614.121 71.6061   5
   4  17  -5 334.225 56.9231  21
   4 -17  -5 340.826 53.9168  27
  -4 -17   5 249.667 48.5207   7
   4 -17  -5 258.743 51.0821  23
   4  17  -4 6009.08 240.342  21
   4 -17  -4 5676.15 230.194  27
   4 -17  -4 5990.73 237.254  23
   4  17  -3 91.0955 30.4552  21
   4 -17  -3 65.3246 30.2466  10
   4 -17  -3 84.8704 30.7100  27
  -4 -17   3 10.7900 28.5343   7
   4  17  -2 1788.72 119.657  21
   4 -17  -2 1925.05 125.779  27
  -4 -17   2 1874.68 126.077   7
   4 -17  -2 1876.43 126.034  23
   4  17  -1 108.671 33.6354  21
  -4 -17   1 45.4390 53.9457   3
  -4  17   1 140.402 71.2805  36
   4 -17  -1-27.8515 37.4804   1
   4 -17  -1 100.269 31.2731  27
  -4 -17   1 119.831 37.2946   7
   4 -17  -1 82.5970 23.2518  23
  -4 -17   0 8864.24 546.174   3
  -4 -17   0 8789.67 515.107   2
   4 -17   0 8364.72 511.801   1
   4 -17   0 8970.34 296.866  27
  -4 -17   0 8789.67 291.493   7
   4 -17   0 8547.48 290.562  23
  -4 -17  -1 410.427 57.9686   7
  -4 -17  -1 306.450 99.8499   2
   4 -17   1 422.430 60.8043  23
   4 -17   1 476.440 121.945   1
   4 -17   1 269.640 50.3216  27
  -4  17  -2 17041.4 457.196   8
   4 -17   2 18541.7 474.640  27
  -4 -17  -2 18234.1 465.888   7
  -4 -17  -3 234.190 46.5234   6
   4 -17   3 194.751 43.5050  27
  -4  17  -3 215.592 47.9721   8
  -4 -17  -3 229.103 45.7099   7
  -4 -17  -4 232.761 45.4773  10
   4 -17   4 218.236 45.0692  27
  -4  17  -4 172.325 43.9806   8
  -4 -17  -4 187.439 45.2642   6
  -4 -17  -5 920.182 87.4951  10
  -4  17  -5 1005.81 96.0152   8
  -4 -17  -5 1038.81 95.8433   6
  -4  17  -6 2471.24 155.282   8
  -4  17  -6 2529.13 149.736  17
  -4 -17  -6 2379.83 148.200   6
  -4  17  -7 1194.04 101.060  21
  -4  17  -7 1236.37 108.326   8
  -4  17  -7 1051.84 98.0517  17
  -4 -17  -7 1226.70 104.448   6
  -4  17  -8 859.631 87.4382  21
  -4  17  -8 785.813 85.9142   8
  -4  17  -8 855.903 86.8897  17
  -4 -17  -8 819.371 82.9237  26
  -4 -17  -8 758.804 80.6287   6
  -4  17  -9 259.481 51.0664  21
  -4 -17  -9 228.548 46.3944  20
  -4 -17  -9 200.749 40.5935  26
  -4  17  -9 165.572 43.9063   8
  -4  17 -10 1839.26 116.588  21
  -4 -17 -10 1902.28 106.527  20
  -4  17 -10 1939.62 114.407   8
  -4 -17 -10 2073.23 110.914  26
  -4  17 -11 4168.78 162.693  21
  -4 -17 -11 4193.50 146.538  20
  -4 -17 -11 4068.08 156.511  18
  -4  17 -12 1056.86 66.0657  21
  -4 -17 -12 1104.37 64.2630  18
   4 -18 -11 989.873 66.6278   5
   4  18 -11 943.889 66.9030  21
   4  18 -11 970.001 65.7124  16
   4  18 -10 532.136 59.8670  21
   4 -18 -10 446.123 52.4581   5
   4 -18 -10 468.896 57.5259  19
   4  18  -9 908.900 85.6204  21
   4 -18  -9 910.626 78.8006   5
   4 -18  -9 910.118 82.7171  19
   4  18  -8 7379.88 268.578  21
   4 -18  -8 7644.31 256.912   5
   4 -18  -8 7269.13 256.240  19
   4  18  -7 5355.27 229.842  21
   4 -18  -7 5805.92 222.645   5
   4 -18  -7 5241.73 218.858  19
   4  18  -6 79.8121 36.1467  21
   4 -18  -6 158.701 39.5312   5
   4  18  -5 3292.73 176.336  21
   4 -18  -5 3513.97 170.368  10
   4 -18  -5 3353.68 167.173   5
   4 -18  -5 3350.73 170.559  27
  -4 -18   5 3737.93 183.856   7
   4  18  -4 8263.55 293.017  21
   4 -18  -4 8659.90 286.884  10
   4 -18  -4 8729.86 294.004  27
   4 -18  -4 8228.48 288.582  23
  -4 -18   4 8755.22 302.428   7
   4  18  -3 273.841 50.8009  21
   4 -18  -3 255.498 45.6914  10
   4 -18  -3 235.157 50.6572  27
  -4 -18   3 237.338 48.7703   7
   4 -18  -3 317.488 53.5760  23
   4  18  -2 141.316 35.5275  21
   4 -18  -2 133.279 31.1814  27
  -4 -18   2 131.113 38.1953   7
   4 -18  -2 144.736 38.4357  23
   4  18  -1 283.304 46.2592  16
  -4 -18   1 254.060 47.5299   7
   4 -18  -1 216.461 46.0354  23
  -4 -18   0 2934.55 162.106   7
   4  18   0 3129.22 155.554  16
   4 -18   0 3059.63 163.351  23
   4 -18   0 2851.65 160.222  27
  -4  18  -1 34.3450 19.9181   8
  -4 -18  -1 60.3756 24.8396   7
  -4 -18  -2 17918.1 477.237   7
   4 -18   2 18078.6 484.213  27
  -4 -18  -3 411.576 61.7445   6
  -4 -18  -3 445.520 59.1678  10
   4 -18   3 306.283 52.1700  27
  -4  18  -3 419.271 63.3913   8
  -4 -18  -3 406.418 62.6293   7
  -4 -18  -4 68.0361 28.0761  10
   4 -18   4 117.183 36.0547  27
  -4  18  -4 88.6496 36.2302   8
  -4 -18  -4 130.776 39.8913   6
  -4  18  -5 7948.22 297.295   8
  -4 -18  -5 8016.06 289.860   6
  -4  18  -6 13869.0 420.080   8
  -4 -18  -6 14433.4 414.777   6
  -4  18  -7 5104.00 210.935  21
  -4  18  -7 4382.64 210.281   8
  -4 -18  -7 4599.10 208.365   6
  -4  18  -8 1019.55 91.9853  21
  -4  18  -8 1098.75 99.8544   8
  -4 -18  -8 969.695 87.5652  26
  -4 -18  -8 1083.07 94.9841   6
  -4  18  -9 398.511 58.0508  21
  -4 -18  -9 444.621 54.8913  20
  -4 -18  -9 439.397 55.9392  26
  -4  18  -9 434.299 60.6723   8
  -4  18 -10 48.9944 29.5541  21
  -4 -18 -10 10.8385 20.8582  20
  -4 -18 -10-13.3329 18.4398  26
  -4  18 -10 27.1462 22.2385   8
  -4  18 -11 163.847 33.0700  21
  -4 -18 -11 175.674 28.5914  20
  -4 -18 -11 119.392 28.8295  18
   4  19 -11 6210.43 179.045  24
   4  19 -10 12.1402 22.8571  21
   4 -19 -10 36.1487 23.6803   5
   4 -19 -10 32.9779 27.4315  19
   4  19 -10 27.6111 23.2315  16
   4 -19  -9 437.366 52.9870   5
   4  19  -9 527.141 63.7864  21
   4 -19  -9 526.227 62.5459  19
   4  19  -8 50.3006 35.2692  21
   4 -19  -8 17.2093 29.4392  19
   4 -19  -8 1.41219 25.9895   5
   4  19  -7 91.9421 35.7051  21
   4 -19  -7 72.1374 28.4355  19
   4 -19  -7 97.1083 33.9296   5
   4 -19  -6-6.18706 21.9314  10
   4 -19  -6 13.8775 22.4215   5
  -4 -19   6-8.83355 22.7146   7
   4  19  -5-27.5151 35.2265  21
   4 -19  -5 9.65752 21.3378  10
   4 -19  -5 9.56886 21.2873   5
   4 -19  -5-33.1916 29.6563  27
  -4 -19   5-34.6520 35.7650   7
   4  19  -4 1431.51 113.353  21
   4 -19  -4 1389.65 109.257  27
   4 -19  -4 1553.89 111.831  10
  -4 -19   4 1517.46 117.445   7
   4  19  -3 197.459 43.8611  21
   4 -19  -3 218.373 47.1835  10
   4 -19  -3 191.126 40.4494  27
  -4 -19   3 252.848 48.5398   7
   4  19  -2 217.945 46.4256  21
  -4 -19   2 231.761 49.7847   7
   4 -19  -2 192.364 44.8285  27
   4  19  -1 5512.80 220.470  16
  -4 -19   1 5737.54 233.557   7
   4 -19   0 806.823 87.0180  27
  -4 -19   0 799.015 83.9104   7
   4 -19   1 5944.88 240.890  27
  -4  19  -1 5648.14 225.516   8
  -4 -19  -1 5185.17 223.705   7
  -4  19  -2 3468.61 175.958   8
   4 -19   2 3234.91 172.546  27
  -4 -19  -3 8659.55 288.350  10
  -4  19  -3 8220.80 295.339   8
   4 -19   3 9230.07 308.910  27
  -4 -19  -3 8257.80 290.615   7
  -4 -19  -3 8986.63 300.682   6
  -4 -19  -4 1393.41 108.478  10
  -4  19  -4 1270.89 109.583   8
   4 -19   4 1363.61 107.750  27
  -4 -19  -4 1475.18 114.525   6
  -4 -19  -5 957.634 87.8221  10
  -4  19  -5 746.747 87.3378   8
  -4 -19  -5 780.278 83.6084   6
  -4  19  -6 15937.1 413.065  21
  -4 -19  -6 15377.6 428.873   6
  -4  19  -7 250.525 57.4620   8
  -4  19  -7 261.278 49.3407  21
  -4 -19  -7 238.780 51.8392   6
  -4  19  -8 1545.70 108.199  21
  -4  19  -8 1425.42 111.672   8
  -4 -19  -8 1567.06 108.411  26
  -4 -19  -8 1673.68 115.886   6
  -4  19  -9 700.447 69.2061  21
  -4 -19  -9 582.297 60.6990  20
  -4  19  -9 602.993 67.8007   8
  -4 -19  -9 691.788 66.1695  26
  -4  19 -10 2088.47 109.981  21
  -4 -19 -10 1914.80 97.4452  20
  -4  19 -10 1936.39 104.473   8
  -4 -19 -10 1858.92 94.9669  26
  -4  19 -11 215.043 33.3689  21
  -4 -19 -11 245.879 35.2592  18
   4 -20 -10 1253.29 72.3830   5
   4  20 -10 1439.04 88.2513  21
   4 -20 -10 1254.28 78.0026  19
   4  20 -10 1368.34 84.5831  16
   4  20  -9-8.17758 27.6086  21
   4 -20  -9 18.5974 19.4695   5
   4 -20  -9-3.56351 23.0759  19
   4  20  -8 1515.43 108.872  21
   4 -20  -8 1504.04 97.2599   5
   4 -20  -8 1431.26 100.103  19
   4  20  -7 3225.02 168.785  21
   4 -20  -7 3171.13 152.178   5
   4 -20  -7 3408.43 164.050  19
   4  20  -6 1441.22 113.465  21
   4 -20  -6 1494.83 105.170  10
   4 -20  -6 1470.91 103.953   5
  -4 -20   6 1508.90 110.853   7
   4  20  -5 736.617 82.5140  21
   4 -20  -5 785.925 80.8499  10
  -4 -20   5 868.608 88.7430   7
   4  20  -4 2127.79 139.510  21
   4 -20  -4 2334.27 140.034  10
  -4 -20   4 2012.20 137.596   7
   4 -20  -4 2268.43 140.200  27
   4  20  -4 2020.27 130.843  12
   4  20  -3 2332.12 143.969  21
   4 -20  -3 2400.40 141.946  10
   4 -20  -3 2001.42 134.160  27
  -4 -20   3 2373.26 148.275   7
   4 -20  -2 1499.49 115.551  27
  -4 -20   2 1747.87 125.144   7
   4  20  -1 7538.67 263.590  16
  -4 -20   1 7192.50 270.401   7
   4 -20   0 5344.20 226.979  27
  -4 -20   0 4561.88 209.528   7
   4 -20   1 17441.9 469.803  27
  -4 -20  -1 16466.8 457.992   7
  -4  20  -2 3760.73 185.014   8
   4 -20   2 4254.65 198.640  27
  -4 -20  -2 3918.92 184.758   6
  -4 -20  -3 1192.89 98.7909  10
  -4  20  -3 1005.11 95.6032   8
   4 -20   3 972.686 93.3891  27
  -4 -20  -3 1216.15 102.277   6
   4 -20   4 47.0973 35.2994  27
  -4 -20  -4 84.9340 31.3516  10
  -4  20  -4 160.383 50.4528   8
  -4 -20  -4 90.8465 37.5164   6
  -4 -20  -5 6269.61 236.938  10
  -4  20  -5 5819.65 244.766   8
   4  20   5 6533.42 237.535  12
  -4  20  -6 21.7464 31.8055   8
  -4 -20  -6 7.25281 29.2771   6
  -4  20  -7-15.1747 23.5840  21
  -4  20  -7-5.96062 37.6829   8
  -4 -20  -7 5.96087 28.7085   6
  -4  20  -8 153.159 36.4941  21
  -4 -20  -8 122.896 34.1975  26
  -4  20  -8 157.871 40.6534   8
  -4 -20  -8 86.5590 30.9485   6
  -4  20  -9 6.53000 25.4973  21
  -4 -20  -9 61.7915 26.6641  20
  -4  20  -9 61.9135 31.5006   8
  -4 -20  -9 43.3285 23.7035  26
  -4  20 -10 147.197 30.6671  21
  -4 -20 -10 99.9786 23.3711  20
  -4  20 -10 136.078 29.6967   8
   4 -21 -10 2199.65 96.0815  19
   4  21 -10 2165.87 101.544  16
   4  21  -9 194.788 38.8746  21
   4 -21  -9 145.223 25.5882   5
   4 -21  -9 212.339 39.1636  19
   4  21  -9 212.053 41.0223  16
   4  21  -8 34.2615 30.4164  21
   4 -21  -8 0.25660 16.9714   5
   4 -21  -8 5.32088 25.6158  19
   4  21  -7 25.9574 28.7237  21
   4 -21  -7 15.1060 29.4386  19
   4 -21  -6 587.314 66.1311  10
   4  21  -6 572.059 72.0408  21
  -4 -21   6 536.327 65.9525   7
  -4  21   5-27.9846 34.5521  11
   4  21  -5 68.0382 33.4507  21
   4 -21  -5 53.8693 30.6677  10
  -4 -21   5 35.6972 24.9318   7
   4  21  -4 56.4093 26.6147  21
   4 -21  -4 53.7558 25.5673  10
   4 -21  -4 142.407 40.9260  27
  -4 -21   4 47.4233 31.1466   7
   4  21  -4 46.4197 29.4982  12
   4 -21  -3 135.345 42.9135  27
   4  21  -3 40.1498 29.3143  21
   4 -21  -3 59.9942 32.0372  10
  -4 -21   3 40.0666 25.8642   7
   4 -21  -2 4672.44 213.114  27
  -4 -21   2 5242.25 226.745   7
   4  21  -2 5462.55 223.355  16
  -4 -21   1 973.707 94.9052   7
   4 -21  -1 917.320 91.4037  27
   4  21  -1 1079.85 92.3799  16
   4 -21   0 4411.27 207.294  27
  -4 -21   0 4261.13 202.952   7
  -4  21  -1 1917.48 125.451   8
   4 -21   1 1664.79 124.311  27
  -4 -21  -1 1691.28 123.490   7
  -4  21  -2 2569.83 149.342   8
   4 -21   2 2455.85 150.333  27
  -4 -21  -2 2665.69 151.378   6
  -4 -21  -3 95.1455 34.0152  10
   4 -21   3 97.1612 38.3858  27
  -4  21  -3 113.693 38.5625   8
  -4 -21  -3 80.7485 38.3471   6
  -4 -21  -4 371.421 58.7603  10
  -4  21  -4 474.245 71.2231   8
   4 -21   4 361.096 57.6498  27
  -4 -21  -4 391.896 59.5326   6
  -4 -21  -5 20331.8 491.122  10
  -4  21  -5 19401.4 506.099   8
   4  21   5 20568.9 488.040  12
  -4  21  -6-4.15064 31.8069   8
  -4 -21  -6 19.9577 26.9123   6
  -4  21  -7 1235.77 92.1562  21
  -4  21  -7 1340.40 107.275   8
  -4 -21  -7 1186.72 98.4582   6
  -4  21  -8 52.2479 27.9643  21
  -4  21  -8 96.9755 40.6918   8
  -4 -21  -8 37.4937 29.0470   6
  -4 -21  -8 67.5587 30.4314  26
  -4  21  -9 5209.70 177.451  21
  -4 -21  -9 5095.85 169.539  20
  -4  21  -9 5029.86 185.176   8
  -4 -21  -9 5095.71 172.898  26
  -4  21 -10 88.7698 22.8203  21
  -4 -21 -10 89.2575 23.4400  18
  -4  21 -10 103.880 24.7336   8
   4 -22  -9 2523.88 111.806  19
   4  22  -9 2409.18 117.247  16
   4  22  -8 385.729 52.1566  21
   4 -22  -8 361.428 48.2652  19
   4  22  -8 371.348 54.1918  16
   4  22  -7 86.1321 35.2002  21
   4 -22  -7 60.1099 29.1733  19
   4 -22  -6 41.5891 26.3309  10
   4  22  -6 9.00227 30.9458  21
  -4 -22   6-6.17872 21.0796   7
   4 -22  -6-20.3993 31.0094  19
  -4  22   5 437.479 54.2433  11
   4  22  -5 413.364 61.8587  21
   4 -22  -5 389.278 55.9653  10
  -4 -22   5 406.387 59.4522   7
  -4  22   4 220.506 45.7139  11
   4  22  -4 285.018 52.1705  21
   4 -22  -4 286.234 49.0315  10
  -4 -22   4 250.586 50.3762   7
   4  22  -4 289.668 51.5889  12
   4 -22  -3 87.4199 30.9009  10
   4 -22  -3 64.5627 33.5463  27
   4  22  -3 113.181 34.3748  16
  -4 -22   3 95.7264 36.3868   7
   4 -22  -2 1739.44 120.957  10
   4  22  -2 1908.35 124.773  16
   4 -22  -2 1783.99 127.256  27
  -4 -22   2 1748.52 127.481   7
   4  22  -1 1255.92 97.5222  16
  -4 -22   1 1031.02 97.4355   7
   4 -22  -1 995.482 96.1477  27
  -4 -22   0 8360.64 297.480   7
   4 -22   0 8635.91 300.553  27
   4 -22   1 1610.99 121.786  27
  -4 -22  -1 1529.18 117.180   7
  -4 -22  -2 86.6047 34.1847  10
   4 -22   2 41.6173 31.4203  27
  -4  22  -2 61.1494 31.6143   8
  -4 -22  -2 78.8614 39.8258   7
  -4 -22  -2 45.0135 29.5781   6
  -4 -22  -3 10169.8 313.855  10
  -4  22  -3 9755.71 319.640   8
   4 -22   3 9848.24 318.820  27
  -4 -22  -3 9491.22 311.687   6
  -4  22  -4 500.270 68.9139   8
  -4 -22  -4 513.475 67.1683  10
   4 -22   4 622.714 70.3458  27
  -4 -22  -4 505.449 68.8729   6
   4  22   4 418.958 60.7228  12
  -4  22  -4 553.955 69.2261  11
  -4  22  -5 5465.87 229.483   8
   4  22   5 6046.41 222.247  12
  -4 -22  -5 5698.78 227.679   6
  -4  22  -6 119.524 43.4188   8
  -4 -22  -6 80.6643 38.9636   6
  -4  22  -7 42.6415 35.5611   8
  -4 -22  -7 76.5795 34.4239   6
  -4  22  -8 855.016 68.0072  21
  -4  22  -8 1023.52 83.7122   8
  -4 -22  -8 958.590 75.0734  26
  -4 -22  -8 975.940 79.8577   6
  -4  22  -9 181.840 30.9286  21
  -4 -22  -9 190.714 30.9265  20
  -4  22  -9 194.892 36.5429   8
  -4 -22  -9 233.655 33.4862  26
  -4 -22 -10 909.644 56.7379  18
   4 -23  -9 860.002 57.9432  19
   4  23  -9 836.621 62.6872  16
   4 -23  -8 338.241 44.7221  19
   4  23  -8 319.563 45.7114  16
   4 -23  -7 42.8480 25.9634  19
   4  23  -7 93.0116 33.1172  16
   4  23  -6 2017.64 122.845  21
   4 -23  -6 1823.84 112.751  19
   4  23  -6 1954.38 122.890  16
  -4 -23   6 2181.93 121.836   7
  -4  23   5 133.897 35.9471  11
   4 -23  -5 175.089 37.5146  10
   4  23  -5 153.011 41.9689  16
  -4 -23   5 122.593 37.4152   7
   4 -23  -4 688.425 72.1435  10
  -4 -23   4 725.889 78.4870   7
   4  23  -4 694.622 78.2483  16
   4  23  -4 677.462 72.6414  12
  -4  23   4 740.817 76.8261  11
   4 -23  -3 729.007 76.1349  10
   4  23  -3 748.745 79.9591  16
  -4 -23   3 652.711 76.9982   7
   4  23  -3 727.828 78.4104  12
  -4  23   3 686.634 78.5620  11
   4 -23  -2-48.2043 34.6513  10
   4 -23  -2 49.5941 38.2571  27
  -4 -23   2-6.65381 29.0544   7
   4  23  -2-10.1169 23.7060  16
   4 -23  -1 461.592 67.5539  27
  -4 -23   1 438.753 66.3499   7
   4 -23   0 377.071 58.9453  27
  -4 -23   0 385.133 61.1839   7
  -4 -23  -1 422.975 64.6284   7
   4 -23   1 527.055 70.0950  27
  -4 -23  -2 102.293 31.9373  10
  -4 -23  -2 45.2189 29.5277   7
  -4  23  -2 98.4251 36.5698   8
   4 -23   2 155.500 43.6011  27
  -4 -23  -2 137.814 34.0204   6
  -4 -23  -3 3755.39 173.041  10
  -4  23  -3 3485.93 172.933   8
   4 -23   3 3504.03 172.994  27
  -4 -23  -3 3731.96 177.889   6
  -4  23  -3 3350.28 170.496  11
  -4 -23  -4 10994.5 325.249  10
  -4  23  -4 10913.1 338.670   8
   4 -23   4 11631.1 331.520  27
  -4 -23  -4 11833.8 343.528   6
   4  23   4 11463.6 334.900  12
  -4  23  -4 10397.2 321.051  11
  -4  23  -5 1316.27 106.817   8
   4  23   5 1384.98 97.0806  12
  -4 -23  -5 1173.10 96.4704   6
  -4  23  -6 2933.31 155.735   8
  -4 -23  -6 3267.35 157.696   6
  -4  23  -7 796.777 76.4643   8
  -4 -23  -7 840.860 73.8723  26
  -4 -23  -7 844.530 75.8161   6
  -4 -23  -8 8991.98 244.476  20
  -4 -23  -8 9641.62 257.749  26
  -4  23  -9 50.3845 20.6791   8
   4 -24  -8 165.101 32.3611  19
   4  24  -8 141.941 30.5273  16
   4 -24  -7 112.004 32.3911  19
   4  24  -7 95.3154 31.6167  16
   4 -24  -6 787.636 70.4438  19
   4  24  -6 795.495 74.8596  16
  -4 -24   6 825.749 71.4539   7
   4 -24  -5 1149.03 83.6961  10
   4  24  -5 1028.39 88.4156  16
  -4 -24   5 1034.11 86.4032   7
  -4  24   5 1007.54 79.5942  11
   4  24  -4 782.896 77.0965  16
   4 -24  -4 957.107 80.8818  10
  -4 -24   4 738.383 76.8615   7
   4  24  -4 827.158 76.9655  12
  -4  24   4 872.923 79.7704  11
  -4  24   3 555.672 66.5522  11
   4 -24  -3 622.137 70.2158  10
   4  24  -3 630.648 69.5741  16
  -4 -24   3 563.183 69.4002   7
   4  24  -3 613.882 69.0349  12
  -4  24   2 12.4450 30.3160  11
   4 -24  -2 13.1346 29.8783  10
   4  24  -2 0.23083 20.2840  16
  -4 -24   2-1.67364 31.6647   7
  -4  24   1 343.571 61.8474  11
   4 -24  -1 340.842 58.0766  27
  -4 -24   1 306.302 55.1687   7
  -4  24   0 402.747 61.0036  11
  -4 -24   0 456.325 63.5559   7
   4 -24   0 423.351 61.0378  27
  -4  24  -1 32.9916 31.3882  11
   4 -24   1 103.217 40.4773  27
  -4 -24  -1 50.0838 34.8160   7
  -4  24  -2 1537.18 108.406   8
   4 -24   2 1656.87 117.241  27
  -4 -24  -2 1493.91 106.058   6
  -4  24  -2 1480.51 111.154  11
  -4 -24  -3 5001.83 198.827  10
  -4  24  -3 5185.13 208.323   8
   4  24   3 5120.03 210.413  12
  -4 -24  -3 5130.93 206.071   6
   4 -24   3 5273.23 209.018  27
  -4  24  -3 5243.11 210.043  11
  -4 -24  -4 2539.52 133.895  10
  -4  24  -4 2605.69 144.388   8
   4  24   4 2450.72 136.518  12
  -4 -24  -4 2401.22 135.438   6
  -4  24  -4 2761.43 140.209  11
  -4  24  -5 44.2582 32.9224   8
   4  24   5-12.5634 23.2178  12
  -4 -24  -5 55.1835 32.1733   6
  -4  24  -6 1283.04 94.7077   8
  -4 -24  -6 1215.71 90.6997   6
  -4  24  -7 2427.10 124.840   8
  -4 -24  -7 2385.26 116.596  26
  -4 -24  -7 2267.77 117.205   6
  -4  24  -8 2024.69 101.619   8
  -4 -24  -8 2123.56 96.0805  26
   4 -25  -8 4.67740 13.5343  19
   4  25  -8 20.1652 17.6625  16
   4 -25  -7 4106.24 146.283  19
   4  25  -7 4238.53 155.340  16
   4 -25  -6 598.723 58.8606  19
   4  25  -6 695.286 65.2706  16
  -4 -25   6 740.021 63.0440   7
   4 -25  -5 2082.80 109.061  10
   4  25  -5 2036.83 115.815  16
  -4 -25   5 1998.22 114.135   7
  -4  25   5 1858.76 103.875  11
   4 -25  -4 1339.16 93.4801  10
   4  25  -4 1169.33 88.6566  16
  -4 -25   4 1137.32 91.8337   7
   4  25  -4 1267.19 90.2159  12
  -4  25   4 1202.21 89.2403  11
  -4  25   3 282.011 51.0658  11
   4 -25  -3 364.079 52.2069  10
   4  25  -3 349.906 50.0238  16
  -4 -25   3 305.473 53.6861   7
   4  25  -3 340.747 52.8648  12
  -4  25   2 108.487 39.0833  11
   4 -25  -2 48.9678 27.8219  10
  -4 -25   2 47.3489 32.5637   7
   4  25  -2 46.6511 29.4268  12
  -4  25   1 375.569 59.9986  11
   4 -25  -1 451.268 61.4067  10
  -4 -25   1 444.204 63.5565   7
   4  25  -1 436.705 62.2942  12
  -4  25   0-24.2779 38.8919  11
   4 -25   0 22.9817 33.6544  27
  -4 -25   0-28.6990 33.1179   7
  -4  25  -1 247.597 53.6404  11
   4 -25   1 267.606 54.5767  27
  -4 -25  -1 239.044 51.0620   7
  -4  25  -2 1990.07 117.069   8
   4  25   2 2017.94 127.169  12
  -4 -25  -2 2111.96 121.107   6
  -4  25  -2 2164.90 129.923  11
   4 -25   2 2051.71 125.306  27
  -4 -25  -3 3509.08 154.794  10
  -4  25  -3 3631.15 162.051   8
   4  25   3 3519.25 164.880  12
  -4 -25  -3 3623.77 163.617   6
  -4  25  -3 3450.72 161.762  11
  -4  25  -4 2084.57 121.738   8
   4  25   4 2161.99 120.161  12
  -4 -25  -4 1997.43 117.849   6
  -4  25  -4 2172.57 117.913  11
  -4  25  -5 869.468 77.7629   8
  -4 -25  -5 937.294 78.0661   6
   4  25   5 1004.38 73.8527  12
  -4  25  -6 74.6857 31.4039   8
  -4 -25  -6 80.3046 28.5860   6
  -4  25  -7 11500.1 293.085   8
  -4 -25  -7 11077.3 278.962  26
  -4  25  -8 243.316 34.7222   8
   4 -26  -7 13.7959 15.2586  19
   4  26  -7 30.6606 18.5450  16
   4 -26  -6 815.208 61.8897  19
   4  26  -6 807.576 64.1467  16
  -4 -26   6 777.002 58.6730   7
   4 -26  -5 1029.43 75.8738  19
  -4 -26   5 1026.17 75.3978   7
   4  26  -5 1118.23 78.2572  16
  -4  26   5 984.283 69.0659  11
  -4  26   4 244.994 40.0270  11
   4 -26  -4 236.185 38.3046  10
  -4 -26   4 273.586 45.3431   7
   4  26  -4 255.271 41.0884  16
   4  26  -4 258.463 39.2444  12
   4 -26  -3 3453.33 149.298  10
   4  26  -3 3138.49 139.147  16
  -4 -26   3 3173.14 153.018   7
   4  26  -3 3139.01 147.091  12
  -4  26   3 3422.25 152.391  11
   4 -26  -2 1166.33 88.4024  10
   4  26  -2 1043.07 86.6387  12
  -4 -26   2 1043.66 87.5636   7
  -4  26   2 1053.32 88.6547  11
  -4  26   1 20.2692 30.4247  11
   4 -26  -1 25.2519 29.7136  10
  -4 -26   1 13.1545 30.5337   7
   4  26  -1-4.51113 30.5985  12
  -4 -26   0 3785.66 172.937   7
   4  26   0 3904.33 176.321  12
  -4  26   0 3714.76 172.443  11
   4  26   1 2092.75 127.389  12
  -4  26  -1 2140.59 126.728  11
  -4 -26  -2 588.526 59.0889   6
   4  26   2 517.309 65.1351  12
  -4  26  -2 532.276 63.9446  11
  -4  26  -3 180.862 39.9817  11
  -4 -26  -3 205.096 37.8878  10
  -4  26  -3 204.196 40.7084   8
   4  26   3 171.699 42.4876  12
  -4 -26  -3 165.387 35.7783   6
  -4  26  -4 5033.30 184.181   8
   4  26   4 4648.37 174.956  12
  -4 -26  -4 5091.06 182.994   6
  -4 -26  -5 436.854 50.7078   6
  -4  26  -5 442.678 51.9080   8
  -4  26  -6 725.371 61.7010   8
  -4 -26  -6 707.469 59.5004  26
  -4 -26  -6 594.389 54.8666   6
  -4  26  -7 708.056 55.9932   8
  -4 -26  -7 645.602 49.8258  26
   4 -27  -6 699.775 51.3963  19
   4  27  -6 698.496 51.4350  16
   4 -27  -5-1.43202 18.8358  19
   4  27  -5 14.0470 16.1348  16
  -4 -27   5-5.70079 21.4381   7
   4 -27  -4 286.760 37.9933  10
   4  27  -4 267.432 37.2719  16
  -4 -27   4 248.954 40.1053   7
  -4  27   4 262.300 39.1993  11
  -4  27   3-6.03435 24.1751  11
   4 -27  -3 10.4603 21.7692  10
  -4 -27   3 14.4283 23.5311   7
   4  27  -3-3.32415 23.4998  12
  -4  27   2 69.1974 24.4657  11
   4 -27  -2 120.878 30.2791  10
  -4 -27   2 103.581 29.5367   7
   4  27  -2 105.387 30.6894  12
  -4  27   1 138.739 38.6662  11
   4 -27  -1 125.987 32.7763  10
  -4 -27   1 183.192 39.8665   7
   4  27  -1 116.322 33.6796  12
  -4  27   0 19.2705 28.4026  11
   4 -27   0 48.6486 26.7877  10
   4  27   0 45.7891 34.3880  12
   4  27   1 768.663 73.0621  12
  -4  27  -1 787.555 73.1798  11
   4  27   2 1036.43 82.3222  12
  -4  27  -2 1033.36 81.1937  11
  -4  27  -3 699.296 60.8827   8
  -4 -27  -3 768.733 62.7365   6
   4  27   3 813.451 68.8926  12
  -4  27  -3 821.376 69.0344  11
  -4  27  -4 3072.22 128.546   8
  -4 -27  -4 2946.08 125.255   6
   4  27   4 2990.88 124.766  12
  -4  27  -5 555.665 52.8568   8
  -4 -27  -5 535.375 49.3167   6
  -4  27  -6 947.257 63.1021   8
  -4 -27  -6 872.735 59.0201  26
   4 -28  -5 147.514 25.1137  19
   4 -28  -4 220.114 33.6538  19
  -4 -28   4 198.340 31.1951   7
   4 -28  -3 23.1933 18.0722  10
  -4 -28   3 27.8142 21.4594   7
   4  28  -3 2.18823 16.8015  12
  -4  28   3 28.9421 21.7517  11
   4 -28  -2 710.574 58.6126  10
  -4 -28   2 617.768 59.2843   7
   4  28  -2 667.437 60.1093  12
  -4  28   2 670.637 61.5755  11
  -4  28   1-7.90522 28.2804  11
   4 -28  -1-14.0204 18.4938  10
   4  28  -1-51.8425 30.8200  12
  -4  28   0 298.412 45.4930  11
   4 -28   0 400.879 48.0960  10
   4  28   0 448.219 54.0077  12
  -4  28  -1-2.55235 23.6310  11
   4 -28   1 11.4767 20.4300  10
   4  28   1 9.36363 24.8754  12
   4  28   2 44.0051 26.1631  12
  -4  28  -2 17.4562 20.8171  11
  -4 -28  -3 1599.35 81.2408   6
   4 -28   3 1659.94 85.5631   7
   4  28   3 1682.17 90.3224  12
  -4  28  -3 1593.01 85.8126  11
  -4  28  -4 618.643 49.2843   8
  -4 -28  -4 602.871 48.2677   6
   4  28   4 523.330 45.2537  12
  -4 -28  -5 572.054 48.3312  26
   4 -29  -2 691.398 51.3220  10
   4  29  -2 708.093 55.2148  12
  -4  29   2 652.002 55.4007  11
   4 -29  -1 816.664 58.5260  10
   4  29  -1 812.649 63.5824  12
  -4  29   1 808.630 63.2791  11
   4 -29   0 2268.88 101.043  10
   4  29   0 2200.24 105.994  12
  -4  29   0 2057.65 102.586  11
   4 -29   1 10.8418 19.7565  10
   4  29   1 75.6658 25.0065  12
  -4  29  -1 17.8886 19.7913  11
   4 -29   2 625.393 52.6006  10
   4  29   2 675.876 54.9428  12
  -4  29  -2 624.268 52.4443  11
   4 -29   3 447.536 42.8895  10
   4  29   3 474.414 42.6630  12
   4  30   0 199.320 28.7239  12
   4  30   1 3.46051 15.2446  12
   5   0 -14 14.5320 16.4601  15
   5   0 -13 383.880 52.9240  15
   5   0 -13 1904.19 101.150  14
   5   0 -12 13.2902 26.1177  15
   5   0 -12-39.0198 34.9199  24
   5   0 -11 896.377 80.1048  14
   5   0 -11 996.350 91.2837  15
   5   0 -11 899.142 83.3971  24
   5   0 -10-9.09698 24.1082  15
   5   0 -10 20.7514 26.8543  24
   5   0  -9 541.381 59.5664  14
   5   0  -9 596.979 70.0679  15
   5   0  -9 634.773 69.2700  25
   5   0  -9 583.379 67.4948  24
   5   0  -8-26.4881 28.6404  15
   5   0  -8 12.0532 21.5241  25
   5   0  -8-42.1810 28.8779  24
   5   0  -7 38483.7 1219.10   4
  -5   0   6 43.1129 36.0192   3
   5   0  -6-0.43991 51.1249   4
   5   0  -5 5733.43 374.969   4
   5   0  -4 0.66368 43.8755   4
   5   0  -3 26942.3 767.533  33
   5   0  -3 25972.8 792.295   4
   5   0  -2-21.4361 33.7721  33
   5   0  -2-16.9415 52.1352   4
  -5   0   1 52525.3 1073.50   2
   5   0  -1 52254.6 1131.14  33
   5   0  -1 55725.4 1256.40   4
  -5   0   0-22.8079 34.6309   2
   5   0   0 62.0725 33.4775  33
  -5   0  -1 6817.82 307.729   2
   5   0   1 6679.90 258.863  33
   5   0   1 6411.29 310.339   1
   5   0   2 26.2638 36.6554   1
  -5   0  -2-8.43619 39.4089   2
   5   0   3 110.904 53.6359   1
  -5   0  -3 5.73941 43.0817   2
  -5   0  -4-48.8911 54.4883   2
   5   0   4 13.9810 37.8578   1
  -5   0  -4-10.3110 33.2246  29
  -5   0  -5 2069.29 209.156   2
  -5   0  -5 2264.23 211.985  29
  -5   0  -6-2.04595 39.2352   2
  -5   0  -7 1218.22 196.526  34
  -5   0  -7 1389.44 201.227   2
  -5   0  -8-29.9958 23.3241   9
  -5   0  -8-34.9357 31.8651  18
  -5   0  -8 7.73461 20.6805  26
  -5   0  -9 3865.32 183.402   9
  -5   0  -9 4023.74 181.850  18
  -5   0  -9 3623.19 178.050  26
  -5   0 -10-1.27331 30.6348  18
  -5   0 -10-1.24925 24.8429  26
  -5   0 -11 1272.72 99.3218  18
  -5   0 -11 1031.04 88.9425  26
  -5   0 -12-32.8313 30.1089  18
  -5   0 -13 25.3279 23.4986  18
  -5   0 -14-1.12795 16.3571  18
   5   1 -14 2998.21 115.730  15
   5  -1 -14 2960.34 111.234  15
   5   1 -13 3092.61 142.313  15
   5  -1 -13 2906.12 135.759  15
   5   1 -13 2977.40 126.620  24
   5   1 -12 216.426 43.2307  15
   5  -1 -12 289.108 49.1757  15
   5  -1 -12 200.806 39.0252  14
   5  -1 -12 207.090 37.9572  24
   5   1 -12 198.135 39.0866  24
   5   1 -11 3764.63 166.099  14
   5  -1 -11 4248.30 182.096   5
   5  -1 -11 3876.09 171.432  14
   5   1 -11 3725.22 180.323  15
   5  -1 -11 4120.56 186.669  15
   5  -1 -11 3937.65 175.342  24
   5   1 -11 4101.69 179.593  24
   5  -1 -10 3039.75 156.534   5
   5  -1 -10 2905.33 156.730  15
   5   1 -10 2833.72 156.760  15
   5   1 -10 2606.71 140.225  14
   5  -1 -10 2843.48 146.127  14
   5  -1 -10 2850.20 150.642  24
   5   1 -10 2829.07 150.048  24
   5  -1  -9 159.624 37.1806   5
   5  -1  -9 154.537 39.2237  15
   5   1  -9 174.114 40.5456  15
   5   1  -9 183.812 34.5575  14
   5  -1  -9 147.948 32.0570  14
   5  -1  -9 179.862 39.1922  25
   5  -1  -9 156.564 38.7233  24
   5   1  -9 189.121 41.3283  24
   5  -1  -8 3745.77 169.397   5
   5   1  -8 3510.62 168.450  15
   5  -1  -8 3457.96 165.324  15
   5   1  -8 3464.78 155.846  14
   5  -1  -8 3636.19 166.324  25
   5   1  -8 3668.77 165.483  25
   5  -1  -8 3490.69 163.633  24
   5   1  -8 3722.76 168.092  24
   5  -1  -7 6074.51 436.979   4
   5   1  -7 6768.54 457.638   4
   5  -1  -6 1374.36 194.384   4
   5   1  -6 1165.45 175.020   4
  -5  -1   6 1502.77 174.002   3
   5  -1  -5 358.514 92.1893   4
   5   1  -5 481.927 107.891   4
   5  -1  -4 1745.76 197.474   4
   5   1  -4 1838.91 195.330   4
   5   1  -4 2210.14 202.269  33
   5   1  -3-7.44827 45.9915   4
   5   1  -3-9.65126 48.7100  33
   5  -1  -3 104.596 64.3522   4
   5   1  -2 3223.51 216.792  33
   5  -1  -2 3182.97 215.324  33
   5   1  -2 3116.77 233.492   4
   5  -1  -2 3352.99 242.157   4
   5  -1  -1 36465.8 855.269  33
  -5  -1   1 39082.3 822.417   2
   5   1  -1 35827.7 945.023   4
   5  -1  -1 36305.6 947.007   4
  -5  -1   0 9223.69 343.875   2
   5   1   0 7883.48 312.084  33
   5  -1   0 8863.00 378.311   1
   5  -1   0 8171.21 311.368  33
   5   1   1 2524.37 156.779  33
   5  -1   1 2195.52 180.766   1
  -5  -1  -1 2351.38 178.219   2
   5  -1   1 2564.66 148.872  33
  -5  -1  -2 532.165 96.1958   2
   5  -1   2 508.689 91.7942   1
   5   1   2 651.177 74.4569  33
   5   1   2 435.993 76.9953   1
  -5  -1  -3 10547.1 449.302   2
   5  -1   3 11534.7 435.010   1
   5   1   3 11568.0 414.275   1
  -5  -1  -4 8520.28 414.351   2
  -5  -1  -4 7376.38 379.702  29
  -5   1  -4 8079.10 382.737  29
   5  -1   4 7778.73 350.545   1
  -5  -1  -5 997.191 148.322   2
  -5   1  -5 1272.45 164.149   2
  -5  -1  -5 1336.05 171.253  29
  -5   1  -5 1147.77 151.463  29
  -5   1  -6 807.898 142.479   2
  -5  -1  -6 765.437 140.031  29
  -5   1  -7 3918.18 355.897  34
  -5  -1  -7 4523.41 378.237  34
  -5   1  -7 5308.90 386.255   2
  -5  -1  -7 4825.00 368.603   2
  -5   1  -8 2045.16 127.894   9
  -5  -1  -8 2175.28 130.032   9
  -5   1  -8 2192.02 125.145  18
  -5  -1  -8 1986.59 120.689  18
  -5   1  -8 1952.76 124.353  26
  -5  -1  -8 2024.91 125.850  26
  -5  -1  -9 2095.93 132.581   9
  -5   1  -9 2021.34 125.981  18
  -5  -1  -9 2358.18 136.724  18
  -5   1  -9 1907.56 126.953  26
  -5  -1  -9 2179.08 133.297  26
  -5   1 -10 3607.32 174.921  18
  -5  -1 -10 3547.81 172.897  18
  -5  -1 -10 3262.64 168.100  26
  -5   1 -10 3521.37 173.381  26
  -5   1 -11 27.7838 27.4789  18
  -5   1 -11 51.4747 25.6247  26
  -5  -1 -11 36.0808 20.5552  26
  -5  -1 -11 74.1930 38.2147  18
  -5   1 -12-20.2242 33.6111  18
  -5  -1 -12 14.4991 24.8785  18
  -5   1 -13 270.567 43.0485  18
  -5  -1 -13 347.536 47.6600  18
  -5   1 -14 130.946 26.6815  18
  -5  -1 -14 115.047 25.3017  18
   5   2 -14 3287.13 122.862  15
   5  -2 -13 784.891 67.7647  15
   5   2 -13 882.511 74.0295  15
   5   2 -13 731.573 59.7223  24
   5  -2 -12 392.509 55.0366  15
   5  -2 -12 412.609 50.8629  14
   5  -2 -12 501.637 55.5109  24
   5   2 -12 453.275 56.8607  24
   5   2 -12 486.522 64.4326  15
   5  -2 -11 263.573 47.5888   5
   5   2 -11 214.962 48.6615  15
   5  -2 -11 225.537 46.7308  15
   5  -2 -11 181.952 43.0115  14
   5  -2 -11 189.299 40.2785  24
   5   2 -11 207.599 44.1557  24
   5   2 -11 257.438 49.1558  14
   5  -2 -10 53.2999 31.1759  14
   5  -2 -10 72.3686 34.1194   5
   5   2 -10 47.6129 28.4884  14
   5   2 -10 77.3498 36.8000  15
   5  -2 -10 102.940 36.7149  15
   5  -2 -10 76.9088 28.9610  24
   5   2 -10 70.2861 32.2386  24
   5  -2  -9 5.31198 23.9520   5
   5   2  -9 35.7019 26.3908  15
   5  -2  -9 41.4690 25.2503  15
   5   2  -9 26.6333 27.9538  14
   5  -2  -9 13.5740 22.3895  25
   5  -2  -9 46.9412 26.5959  24
   5   2  -9 39.8873 28.7240  24
   5  -2  -8 8255.65 270.322   5
   5   2  -8 8212.06 273.176  15
   5  -2  -8 8085.54 264.858  15
   5   2  -8 7727.79 249.168  14
   5  -2  -8 7758.20 260.199  25
   5   2  -8 7856.90 257.341  25
   5  -2  -8 7614.18 258.225  24
   5   2  -8 7457.41 256.263  24
   5   2  -7 49.6659 48.6899   4
   5  -2  -7 15.4595 57.1104   4
   5  -2  -6 13105.9 618.928   4
   5   2  -6 12713.5 613.686   4
   5   2  -5 279.569 82.1866  33
   5   2  -5 173.853 76.0982   4
   5  -2  -5 196.277 74.8507   4
  -5  -2   5 194.144 66.3459   3
   5   2  -4 106897. 2136.90  33
   5  -2  -4 104340. 2157.68   4
   5   2  -4 101919. 2155.45   4
   5   2  -3 4961.55 293.643  33
   5  -2  -3 5252.37 317.780   4
   5   2  -3 5292.54 315.517   4
   5   2  -2 6442.66 313.591  33
   5  -2  -2 5751.44 288.628  28
   5   2  -2 6118.69 334.312   4
   5  -2  -2 6279.87 335.827   4
   5  -2  -1 29073.6 740.116  28
   5   2  -1 30827.3 775.225  33
  -5  -2   1 31872.1 725.773   2
   5  -2  -1 31488.0 841.588   1
   5  -2  -1 31270.2 850.602   4
   5   2  -1 31254.1 854.886   4
   5  -2   0 11387.6 446.555   1
   5   2   0 11766.6 402.886  33
   5  -2   0 10926.1 360.997  28
  -5  -2   0 11257.3 402.823   2
  -5  -2  -1 8386.31 352.121   2
   5  -2   1 7204.19 344.948   1
  -5  -2  -2 38.6425 39.9107   2
   5  -2   2 29.5487 39.4325   1
  -5  -2  -3 7569.30 372.506   2
   5  -2   3 5744.59 307.705   1
  -5  -2  -4 490.004 104.056   2
  -5   2  -4 518.730 97.3843  29
  -5  -2  -4 539.931 111.120  29
   5  -2   4 559.147 100.868   1
  -5   2  -5 32441.2 977.893   2
  -5  -2  -5 36251.8 1042.23   2
  -5   2  -5 37017.2 968.209  29
  -5  -2  -5 31070.5 963.205  29
  -5  -2  -6 3559.99 297.191  29
  -5   2  -6 4201.69 321.026   2
  -5  -2  -6 3848.77 315.353   2
  -5   2  -7 1902.31 245.654  34
  -5  -2  -7 1782.26 232.275  34
  -5   2  -7 2145.09 244.232   2
  -5  -2  -7 1596.19 217.833   2
  -5   2  -8 177.315 41.7378   9
  -5  -2  -8 79.1750 25.0206   9
  -5   2  -8 74.2541 22.0146  18
  -5  -2  -8 148.986 36.2497  18
  -5   2  -8 91.1138 30.8340  26
  -5  -2  -8 163.163 35.0001  26
  -5  -2  -9 457.062 61.4264   9
  -5  -2  -9 500.676 66.0881  18
  -5   2  -9 438.006 59.4865  18
  -5  -2  -9 462.222 61.0122  26
  -5   2  -9 352.396 53.5763  26
  -5   2 -10 3895.60 181.986  18
  -5  -2 -10 3848.40 182.510  18
  -5   2 -10 3950.90 185.683  26
  -5  -2 -10 3818.89 182.184  26
  -5   2 -11 468.885 63.3851  18
  -5  -2 -11 470.309 61.0266  26
  -5  -2 -11 523.074 65.2092  18
  -5   2 -12 22.7191 25.8956  18
  -5  -2 -12 38.0075 32.2397  18
  -5   2 -13 135.383 32.5945  18
  -5  -2 -13 96.8577 29.2485  18
  -5   2 -13 119.448 29.4048  17
  -5  -2 -14 16.2776 17.1323  18
   5   3 -14 288.809 36.1364  15
   5   3 -13 102.457 32.9362  15
   5  -3 -13 70.0409 24.9313  15
   5   3 -13 31.1168 22.8871  24
   5   3 -12-4.59332 27.4292  15
   5  -3 -12 23.2097 22.0046  15
   5  -3 -12-1.02294 29.2810  24
   5   3 -12-15.1557 30.0017  24
   5  -3 -11 52.1675 27.6852  14
   5  -3 -11 112.010 31.4631   5
   5   3 -11 30.8217 26.5889  15
   5  -3 -11 103.047 32.1681  15
   5  -3 -11 70.0585 24.1663  24
   5   3 -11 57.4699 26.9054  24
   5  -3 -10 2485.90 143.605   5
   5  -3 -10 2673.93 146.413  15
   5   3 -10 2297.79 141.019  15
   5   3 -10 2198.68 126.712  14
   5  -3 -10 2210.01 130.757  14
   5  -3 -10 2362.88 135.281  24
   5   3 -10 2488.01 138.921  24
   5  -3  -9 492.800 63.1074   5
   5  -3  -9 560.712 64.7365  15
   5  -3  -9 687.247 71.6243  25
   5   3  -9 534.872 66.6950  15
   5   3  -9 507.824 57.8685  14
   5  -3  -9 532.219 64.9301  24
   5   3  -9 507.140 61.8462  24
   5  -3  -8 2383.43 137.651   5
   5  -3  -8 2561.63 140.045  19
   5   3  -8 2302.43 124.891  14
   5  -3  -8 2362.68 133.969  25
   5   3  -8 2411.88 131.250  25
   5  -3  -8 2274.87 130.200  24
   5   3  -8 2468.17 140.152  15
   5   3  -8 2365.63 132.939  24
   5  -3  -7 4249.76 361.947   4
   5   3  -7 4504.97 375.334   4
   5  -3  -6 1604.38 210.930   4
   5   3  -6 1666.63 215.608   4
  -5  -3   6 2053.36 215.631   3
   5   3  -5 1518.75 182.086  33
   5  -3  -5 1529.49 191.885   4
   5   3  -5 1379.81 185.498   4
  -5  -3   5 1486.83 175.466   3
   5   3  -4 15988.6 596.907  33
   5   3  -4 15483.1 608.975   4
   5  -3  -4 15824.4 582.195  28
   5  -3  -4 16141.6 614.428   4
   5  -3  -3 48.7289 44.8256  28
   5  -3  -3 172.966 69.4165   4
   5   3  -3 139.026 64.3186   4
   5   3  -2 74.1688 40.9277  33
   5  -3  -2 78.0668 39.7335  28
   5  -3  -2 186.014 67.3198   4
   5   3  -2 47.1084 52.1275   4
   5  -3  -1 5581.03 311.257   1
   5   3  -1 5651.46 284.767  33
  -5  -3   1 6026.12 256.650   2
   5  -3  -1 5821.77 274.794  28
   5  -3  -1 5533.32 309.868   4
   5   3  -1 5544.89 316.087   4
   5  -3   0 46041.7 1094.41   1
  -5  -3   0 45329.9 1013.21   2
   5  -3   0 45067.0 962.744  28
  -5  -3  -1 2155.41 174.995   2
   5  -3   1 1763.47 172.130   1
  -5  -3  -2 948.380 124.271   2
   5  -3   2 786.856 112.937   1
   5  -3   3 905.085 125.646   1
  -5  -3  -3 956.194 135.954   2
  -5   3  -3 660.719 93.3345  29
  -5  -3  -4 2948.88 246.165   2
   5  -3   4 2329.16 200.574   1
  -5  -3  -4 2690.34 234.880  29
  -5   3  -4 2547.13 194.994  29
   5  -3   5 8695.49 406.273   1
  -5  -3  -5 8086.77 440.139   2
  -5  -3  -5 7478.62 424.629  29
  -5   3  -6 96.6834 57.0640   2
  -5  -3  -6 151.420 77.6192  34
  -5  -3  -6 97.5009 61.4089   2
  -5  -3  -6 169.399 70.2158  29
  -5   3  -7 4730.14 387.150  34
  -5  -3  -7 4494.43 373.033  34
  -5   3  -7 4408.48 353.291   2
  -5  -3  -7 4028.58 339.236   2
  -5   3  -8 547.179 64.1133  26
  -5  -3  -8 654.581 71.2617   9
  -5   3  -8 674.289 68.8136  18
  -5  -3  -8 620.188 67.5372  18
  -5  -3  -8 612.149 68.3577  26
  -5  -3  -9 3852.17 181.130   9
  -5   3  -9 3987.77 180.112  18
  -5  -3  -9 3606.23 174.950  18
  -5   3  -9 3764.12 181.497  26
  -5  -3  -9 3462.38 173.930  26
  -5  -3 -10 78.1958 27.3884  18
  -5   3 -10 105.843 36.0694  18
  -5   3 -10 106.263 35.1677  26
  -5  -3 -10 72.2461 25.0425  26
  -5   3 -11 11.8818 25.7055  18
  -5  -3 -11 0.68350 30.9075  18
  -5  -3 -11-26.0390 26.5312  26
  -5   3 -12 854.010 78.2899  18
  -5  -3 -12 821.562 79.8601  18
  -5   3 -13 51.9617 26.0373  18
  -5  -3 -13 67.1065 27.8998  18
  -5   3 -13 31.1447 22.9327  17
  -5  -3 -14 32.8054 20.5585  18
   5   4 -14-13.2694 20.0400  15
   5  -4 -14 1179.12 67.7194  14
   5   4 -13 404.368 53.5532  15
   5  -4 -13 340.327 41.4693  15
   5  -4 -13 391.838 46.4188  14
   5   4 -13 289.761 37.4993  24
   5  -4 -12 1265.71 93.1135   5
   5   4 -12 1119.82 92.5096  15
   5  -4 -12 1318.12 92.7611  15
   5  -4 -12 1059.10 84.0361  14
   5  -4 -12 1236.63 85.1513  24
   5   4 -12 1215.58 89.5537  24
   5  -4 -11 17.4912 22.5480   5
   5   4 -11 43.4669 32.8184  15
   5  -4 -11 41.4168 25.7753  15
   5  -4 -11-17.3463 28.0285  24
   5   4 -11 19.6298 28.8089  24
   5  -4 -10 334.009 55.5553   5
   5   4 -10 282.720 51.4229  15
   5  -4 -10 314.669 50.2675  15
   5   4 -10 364.286 55.8311  14
   5  -4 -10 354.594 52.8211  25
   5  -4 -10 351.845 51.4250  24
   5   4 -10 307.416 52.1527  24
   5  -4  -9 2.09494 25.0736   5
   5   4  -9 13.9210 23.8943  15
   5   4  -9-10.8034 26.2775  14
   5  -4  -9-27.2705 21.5198  25
   5  -4  -9-49.0651 35.4921  24
   5   4  -9 11.2689 25.8335  24
   5  -4  -8 3215.00 160.468   5
   5  -4  -8 3137.38 157.297  19
   5   4  -8 2967.26 142.351  14
   5   4  -8 3066.46 159.167  15
   5  -4  -8 3167.21 157.687  25
   5  -4  -8 2997.21 151.881  24
   5  -4  -7 5061.94 394.296   4
   5   4  -7 5343.04 410.152   4
   5   4  -6 3283.13 286.544  33
   5  -4  -6 3343.77 297.547   4
   5   4  -6 2939.27 285.690   4
  -5  -4   6 3278.67 277.983   3
   5  -4  -5 5150.29 351.837   4
   5   4  -5 5035.78 354.059   4
   5   4  -5 5146.03 342.774  33
  -5  -4   5 5320.92 343.242   3
  -5  -4   4 47.5308 37.5370   3
   5   4  -4-4.93216 46.9182  33
   5  -4  -4 10.1842 47.7924  28
   5  -4  -4-7.19704 43.6332   4
   5   4  -4-17.8405 47.8491   4
   5   4  -3 21514.8 679.071  33
   5  -4  -3 20842.6 685.759   4
   5   4  -3 20763.4 693.217   4
   5  -4  -3 21474.3 672.930  28
   5   4  -2 477.087 91.4877  33
   5  -4  -2 456.676 88.6910  28
   5  -4  -2 457.728 94.1621   4
   5   4  -2 447.458 93.9739   4
   5  -4  -1 6994.36 356.560   1
   5   4  -1 6633.57 320.162  33
   5   4  -1 7164.10 360.650   4
   5  -4  -1 6878.19 349.406   4
  -5  -4   1 7470.46 298.016   2
   5  -4  -1 6846.88 310.028  28
   5  -4   0 22834.1 615.124  28
   5  -4   0 23395.6 714.859   1
  -5  -4  -1 4329.55 258.411   2
   5  -4   1 4742.70 212.474  28
   5  -4   1 4468.93 277.147   1
  -5  -4  -2 13099.3 494.991   2
   5  -4   2 12620.6 492.407   1
   5  -4   3 65.8817 48.2707   1
  -5  -4  -3 118.812 61.7028   2
   5  -4   4 203.037 71.7724   1
  -5  -4  -4 167.096 66.4883   2
  -5  -4  -4 254.941 84.0983  29
   5  -4   5 1116.81 150.603   1
  -5  -4  -5 1050.65 160.164  29
  -5  -4  -5 1398.46 177.149   2
  -5   4  -6 8016.37 459.097   2
  -5   4  -6 8734.56 504.529  34
  -5  -4  -6 8949.18 501.223  34
  -5  -4  -6 8368.71 473.413   2
  -5  -4  -6 8108.67 470.915  29
  -5   4  -7 1269.06 183.896   2
  -5   4  -7 969.611 174.386  34
  -5  -4  -7 1223.03 194.656  34
  -5  -4  -7 867.387 157.680   2
  -5  -4  -8 163.190 37.5605   9
  -5   4  -8 179.844 38.2770  18
  -5  -4  -8 96.1856 30.9636  18
  -5   4  -8 122.138 33.1195  26
  -5  -4  -8 138.927 38.8391  26
  -5  -4  -9 2010.38 130.454  26
  -5  -4  -9 2468.92 141.436   9
  -5   4  -9 2394.55 136.982  18
  -5  -4  -9 2106.83 132.393  18
  -5   4  -9 2335.11 140.671  26
  -5  -4 -10 148.285 41.2186  18
  -5   4 -10 117.378 34.2712  18
  -5   4 -10 108.996 33.5216  26
  -5  -4 -10 190.210 44.0005  26
  -5   4 -11 1020.17 88.3237  18
  -5  -4 -11 1040.21 92.0411  18
  -5  -4 -11 955.290 85.4087  26
  -5   4 -12 2046.16 121.073  18
  -5  -4 -12 1956.25 119.307  18
  -5   4 -13 359.771 48.0231  18
  -5  -4 -13 326.521 47.5383  18
  -5   4 -13 265.620 42.7259  17
  -5  -4 -14 538.127 45.9780  18
   5  -5 -14 1246.86 67.7295  14
   5   5 -14 474.358 44.8944  15
   5   5 -13-10.3776 23.9980  15
   5  -5 -13-39.4123 27.0645  14
   5   5 -13-84.7096 30.0519  24
   5  -5 -12 426.843 57.0923   5
   5   5 -12 487.859 57.6187  24
   5   5 -12 333.278 56.6248  15
   5  -5 -11 921.687 85.4900   5
   5   5 -11 989.980 93.2579  15
   5  -5 -11 993.961 85.6722  14
   5  -5 -11 1026.93 85.9346  24
   5   5 -11 1089.41 92.1827  24
   5  -5 -10 269.599 47.7305   5
   5   5 -10 295.004 56.4135  15
   5  -5 -10 284.188 48.2781  25
   5  -5 -10 179.060 38.3376  24
   5   5 -10 272.455 50.5351  24
   5  -5  -9 686.783 76.4851   5
   5   5  -9 663.032 75.6452  15
   5   5  -9 737.013 71.7934  14
   5  -5  -9 669.793 74.0436  25
   5  -5  -9 594.208 66.4266  24
   5   5  -9 627.974 71.1000  24
   5  -5  -8 326.392 50.6355  19
   5  -5  -8 366.020 55.3268   5
   5   5  -8 369.172 56.3532  15
   5   5  -8 221.189 38.7261  14
   5  -5  -8 403.238 55.4555  25
   5  -5  -8 237.943 40.8111  24
   5  -5  -7 877.179 168.955   4
   5   5  -7 849.508 165.875   4
  -5  -5   6 93.7113 52.7738   3
   5   5  -6 117.350 71.4004  33
   5  -5  -6 0.66255 45.6252   4
   5   5  -6 20.6464 51.5141   4
   5   5  -5 8745.24 459.199  33
   5  -5  -5 9106.32 476.908   4
   5   5  -5 9140.86 484.609   4
   5  -5  -5 8914.05 460.554  28
  -5  -5   5 9835.61 485.550   3
   5   5  -4 5913.01 348.404  33
   5   5  -4 6175.56 368.308   4
   5  -5  -4 6242.94 363.745   4
   5  -5  -4 5536.30 340.399  28
  -5  -5   4 6341.84 367.702   3
   5  -5  -3 441.137 90.5707   4
   5   5  -3 463.439 86.7140  33
   5  -5  -3 517.199 100.165  28
   5   5  -3 409.975 90.9396   4
  -5  -5   3 496.124 96.7891   3
   5   5  -2 9048.96 404.031  33
   5  -5  -2 10170.5 420.811  28
   5  -5  -2 10707.6 459.618   1
   5   5  -2 10152.5 439.591   4
   5  -5  -2 9799.94 428.045   4
   5  -5  -1 2912.81 230.719   1
   5   5  -1 2878.08 221.086   4
   5  -5  -1 3048.13 207.524  28
   5  -5  -1 3004.13 226.109   4
  -5  -5   1 3073.12 191.937   2
   5  -5   0 6262.13 286.376  28
  -5  -5   0 6772.94 313.073   2
   5  -5   0 6318.37 339.721   1
   5  -5   1 21317.3 677.270   1
  -5  -5  -1 20508.3 632.594   2
   5  -5   1 20008.4 539.394  28
   5  -5   2 10147.5 447.431   1
  -5  -5  -2 10290.2 437.434   2
   5  -5   3 731.466 128.386   1
  -5  -5  -3 848.494 129.029   2
   5  -5   4 448.367 101.430   1
  -5  -5  -4 220.324 76.5242   2
  -5  -5  -4 273.451 90.6761  29
   5  -5   5 168.696 64.3357   1
  -5  -5  -5 100.139 54.8628   2
  -5  -5  -5 212.036 81.4703  29
  -5   5  -6 3807.39 331.796  34
  -5  -5  -6 3807.20 322.459  34
  -5  -5  -6 3564.56 312.918  29
  -5  -5  -6 4089.21 328.988   2
  -5   5  -7 617.848 130.628   2
  -5   5  -7 616.433 147.178  34
  -5  -5  -7 530.612 131.096  34
  -5  -5  -7 515.436 123.913   2
  -5  -5  -8 2517.45 142.314   9
  -5   5  -8 2752.56 141.729  18
  -5   5  -8 2538.65 145.180  26
  -5  -5  -8 2385.27 140.798  26
  -5  -5  -9 616.661 70.0859   9
  -5   5  -9 691.425 73.5622  18
  -5  -5  -9 651.016 74.9066  18
  -5   5  -9 636.733 74.5059  26
  -5  -5  -9 624.520 72.5596  26
  -5   5 -10 52.2062 29.8459  18
  -5  -5 -10-8.55883 33.3212  18
  -5   5 -10 79.2716 37.0580  26
  -5  -5 -10 13.7968 25.2523  26
  -5   5 -11 1480.54 107.951  18
  -5  -5 -11 1386.18 105.220  18
  -5  -5 -11 1533.24 107.338  26
  -5   5 -12 181.317 40.9749  18
  -5  -5 -12 166.203 42.9186  18
  -5   5 -12 200.089 43.7855  17
  -5  -5 -13 1982.87 105.394  18
  -5   5 -13 1823.39 104.052  17
  -5  -5 -14 55.9660 19.5807  18
   5   6 -14 103.285 23.7036  15
   5  -6 -14 696.822 50.3114  14
   5   6 -13 1639.58 96.9308  15
   5  -6 -13 1614.78 87.3713  14
   5   6 -13 1542.07 86.5660  24
   5  -6 -12 587.001 65.2605   5
   5   6 -12 646.399 72.6721  15
   5  -6 -12 522.301 58.8237  14
   5   6 -12 600.285 62.4710  24
   5  -6 -11 3208.91 163.025   5
   5   6 -11 3325.89 168.566  15
   5  -6 -11 3207.48 151.782  14
   5  -6 -11 3531.35 157.920  24
   5   6 -11 3332.04 161.370  24
   5  -6 -10 18.5827 26.7673   5
   5  -6 -10-27.6047 40.1889  25
   5  -6 -10-34.6951 29.7480  24
   5   6 -10-27.1736 31.8212  24
   5   6 -10-49.8091 38.9773  15
   5  -6  -9 2833.70 157.467   5
   5  -6  -9 2870.09 156.167  19
   5   6  -9 2920.72 161.052  15
   5   6  -9 3404.28 152.002  14
   5  -6  -9 2979.09 156.402  25
   5  -6  -9 2753.95 148.858  24
   5  -6  -8 777.900 79.7357   5
   5  -6  -8 911.549 84.0566  19
   5   6  -8 902.004 77.4723  14
   5  -6  -8 864.591 82.3027  25
   5  -6  -8 769.590 74.6550  24
   5   6  -8 935.513 87.8257  15
   5   6  -7 259.602 102.785   4
   5  -6  -7 149.583 83.0196   4
  -5  -6   6 1056.67 171.296   3
   5   6  -6 1255.05 180.461  33
   5  -6  -6 1017.65 166.552  28
   5  -6  -6 972.105 164.665   4
   5   6  -6 936.455 165.995   4
   5   6  -5 4472.84 324.879  33
   5  -6  -5 4354.67 324.423   4
   5   6  -5 4162.58 322.715   4
   5  -6  -5 4309.82 319.369  28
  -5  -6   5 4391.43 327.372   3
   5   6  -4 5078.44 323.568  33
   5  -6  -4 4774.49 320.111   4
   5   6  -4 5054.49 332.262   4
   5  -6  -4 4833.41 321.985  28
  -5  -6   4 5080.40 336.603   3
  -5  -6   3 28.6373 42.1144   3
   5  -6  -3 75.8792 46.4375   4
   5   6  -3 78.4783 56.6048   4
   5  -6  -3 100.527 68.6290  28
   5   6  -3 95.7216 49.7969  33
   5  -6  -2 49304.8 1216.06   1
   5   6  -2 50666.7 1187.11  33
   5   6  -2 48787.6 1191.53   4
   5  -6  -2 48130.7 1165.04  28
  -5  -6   2 49213.2 1214.44   3
   5  -6  -2 51402.1 1199.33   4
   5  -6  -1 3551.82 232.629  28
   5  -6  -1 3882.34 257.376   4
   5   6  -1 3416.37 245.294   4
   5  -6  -1 3439.63 255.284   1
  -5  -6   1 3545.45 216.497   2
  -5  -6   0 3967.79 245.048   2
   5   6   0 4519.11 281.285   4
   5  -6   0 3965.69 232.905  28
   5  -6   0 4199.37 268.280   4
   5  -6   1 258.285 70.1767   1
  -5  -6  -1 203.649 64.4558   2
   5  -6   1 277.870 58.1808  28
   5  -6   2 158.912 72.6741   1
  -5  -6  -2 113.154 54.3275   2
   5  -6   3 12194.4 518.268   1
  -5  -6  -3 11868.7 436.106   3
  -5  -6  -3 11144.1 496.391   2
  -5  -6  -4 85.1015 60.6759   2
  -5  -6  -4 99.0823 73.6576  29
   5  -6   4 176.526 75.9491   1
   5  -6   5 1261.85 170.645   1
  -5  -6  -5 1206.57 174.737   2
  -5  -6  -5 1119.61 170.320  29
  -5  -6  -6 739.881 149.023  34
  -5  -6  -6 461.244 116.806   2
  -5  -6  -6 395.059 109.509  29
  -5   6  -6 452.130 124.311  34
  -5   6  -7 50.4082 48.2684   2
  -5   6  -7-21.0910 75.7286  34
  -5  -6  -7 67.1401 52.0627  34
  -5  -6  -7-25.3547 41.5551   2
  -5  -6  -8 3553.78 171.396   9
  -5   6  -8 3554.19 165.116  18
  -5  -6  -8 3675.52 176.080  26
  -5   6  -8 3216.51 165.791  26
  -5  -6  -9 496.331 63.2595   9
  -5   6  -9 414.018 57.2579  18
  -5  -6  -9 498.116 65.0395  18
  -5   6  -9 364.692 59.5354  26
  -5  -6  -9 401.879 60.8755  26
  -5   6 -10 20.8729 29.0636  18
  -5  -6 -10 73.8312 40.1030  18
  -5   6 -10 14.5726 21.3160  26
  -5  -6 -10 26.4281 25.3179  26
  -5   6 -11 1278.78 98.2941  18
  -5  -6 -11 1126.84 94.8750  18
  -5  -6 -11 1169.50 93.1650  26
  -5   6 -12 2358.72 127.104  18
  -5  -6 -12 2308.61 128.035  18
  -5   6 -12 2277.85 131.147  17
  -5  -6 -13 1461.76 89.0416  18
  -5   6 -13 1385.16 89.7548  17
   5   7 -13 637.478 61.4100  15
   5  -7 -13 626.751 54.2046  14
   5   7 -13 631.299 54.4396  24
   5  -7 -12 1806.51 110.265   5
   5   7 -12 1901.79 116.465  15
   5  -7 -12 1817.92 105.604  14
   5   7 -12 1871.60 108.254  24
   5  -7 -11-24.8108 36.0284   5
   5   7 -11-9.61841 30.8980  15
   5  -7 -11 8.04541 30.0735  14
   5   7 -11-39.7667 35.2302  24
   5  -7 -10-5.13251 27.0930   5
   5   7 -10-5.18932 29.5009  15
   5  -7 -10-30.2275 32.9171  25
   5  -7 -10 22.1293 24.3108  24
   5   7 -10-23.5201 35.3301  24
   5  -7  -9 80.7297 32.4500  19
   5  -7  -9 110.817 38.0457   5
   5   7  -9 128.070 40.2432  15
   5  -7  -9 72.0534 33.2102  24
   5  -7  -8 82.6618 31.4383  19
   5  -7  -8 123.725 35.3681   5
   5   7  -8 61.1236 24.9435  15
   5  -7  -8 87.9363 32.3301  25
   5  -7  -8 31.0560 23.6262  24
   5  -7  -7 588.123 68.8846   5
   5  -7  -7 658.118 69.9400  19
   5   7  -7 603.313 141.630   4
   5   7  -7 621.089 140.175  33
   5   7  -7 687.875 71.6096  15
   5  -7  -7 564.564 64.8203  25
   5  -7  -7 536.446 60.1688  24
   5   7  -6 2212.84 241.438  33
   5  -7  -6 2094.83 239.718   4
   5   7  -6 1870.67 229.733   4
   5  -7  -6 2057.84 236.341  28
  -5  -7   6 2083.47 242.798   3
  -5  -7   5 506.881 114.984   3
   5  -7  -5 556.817 117.533  28
   5   7  -5 276.084 87.6369  33
   5  -7  -5 405.759 103.916   4
   5   7  -5 401.026 106.632   4
   5   7  -4 2991.40 251.472  33
   5  -7  -4 2815.26 242.687   4
   5   7  -4 2690.81 243.656   4
   5  -7  -4 2677.79 244.480  28
  -5  -7   4 2773.28 249.299   3
   5   7  -3 4679.59 307.810  33
   5  -7  -3 4757.44 301.218   4
   5   7  -3 5311.53 323.234   4
   5  -7  -3 4761.56 311.886  28
  -5  -7   3 5745.82 351.674   3
  -5  -7   2 374.447 91.0591   3
   5   7  -2 539.681 102.322   4
   5  -7  -2 558.618 104.210   4
   5  -7  -2 759.805 120.575  28
   5  -7  -2 515.881 106.796   1
  -5   7   1 31777.7 779.083  36
   5  -7  -1 27994.7 810.340  28
   5  -7  -1 33249.4 863.048   4
   5   7  -1 31920.9 871.561   4
  -5  -7   1 31213.1 799.450   2
  -5  -7   1 31464.1 881.963   3
   5  -7  -1 28693.1 873.968   1
   5   7   0 4414.99 284.731   4
   5  -7   0 3889.55 240.798  28
   5  -7   0 5001.27 291.446   4
  -5  -7   0 4789.28 278.376   2
  -5  -7   0 4356.84 279.167   3
   5  -7   0 4349.94 291.318   1
   5  -7   1 11943.0 503.557   1
  -5  -7  -1 10715.6 439.968   3
  -5  -7  -1 11904.3 476.360   2
   5  -7   2 2188.48 214.036   1
  -5  -7  -2 2535.80 221.479   2
  -5  -7  -2 2167.10 184.676   3
   5  -7   3 7782.88 414.144   1
  -5  -7  -3 6166.78 368.197   2
  -5  -7  -4 1023.74 162.166   2
   5  -7   4 1151.54 167.001   1
  -5  -7  -4 1024.68 162.519  29
   5  -7   5 8422.85 464.018   1
  -5  -7  -5 9111.10 494.007  29
  -5  -7  -5 7446.96 451.496   2
  -5   7  -6 539.929 134.478  34
  -5  -7  -6 440.417 115.501  34
  -5  -7  -6 193.699 78.4393   2
  -5  -7  -6 168.895 79.0475  29
   5  -7   6 150.643 71.1218   1
  -5  -7  -7 6774.15 245.902  26
  -5   7  -7 6184.22 451.146  34
  -5  -7  -7 6479.64 455.336  34
  -5   7  -7 7069.25 249.426  26
  -5  -7  -8 3433.21 169.084   9
  -5   7  -8 3278.22 159.002  18
  -5   7  -8 3050.98 161.752  26
  -5  -7  -8 3266.65 167.070  26
  -5   7  -9 2724.71 148.132  18
  -5  -7  -9 2984.55 158.041  18
  -5  -7  -9 2596.48 149.152  26
  -5   7  -9 2619.24 151.647  26
  -5   7 -10 847.491 83.6229  18
  -5  -7 -10 774.553 83.4175  18
  -5   7 -10 760.692 80.4893  26
  -5  -7 -10 804.486 82.4941  26
  -5   7 -11 442.175 59.4871  18
  -5  -7 -11 357.980 55.7394  18
  -5   7 -11 360.271 59.1433  17
  -5  -7 -11 373.651 54.4536  26
  -5  -7 -12 3762.04 162.314  18
  -5   7 -12 3585.15 165.874  17
  -5  -7 -13 1938.93 100.931  18
  -5   7 -13 1824.62 100.848  17
   5   8 -13 1105.74 76.7383  15
   5  -8 -13 1026.16 66.6646  14
   5   8 -13 1066.20 68.7966  24
   5  -8 -12 398.654 53.1954   5
   5   8 -12 408.450 58.1772  15
   5  -8 -12 398.542 51.1679  14
   5   8 -12 402.904 52.9888  24
   5  -8 -11 409.756 58.3406   5
   5   8 -11 500.800 68.1470  15
   5   8 -11 483.439 60.6275  24
   5  -8 -10 45.2936 28.5890   5
   5   8 -10 58.6065 35.4393  24
   5   8 -10 25.5229 27.9993  15
   5  -8  -9-6.43956 30.0638  19
   5   8  -9 13.5888 25.0333  15
   5  -8  -9 40.1970 30.5050   5
   5  -8  -9 45.1258 24.2367  24
   5  -8  -8 3315.39 170.607   5
   5  -8  -8 3288.53 167.402  19
   5  -8  -8 3222.80 166.285  25
   5  -8  -8 3195.84 161.160  24
   5   8  -8 3431.56 171.320  15
   5  -8  -7 50.0073 20.1638  19
   5  -8  -7 24.8600 26.3017   5
   5   8  -7 33.9946 27.7072  15
   5  -8  -7 29.8271 25.5523  25
   5  -8  -7 5.20525 28.8548  24
   5   8  -6 3546.48 315.328  33
   5  -8  -6 3609.85 311.510   4
   5   8  -6 3382.49 310.992   4
   5  -8  -6 3325.26 305.199  28
  -5  -8   6 4102.29 351.275   3
  -5  -8   5 164.222 72.5902   3
   5   8  -5 189.125 72.8446  33
   5  -8  -5 377.109 105.549  28
   5  -8  -5 156.136 71.1066   4
   5   8  -5 278.393 90.9352   4
  -5  -8   4 461.680 108.254   3
   5   8  -4 258.934 84.3708  33
   5  -8  -4 425.911 110.294  28
   5  -8  -4 344.124 89.7433   4
   5   8  -4 397.116 103.004   4
  -5  -8   3 872.265 141.341   3
   5   8  -3 795.367 123.818  33
   5  -8  -3 813.715 130.891  28
   5  -8  -3 786.371 128.874   1
   5  -8  -3 782.490 121.764   4
   5   8  -3 835.423 125.021   4
  -5  -8   2 693.942 127.672   3
   5  -8  -2 467.459 89.9719   4
   5   8  -2 611.311 115.864   4
   5  -8  -2 459.888 97.2693   1
   5  -8  -2 582.221 106.838  28
  -5   8   1 18106.5 564.968  36
   5   8  -1 16775.1 596.188   4
   5  -8  -1 15926.8 616.866   1
  -5  -8   1 18803.3 583.462   2
  -5  -8   1 16593.6 615.744   3
   5  -8  -1 16291.1 584.478  28
   5  -8  -1 18119.0 598.664   4
  -5  -8   0 697.916 113.883   3
  -5  -8   0 621.168 104.047   2
   5  -8   0 754.635 112.949   4
   5   8   0 796.078 123.025   4
   5  -8   0 470.525 107.764   1
   5  -8   1 14716.6 588.529   1
  -5  -8  -1 15897.6 577.709   2
   5  -8   2 5173.68 339.574   1
  -5  -8  -2 5389.51 334.078   2
  -5  -8  -2 4525.33 278.672   3
  -5  -8  -3 292.287 83.3107   2
   5  -8   3 362.860 96.7619   1
   5  -8   4 5310.97 360.126   1
  -5  -8  -4 4777.06 348.081  29
  -5  -8  -4 4537.94 337.077   2
   5  -8   5 3744.69 310.442   1
  -5  -8  -5 2941.74 281.166  29
  -5  -8  -5 3757.78 317.645   2
  -5   8  -6 140.147 81.4650  34
  -5  -8  -6 210.974 80.5006  34
  -5  -8  -6 176.348 76.9091   2
  -5  -8  -6 28.1045 48.1820  29
   5  -8   6 231.085 82.7907   1
  -5   8  -7 4423.40 377.528  34
  -5  -8  -7 5275.92 405.453  34
  -5   8  -7 4964.94 212.210   8
  -5   8  -7 4451.18 195.507  26
  -5  -8  -7 4778.94 202.731  26
  -5   8  -8 31.7249 23.5676  18
  -5   8  -8 46.6221 32.6239  26
  -5  -8  -8-11.5327 24.8455  26
  -5  -8  -9-2.47421 22.1716  26
  -5   8  -9 18.7734 22.9599  18
  -5   8  -9 29.2747 23.8209  26
  -5   8 -10 74.1119 35.1569  18
  -5  -8 -10 94.4807 39.5534  18
  -5   8 -10 92.7190 40.6423  17
  -5   8 -10 29.9997 23.5990  26
  -5  -8 -10 101.327 33.5105  26
  -5   8 -11 659.340 69.5783  18
  -5  -8 -11 594.519 69.3380  18
  -5  -8 -11 660.536 68.5454  26
  -5   8 -11 617.439 73.6030  17
  -5   8 -12 314.722 52.1977  17
  -5  -8 -12 226.586 44.3992  18
  -5   8 -13 193.204 35.2922  17
  -5  -8 -13 149.493 33.1873  18
   5  -9 -13 1034.08 67.2243  14
   5   9 -13 1202.73 72.1037  24
   5   9 -13 1197.92 78.3569  15
   5  -9 -12 4090.44 167.887   5
   5  -9 -12 3997.90 157.113  14
   5   9 -12 3973.14 168.943  15
   5   9 -12 4122.53 162.598  24
   5  -9 -11 59.7005 31.8959   5
   5   9 -11 42.7731 30.2720  15
   5   9 -11 21.8525 29.5539  24
   5  -9 -10 986.928 92.7266   5
   5  -9 -10 987.098 91.1562  19
   5   9 -10 1030.85 95.8699  15
   5  -9  -9 697.542 79.5166   5
   5  -9  -9 589.733 71.0962  19
   5   9  -9 761.353 81.8116  15
   5  -9  -9 629.556 72.1407  25
   5  -9  -8 134.658 33.7898  19
   5  -9  -8 140.797 40.2589   5
   5   9  -8 161.028 43.5612  15
   5  -9  -8 143.851 44.7303  25
   5  -9  -8 193.011 51.1110  24
   5  -9  -7 2575.42 146.331   5
   5  -9  -7 2650.32 145.633  19
   5   9  -7 2798.54 150.666  15
   5  -9  -7 2595.18 145.099  25
   5  -9  -7 2599.80 139.956  24
  -5  -9   6 235.930 96.0268   3
   5   9  -6 223.088 77.0233  33
   5  -9  -6 194.111 81.7534   4
   5  -9  -6 265.302 94.4121  28
  -5  -9   5 116.792 74.4421   3
   5  -9  -5 36.4004 49.0178  28
   5  -9  -5 86.8478 58.7055   4
   5   9  -5 193.624 84.7307   4
   5   9  -5 154.737 79.7539  33
  -5  -9   4 77.8290 64.0727   3
   5   9  -4 50.1372 42.3006  33
   5  -9  -4 62.2735 61.9096  28
   5  -9  -4 65.2123 45.6921   4
   5   9  -4-10.6353 52.5267   4
   5   9  -3 3374.26 267.278  33
   5  -9  -3 3405.37 272.623   1
   5  -9  -3 3450.88 255.653   4
   5   9  -3 3304.14 257.269   4
   5  -9  -3 3545.12 281.986  28
  -5  -9   3 3481.23 288.832   3
   5  -9  -2 3377.69 270.644   1
  -5   9   2 3358.87 235.302  36
   5  -9  -2 3348.93 264.154  28
   5  -9  -2 3883.37 259.227   4
   5   9  -2 3561.19 257.146   4
  -5  -9   2 4040.79 298.689   3
  -5   9   1 1327.79 144.932  36
   5  -9  -1 1260.46 152.968  28
   5  -9  -1 1218.65 161.069   1
   5   9  -1 1219.44 147.661   4
  -5  -9   1 1314.69 146.140   2
   5  -9  -1 1235.73 141.516   4
  -5  -9   1 1402.35 169.441   3
   5  -9   0 1806.42 196.650   1
   5  -9   0 1987.21 179.213   4
   5   9   0 1893.78 178.655   4
  -5  -9   0 1975.32 191.026   2
  -5  -9   0 1593.64 176.832   3
   5  -9   1 2199.06 224.340   1
  -5  -9  -1 2205.98 202.654   3
  -5  -9  -1 2716.99 234.540   2
   5  -9   2 3053.80 269.250   1
  -5  -9  -2 3209.38 267.791   2
  -5  -9  -2 2933.35 228.299   3
   5  -9   3 13607.1 606.939   1
  -5  -9  -3 15136.2 627.692   2
   5  -9   4 19587.8 762.530   1
  -5  -9  -4 20524.1 776.609   2
  -5  -9  -4 21001.3 785.240  29
  -5   9  -5 65.8962 53.9414  34
  -5  -9  -5 90.5487 46.1884  34
  -5  -9  -5 10.6395 57.1602  29
  -5  -9  -5 172.730 71.1515   2
   5  -9   5 180.081 77.9755   1
   5  -9   6 3759.51 330.303   1
  -5  -9  -6 4573.83 372.342  29
  -5  -9  -6 4879.57 386.931   2
  -5   9  -7 3594.90 180.977   8
  -5   9  -7 3361.41 168.422  26
  -5  -9  -7 3473.34 171.261  26
  -5   9  -8 269.499 46.6995  18
  -5   9  -8 210.071 45.9777   8
  -5   9  -8 135.520 37.1244  26
  -5  -9  -8 290.720 50.4209  26
  -5   9  -9 5322.04 212.436  18
  -5   9  -9 4825.77 211.210  26
  -5  -9  -9 4767.61 209.193  26
  -5  -9 -10 176.779 44.1266  18
  -5   9 -10 165.174 43.4841  17
  -5   9 -10 86.4516 32.8009  26
  -5  -9 -10 124.832 35.7409  26
  -5  -9 -11 962.089 85.4246  18
  -5   9 -11 894.214 86.0248  17
  -5  -9 -11 922.554 79.2125  26
  -5  -9 -12 1220.34 88.0251  18
  -5   9 -12 1427.56 98.2577  17
  -5   9 -13 120.516 31.2716  21
  -5  -9 -13 138.818 28.4334  18
  -5   9 -13 108.403 27.7878  17
   5 -10 -13 994.454 63.0826  14
   5  10 -13 1085.12 66.4322  24
   5 -10 -12 775.225 70.0506   5
   5  10 -12 769.252 71.3239  15
   5  10 -12 923.686 72.6434  24
   5 -10 -12 798.811 66.3666  14
   5 -10 -11 1059.45 89.9980   5
   5  10 -11 1164.52 94.8281  15
   5  10 -11 1142.15 90.5748  24
   5 -10 -10 625.960 72.9964   5
   5 -10 -10 602.398 72.5259  19
   5  10 -10 670.216 79.8972  15
   5 -10  -9 3147.94 169.731   5
   5 -10  -9 3217.98 168.174  19
   5 -10  -9 3726.97 176.501  25
   5  10  -9 3647.31 178.748  15
   5 -10  -8 2919.38 162.015   5
   5 -10  -8 2918.46 160.496  19
   5  10  -8 3166.41 166.987  15
   5 -10  -8 2704.98 152.591  25
   5  10  -7 1414.92 107.054  21
   5 -10  -7 1422.51 108.924   5
   5 -10  -7 1384.38 106.440  19
   5  10  -7 1385.13 105.147  15
   5 -10  -7 1317.76 103.424  25
   5 -10  -7 1607.10 113.881  24
   5 -10  -6 10799.9 317.230  19
   5  10  -6 10619.9 316.497  15
   5  10  -6 10994.5 580.452  33
   5 -10  -6 10149.2 312.251  25
   5 -10  -6 9675.86 300.834  24
  -5 -10   6 11425.4 625.834   3
   5  10  -5 1735.71 214.932  33
   5 -10  -5 1579.12 210.205  28
  -5 -10   5 1853.43 235.454   3
   5  10  -4 6736.06 410.113  33
   5 -10  -4 6605.27 419.018  28
   5 -10  -3 3483.90 283.921   1
   5  10  -3 3733.69 292.408  33
  -5 -10   3 3584.44 302.278   3
   5 -10  -3 3375.68 281.493  28
  -5  10   2 3177.74 240.831  36
  -5 -10   2 2685.32 250.964   3
   5 -10  -2 2643.64 248.653   1
  -5  10   1 3261.29 239.200  36
   5 -10  -1 3014.07 261.275   1
  -5 -10   1 2875.04 227.693   2
  -5 -10   1 2901.84 255.428   3
   5 -10   0 1152.20 167.202   1
  -5 -10   0 1411.24 170.016   2
  -5 -10   0 1170.21 161.021   3
   5 -10   1 345.462 98.4448   1
  -5 -10  -1 539.167 104.516   3
  -5 -10  -1 371.884 89.0131   2
   5 -10   2 14437.7 636.266   1
  -5 -10  -2 15001.7 580.403   3
   5 -10   3 38711.2 1121.20   1
  -5 -10  -3 33515.2 1056.95   2
  -5 -10  -4 87.5018 63.2484  29
  -5 -10  -4 226.882 85.2491   2
   5 -10   4 87.3379 60.1489   1
  -5 -10  -5 353.606 112.649   2
   5 -10   5 330.718 98.4871   1
  -5 -10  -5 114.171 69.7664  29
  -5 -10  -6 694.031 74.5034   6
  -5  10  -6 724.477 79.0425   8
  -5  10  -6 577.592 67.5363  26
  -5 -10  -6 620.747 69.6952  26
   5 -10   6 596.523 137.144   1
  -5  10  -7 904.362 90.0272   8
  -5  10  -7 992.084 89.6906  26
  -5 -10  -7 1022.62 92.4455  26
  -5 -10  -7 937.625 89.4439   6
  -5  10  -8 10.6967 22.6300  17
  -5  10  -8 50.9656 32.9466   8
  -5  10  -8-22.7641 27.8806  26
  -5 -10  -8 20.4831 23.4953  26
  -5  10  -9 685.778 78.8902  17
  -5  10  -9 727.220 78.4727  26
  -5 -10  -9 483.086 65.0838  26
  -5 -10 -10 2424.65 140.052  18
  -5  10 -10 2278.34 140.860  17
  -5  10 -10 2296.84 137.575  26
  -5 -10 -10 2502.83 140.546  26
  -5 -10 -11 0.42241 22.4438  26
  -5 -10 -11 12.9175 25.2449  18
  -5  10 -11 33.8439 34.6547  17
  -5 -10 -12 1347.18 91.7678  18
  -5  10 -12 1392.40 96.1498  17
  -5  10 -13 1.15646 19.4197  21
  -5 -10 -13 0.39884 17.7636  18
  -5  10 -13-9.50126 17.3700  17
   5 -11 -13 6274.26 172.796  14
   5  11 -13 6383.43 174.718  24
   5 -11 -12-22.9331 24.2370   5
   5  11 -12 13.6062 24.3755  15
   5 -11 -12-14.5018 26.5169  14
   5  11 -12 3.87477 22.5283  24
   5 -11 -11 12.4755 26.4851   5
   5  11 -11 40.5039 30.1215  15
   5  11 -11 44.5541 28.6676  24
   5 -11 -10 69.1764 30.2317  19
   5  11 -10 58.9233 33.0097  15
   5 -11  -9 2631.55 152.578   5
   5 -11  -9 2754.91 154.709  19
   5 -11  -9 3057.88 166.180  25
   5  11  -9 2783.37 155.112  15
   5  11  -8 2873.91 157.426  21
   5 -11  -8 2816.00 157.197   5
   5 -11  -8 2736.58 152.751  19
   5  11  -8 2907.58 157.990  15
   5 -11  -8 2504.48 146.834  25
   5  11  -7 14284.4 401.891  21
   5 -11  -7 14646.2 402.812   5
   5 -11  -7 14233.4 395.983  19
   5  11  -7 14997.9 402.371  15
   5 -11  -7 13339.4 384.767  25
   5  11  -6 6642.78 245.942  21
   5 -11  -6 6112.96 232.984  19
   5  11  -6 6582.45 238.370  15
   5 -11  -6 6106.96 232.285  25
   5 -11  -6 6631.94 236.251  24
  -5 -11   5 772.379 159.912   3
   5  11  -5 1106.84 178.734  33
   5 -11  -5 900.659 164.868  28
  -5 -11   4 29.4027 43.9439   3
   5  11  -4 42.4658 64.7194  33
   5 -11  -4-7.91505 44.1619  28
  -5 -11   3 9.01191 60.7917   3
   5 -11  -3 44.9307 43.3483   1
   5 -11  -3-20.0619 50.2814  28
  -5  11   2 9363.12 445.579  36
   5 -11  -2 8670.40 461.640  28
  -5 -11   2 9142.56 494.928   3
   5 -11  -2 8574.55 462.126   1
   5 -11  -1 5560.46 367.454   1
  -5 -11   1 5268.69 361.674   3
  -5 -11   0 339.797 90.7074   3
   5 -11   0 185.244 73.0989   1
  -5 -11   0 396.041 98.7677   2
   5 -11   1 717.468 138.959   1
  -5 -11  -1 855.486 136.977   3
  -5 -11  -1 893.870 142.343   2
  -5 -11  -2 709.120 125.400   3
  -5 -11  -2 468.228 108.225   2
   5 -11   2 457.465 113.572   1
   5 -11   3 24250.0 889.274   1
  -5 -11  -3 26495.9 906.821   2
  -5 -11  -4 545.697 127.968  29
  -5 -11  -4 288.993 97.9056   2
   5 -11   4 523.132 122.314   1
   5 -11   5 7265.82 477.196   1
  -5 -11  -5 6581.27 457.215   2
  -5 -11  -5 7298.54 470.975  29
  -5 -11  -6 3389.23 169.750   6
  -5  11  -6 3270.90 173.446   8
  -5  11  -6 3384.96 165.009  17
  -5  11  -6 3490.19 171.607  26
  -5  11  -7 3696.88 187.712   8
  -5  11  -7 3911.53 184.533  17
  -5 -11  -7 3484.71 178.313   6
  -5 -11  -7 3448.15 174.233  26
  -5  11  -7 3658.41 178.966  26
  -5  11  -8 531.138 69.9250  17
  -5  11  -8 521.161 71.1922   8
  -5 -11  -8 521.516 66.5651  26
  -5  11  -8 435.441 62.4883  26
  -5  11  -9 2603.16 152.060   8
  -5  11  -9 2664.30 154.747  17
  -5  11  -9 2603.01 150.404  26
  -5 -11  -9 2556.52 147.731  26
  -5 -11 -10 147.286 41.3844  18
  -5  11 -10 88.0999 39.6309  17
  -5  11 -10 135.329 40.0494  26
  -5 -11 -10 115.558 36.3297  26
  -5 -11 -11 550.075 65.8892  18
  -5  11 -11 664.329 74.8089  17
  -5 -11 -11 612.694 63.6917  26
  -5 -11 -12-0.56979 21.4564  18
  -5  11 -12 64.7122 30.8728  17
  -5  11 -13 36.6128 20.6296  21
  -5 -11 -13 27.3478 18.5441  18
   5 -12 -13 2125.28 85.8041  14
   5 -12 -12 28.8782 21.1444   5
   5 -12 -12-12.4163 25.2769  14
   5  12 -12-24.4609 23.6927  24
   5 -12 -11 317.158 50.3792   5
   5  12 -11 301.866 49.7799  15
   5  12 -11 226.067 44.7543  24
   5 -12 -10 822.821 82.8247   5
   5 -12 -10 802.596 78.1638  19
   5  12 -10 895.643 85.7146  15
   5  12  -9 4140.45 189.093  21
   5 -12  -9 3862.40 186.217   5
   5 -12  -9 3741.86 182.318  19
   5  12  -9 4042.87 188.577  15
   5 -12  -9 4399.86 201.875  25
   5  12  -8 218.218 47.3378  21
   5 -12  -8 155.168 42.5630  19
   5 -12  -8 177.588 45.9356   5
   5  12  -8 289.124 52.9954  15
   5  12  -7 7632.94 278.780  21
   5 -12  -7 8028.72 280.543   5
   5 -12  -7 7883.88 274.626  19
   5  12  -7 8183.47 278.881  15
   5 -12  -7 7457.94 267.793  25
   5  12  -6 317.700 52.7669  21
   5 -12  -6 351.151 55.9424  19
   5  12  -6 292.653 52.9631  15
   5 -12  -6 224.486 42.6683  25
   5  12  -5 2379.71 139.322  21
   5  12  -5 2760.03 280.670  33
   5 -12  -5 2646.77 142.042  25
  -5 -12   5 2189.54 270.881   3
   5  12  -5 2650.29 140.735  15
  -5 -12   4 622.880 142.176   3
   5  12  -4 699.584 141.142  33
   5 -12  -4 607.391 132.735  28
   5 -12  -3 12934.8 591.001   1
   5 -12  -3 12782.0 605.883  28
  -5 -12   3 12241.3 620.867   3
  -5 -12   2 71.2612 50.6394   3
   5 -12  -2 110.406 63.7824   1
  -5  12   2 10.4546 46.1911  36
   5 -12  -2-24.9176 62.5152  28
  -5  12   1 7128.32 400.384  36
   5 -12  -1 7143.25 432.084   1
  -5 -12   1 7471.02 447.759   3
  -5 -12   0 14137.2 599.960   2
  -5 -12   0 15314.4 636.667   3
   5 -12   1 3055.02 286.201   1
  -5 -12  -1 3626.81 300.101   2
  -5 -12  -1 2868.65 260.274   3
   5 -12   2 3835.21 329.104   1
  -5 -12  -2 4497.25 342.353   2
  -5 -12  -3 626.594 137.467   2
   5 -12   3 721.265 147.363   1
  -5 -12  -4 120.011 68.7884  29
  -5 -12  -4 87.4281 64.7300   2
   5 -12   4 157.291 82.2992   1
  -5 -12  -5 120.702 66.7280  29
  -5  12  -5 47.8282 24.3728   8
  -5  12  -5 59.3512 27.4600  26
   5 -12   5 112.322 95.6172   1
  -5 -12  -5 103.245 35.1224   6
  -5  12  -6 4773.20 216.472   8
  -5  12  -6 4851.41 205.661  17
  -5  12  -6 4815.91 207.240  26
  -5 -12  -6 5184.14 215.346   6
  -5  12  -7 1484.18 118.862   8
  -5  12  -7 1560.30 114.563  17
  -5  12  -7 1544.73 115.329  26
  -5 -12  -7 1620.46 117.781  26
  -5 -12  -7 1612.21 118.942   6
  -5  12  -8 63.8175 39.2960  17
  -5  12  -8 28.3591 30.5259   8
  -5  12  -8 66.2499 34.4094  26
  -5 -12  -8 7.25382 29.3728  26
  -5  12  -9 3621.80 182.101   8
  -5  12  -9 3556.72 179.562  17
  -5  12  -9 3776.48 181.836  26
  -5 -12  -9 3502.24 174.710  26
  -5  12 -10 3356.98 170.762  17
  -5 -12 -10 3356.41 163.537  26
  -5  12 -10 3639.57 170.823  26
  -5 -12 -11 6491.15 226.007  18
  -5  12 -11 6703.58 236.341  17
  -5 -12 -11 6894.80 221.583  26
  -5  12 -12 35.4620 23.3924  21
  -5 -12 -12 85.7366 29.0142  18
  -5  12 -12 68.7427 29.6480  17
  -5  12 -13 544.700 48.2886  21
   5 -13 -12 40.4797 24.4025   5
   5 -13 -12-14.3163 22.6166  14
   5  13 -12 26.2530 22.5698  24
   5 -13 -11 55.6664 25.7302   5
   5  13 -11 42.1228 28.3241  24
   5 -13 -10 1941.00 122.921   5
   5 -13 -10 1935.51 121.613  19
   5  13 -10 2063.49 126.504  15
   5  13  -9 101.961 33.3344  21
   5 -13  -9 43.1910 28.7616  19
   5 -13  -9 29.0499 29.6662   5
   5  13  -9 27.4856 34.3025  15
   5  13  -8 187.666 46.7306  21
   5 -13  -8 197.704 46.4920  19
   5 -13  -8 205.283 48.9356   5
   5  13  -8 220.049 49.8906  15
   5  13  -7 332.736 57.1813  21
   5 -13  -7 327.457 57.1798  19
   5 -13  -7 371.837 60.0844   5
   5  13  -7 428.480 63.2921  15
   5  13  -6 39.8548 24.4628  21
   5 -13  -6 14.3860 27.0674  19
   5  13  -6 33.2956 23.8825  15
   5 -13  -6 90.6263 42.9530  25
   5  13  -5 3364.50 170.586  21
   5 -13  -5 3267.20 164.950  25
   5 -13  -5 3479.40 168.556  23
  -5 -13   4 33.5565 44.7474   3
   5  13  -4 57.3708 41.7469  33
   5 -13  -4 63.6739 63.4744  28
  -5 -13   3 571.744 134.486   3
   5 -13  -3 699.303 134.118   1
   5 -13  -3 600.796 131.200  28
   5 -13  -2 80.0658 59.3114   1
  -5 -13   2-7.22575 48.7941   3
  -5  13   2 63.6020 71.9839  36
   5 -13  -1 11277.3 562.878   1
  -5  13   1 12099.1 552.183  36
  -5 -13   1 10412.8 554.675   3
   5 -13   0 15019.4 665.563   1
  -5 -13   0 15633.7 650.327   2
  -5 -13   0 14475.4 648.683   3
   5 -13   1 3489.68 312.869   1
  -5 -13  -1 3834.15 316.869   2
  -5 -13  -1 4087.14 319.207   3
  -5 -13  -2 668.251 138.486   2
   5 -13   2 756.795 151.863   1
   5 -13   3 139.278 86.9301   1
  -5 -13  -3 286.852 101.777   2
   5 -13   4 2054.98 253.693   1
  -5 -13  -4 2635.35 278.530  29
  -5 -13  -4 2099.56 255.293   2
  -5  13  -5 1066.55 92.6053  26
  -5  13  -5 1005.19 87.6668  17
  -5  13  -5 866.803 88.1949   8
  -5 -13  -5 1049.89 92.4586   6
  -5  13  -6 4966.85 221.284   8
  -5  13  -6 5080.10 210.877  17
  -5  13  -6 4708.28 209.217  26
  -5 -13  -6 4943.51 214.317   6
  -5  13  -7 45.8040 29.6600  17
  -5  13  -7 88.1503 36.8142   8
  -5  13  -7 36.0005 24.4493  26
  -5 -13  -7 40.6573 29.4930  26
  -5 -13  -7 89.5610 35.4045   6
  -5  13  -8 1068.76 96.7120  26
  -5  13  -8 1017.91 99.0749   8
  -5  13  -8 879.451 89.4327  17
  -5 -13  -8 1040.11 94.9301  26
  -5  13  -9 7.68948 29.0146  17
  -5  13  -9 16.1391 26.7619   8
  -5  13  -9 52.1649 33.5902  26
  -5 -13  -9-33.5984 24.8113  26
  -5 -13 -10 188.229 43.9800  26
  -5 -13 -10 118.016 40.3726  18
  -5  13 -10 71.8907 36.1576  17
  -5 -13 -11 73.2669 29.6764  18
  -5  13 -11 32.2564 32.0044  17
  -5 -13 -11 13.5530 19.3145  26
  -5  13 -12 473.133 53.7242  21
  -5 -13 -12 399.070 46.2646  18
   5 -14 -12 834.632 62.8748   5
   5 -14 -12 708.094 54.1791  14
   5  14 -12 729.321 57.9217  24
   5 -14 -11 188.556 38.5107   5
   5  14 -11 214.300 44.1258  24
   5  14 -10 2877.61 143.022  21
   5 -14 -10 2487.48 137.535   5
   5 -14 -10 2517.18 138.752  19
   5  14 -10 2694.03 137.966  16
   5  14  -9 430.824 61.1101  21
   5 -14  -9 478.697 64.6579  19
   5 -14  -9 452.993 63.7115   5
   5  14  -8-22.1522 29.7474  21
   5 -14  -8-16.4506 33.6559  19
   5 -14  -8-4.71870 32.9786   5
   5  14  -7 7949.71 287.510  21
   5 -14  -7 8368.93 288.634   5
   5 -14  -7 7998.89 281.215  19
   5 -14  -7 8907.75 291.679  25
   5  14  -6 1178.75 101.602  21
   5 -14  -6 1785.07 129.424  25
   5  14  -5 200.235 43.6731  21
   5 -14  -5 217.262 46.4407  23
   5  14  -4 16872.5 447.695  21
   5 -14  -4 16898.1 433.420  25
   5 -14  -4 17281.1 446.705  23
   5 -14  -3 14216.2 672.910  28
  -5 -14   3 14091.5 703.680   3
   5 -14  -2 5830.19 406.390   1
  -5 -14   2 5876.38 435.399   3
  -5  14   1 4395.90 336.209  36
   5 -14  -1 4575.74 357.354   1
  -5 -14   1 4667.89 372.318   3
   5 -14   0 7078.33 453.942   1
  -5 -14   0 7766.66 455.533   2
  -5 -14   0 7580.08 468.777   3
   5 -14   1 2052.59 248.375   1
  -5 -14  -1 2807.19 279.385   2
  -5 -14  -1 2099.32 235.172   3
  -5 -14  -2 522.419 124.628   2
   5 -14   2 485.983 125.012   1
  -5 -14  -3 307.311 111.204  29
  -5 -14  -3 423.150 117.246   2
   5 -14   4 93.7914 35.1545  27
  -5  14  -4 8.27123 21.9431  17
  -5  14  -4-33.3383 30.4302   8
  -5  14  -4 19.7386 20.6758  26
  -5 -14  -4 57.8384 26.0598   6
  -5  14  -5 1361.25 103.516  17
  -5  14  -5 1306.66 110.066   8
  -5  14  -5 1260.66 102.598  26
  -5 -14  -5 1286.59 103.466   6
  -5  14  -6 1871.23 134.202   8
  -5  14  -6 1975.01 128.632  17
  -5  14  -6 1672.40 119.959  26
  -5 -14  -6 1966.89 132.432   6
  -5  14  -7 905.811 94.3128   8
  -5  14  -7 889.655 88.4470  17
  -5  14  -7 965.616 93.4238  26
  -5 -14  -7 960.878 92.5763  26
  -5 -14  -7 898.190 89.6816   6
  -5  14  -8-1.02689 27.2243  17
  -5  14  -8-9.64011 28.1896   8
  -5  14  -8-10.2595 32.1068  26
  -5 -14  -8-21.7302 25.8442  26
  -5  14  -9 117.763 40.2381  17
  -5  14  -9 115.360 39.2905   8
  -5 -14  -9 109.852 36.1370  26
  -5 -14 -10 4731.37 192.700  18
  -5  14 -10 5080.01 197.046   8
  -5  14 -10 4540.89 198.667  17
  -5 -14 -10 5204.39 197.315  26
  -5  14 -11 124.378 36.5036  21
  -5 -14 -11 148.322 35.3062  18
  -5  14 -11 196.184 42.5821  17
  -5 -14 -11 120.712 28.4978  26
  -5  14 -12-9.24889 20.6973  21
  -5 -14 -12 4.77848 16.9216  18
   5 -15 -12 1052.49 61.3495  14
   5  15 -12 969.591 62.1700  24
   5 -15 -11 2686.66 126.085   5
   5  15 -11 2756.49 127.570  24
   5  15 -10 1371.72 96.5774  21
   5 -15 -10 1322.82 96.8124   5
   5 -15 -10 1450.28 100.360  19
   5  15 -10 1473.98 99.1543  16
   5  15  -9 3145.24 160.319  21
   5 -15  -9 2870.91 153.466   5
   5 -15  -9 2933.27 154.504  19
   5  15  -8 3017.37 165.567  21
   5 -15  -8 3158.21 163.755   5
   5 -15  -8 3048.96 161.971  19
   5  15  -7 1935.29 132.917  21
   5 -15  -7 1953.56 129.854   5
   5 -15  -7 2092.74 133.923  19
   5  15  -6 46683.7 962.664  21
   5 -15  -6 47675.4 945.088  25
   5  15  -5 126.835 39.4002  21
   5 -15  -5 151.679 41.5193  23
   5  15  -4 840.756 84.7018  21
   5 -15  -4 987.860 89.8572  27
   5 -15  -4 1123.91 99.8967  25
   5 -15  -4 770.691 81.0142  23
   5  15  -4 724.996 74.5231  12
   5  15  -3 4161.00 190.504  21
   5 -15  -3 4008.32 186.294  27
   5 -15  -3 4018.30 179.227  25
  -5 -15   3 4360.27 192.382   7
   5 -15  -3 3838.09 182.309  23
   5  15  -3 4267.98 187.560  12
   5  15  -2 25350.3 593.432  21
  -5  15   2 26737.5 931.962  36
   5 -15  -2 26971.0 947.107   1
  -5 -15   2 26222.1 997.822   3
  -5 -15   1 630.300 133.543   3
  -5  15   1 437.167 108.294  36
   5 -15  -1 206.686 80.7148   1
   5 -15   0 5113.39 393.590   1
  -5 -15   0 5410.71 407.532   3
  -5 -15   0 5209.51 381.390   2
   5 -15   1 7224.95 477.335   1
  -5 -15  -1 7076.97 461.617   2
  -5 -15  -1 7546.55 472.390   3
  -5 -15  -2 50.4570 23.1212   7
   5 -15   2-12.4952 44.4486   1
   5 -15   3 242.231 47.6087  27
  -5  15  -3 244.466 48.3550   8
   5  15   3 237.127 40.9516  12
  -5 -15  -3 286.618 51.0021   6
  -5  15  -4 1028.95 89.3542  17
  -5  15  -4 1059.51 97.4260   8
  -5  15  -4 1106.36 94.2056  26
   5 -15   4 1109.21 95.5015  27
   5  15   4 1108.45 93.0304  12
  -5 -15  -4 1056.23 94.1808   6
  -5  15  -5 1438.24 116.217   8
  -5  15  -5 1322.90 105.603  17
  -5  15  -5 1338.53 110.127  26
  -5 -15  -5 1363.26 107.990   6
  -5  15  -6 447.105 64.0010  17
  -5  15  -6 401.606 65.5482   8
  -5  15  -6 462.585 63.3140  26
  -5 -15  -6 458.282 63.1168   6
  -5  15  -7-30.5467 27.7138  17
  -5  15  -7 22.7607 29.1375  26
  -5  15  -7 4.20803 29.6153   8
  -5 -15  -7 7.74871 24.6425  26
  -5 -15  -7 7.79918 30.6781   6
  -5  15  -8 441.462 66.9157  17
  -5  15  -8 379.336 60.7457   8
  -5 -15  -8 400.653 60.9596  26
  -5  15  -9 347.066 54.7029   8
  -5 -15  -9 478.931 62.0600  26
  -5  15 -10 751.785 75.0341  21
  -5  15 -10 814.251 75.0784   8
  -5  15 -10 778.323 79.0778  17
  -5 -15 -10 830.542 73.2840  26
  -5  15 -11-19.0229 26.6017  21
  -5 -15 -11 26.2987 23.8247  18
  -5  15 -12 4.68117 18.6111  21
  -5 -15 -12-13.5697 17.5987  18
   5 -16 -12 64.0083 18.1880  14
   5 -16 -11 123.046 30.0947   5
   5  16 -11 72.6902 27.7740  24
   5  16 -10 1679.68 103.870  21
   5 -16 -10 1387.19 95.2629   5
   5 -16 -10 1600.02 101.546  19
   5  16 -10 1430.71 96.9359  16
   5  16  -9 13186.3 367.439  21
   5 -16  -9 12490.9 354.486   5
   5 -16  -9 13025.3 359.990  19
   5  16  -8 79.8208 35.2295  21
   5 -16  -8 100.648 43.1210  19
   5 -16  -8 93.9244 34.4557   5
   5  16  -7 1874.62 131.307  21
   5 -16  -7 2104.11 132.972   5
   5 -16  -7 1917.86 127.423  19
   5  16  -6 2122.94 139.916  21
   5 -16  -6 2181.15 137.872   5
   5 -16  -6 2507.41 144.402  23
   5  16  -5 5772.09 238.607  21
   5 -16  -5 6067.86 237.908  23
   5  16  -4 6606.95 258.020  21
   5 -16  -4 6966.54 257.437  27
   5 -16  -4 6590.83 254.170  23
   5  16  -4 7275.51 258.113  12
   5  16  -3 6948.80 258.865  21
  -5 -16   3 7496.71 266.341   7
   5 -16  -3 7017.55 260.492  23
   5  16  -3 6797.28 253.583  12
   5 -16  -3 7125.28 261.510  27
   5  16  -2 831.539 88.3695  16
   5 -16  -2 706.657 78.6041  27
  -5 -16   2 731.642 81.0187   7
   5 -16  -2 683.857 75.2847  23
  -5  16   1 7769.55 487.688  36
   5 -16  -1 8106.57 505.344   1
   5  16  -1 8540.10 282.597  16
   5 -16  -1 8375.53 287.879  27
  -5 -16   1 7935.98 279.938   7
   5 -16  -1 8394.08 286.800  23
  -5 -16   0 153.430 79.1476   3
   5 -16   0-12.4166 50.7025   1
   5 -16   0 167.205 42.0719  27
  -5 -16   0 119.428 36.3352   7
   5 -16   0 122.014 33.8374  23
   5 -16   1 1290.40 105.846  27
  -5 -16  -1 1319.51 103.821   7
  -5 -16  -1 1352.33 204.945   2
   5 -16   1 1217.25 100.080  23
  -5  16  -2 2057.81 133.384   8
   5 -16   2 2283.77 142.085  27
  -5 -16  -2 1903.82 127.396   7
   5 -16   2 2048.39 131.331  23
  -5 -16  -2 2362.85 134.640   6
   5 -16   3-19.3823 31.2989  27
  -5  16  -3 5.04066 24.9565   8
   5 -16   3-3.94957 24.8130  23
   5  16   3 18.4603 25.9268  12
  -5 -16  -3 12.9778 24.1506   6
  -5  16  -4 2520.68 142.181  17
  -5  16  -4 2283.61 146.930   8
   5  16   4 2544.23 146.500  12
   5 -16   4 2795.70 157.377  27
  -5 -16  -4 2603.44 149.502   6
  -5  16  -5 8942.50 314.207   8
  -5  16  -5 9196.22 302.137  17
  -5 -16  -5 9219.11 308.231   6
  -5  16  -6 3482.64 174.997  17
  -5 -16  -6 3548.19 180.437   6
  -5  16  -7 311.018 56.3086  17
  -5  16  -7 334.878 58.1869   8
  -5 -16  -7 241.340 49.6708  26
  -5 -16  -7 249.685 48.8978   6
  -5  16  -8 1123.77 102.580   8
  -5  16  -8 1156.02 99.1961  17
  -5 -16  -8 1066.69 94.3567  26
  -5  16  -9 4138.51 184.000  21
  -5  16  -9 4214.15 188.461   8
  -5  16  -9 3874.38 182.656  17
  -5 -16  -9 4150.70 180.981  26
  -5  16 -10 306.054 50.4457  21
  -5 -16 -10 297.889 45.7974  18
  -5  16 -10 277.587 46.4428   8
  -5 -16 -10 294.216 44.4757  26
  -5  16 -11 173.311 33.6134  21
  -5 -16 -11 170.306 34.1375  18
   5 -17 -11 388.767 41.6351   5
   5  17 -11 452.871 48.3615  24
   5  17 -10 389.861 49.5799  21
   5 -17 -10 290.919 42.4373   5
   5 -17 -10 416.041 54.2676  19
   5  17 -10 420.681 52.5589  16
   5  17  -9 776.692 78.4206  21
   5 -17  -9 681.246 71.4783   5
   5 -17  -9 862.181 81.0406  19
   5  17  -9 782.093 80.1942  16
   5  17  -8 9777.29 315.519  21
   5 -17  -8 10268.3 309.490   5
   5 -17  -8 9516.58 303.852  19
   5  17  -7 182.616 44.7166  21
   5 -17  -7 142.125 39.3264  19
   5 -17  -7 221.098 47.5095   5
   5  17  -6 1328.80 110.552  21
   5 -17  -6 1594.74 114.816   5
   5 -17  -6 1432.86 107.387  23
   5  17  -5 17884.7 480.151  21
   5 -17  -5 18751.7 471.402  27
   5 -17  -5 17742.2 470.339  23
   5  17  -4 352.778 58.7709  21
   5 -17  -4 368.003 58.0837  27
  -5 -17   4 380.315 59.3131   7
   5 -17  -4 373.958 56.8388  23
   5  17  -4 284.673 51.5795  12
   5  17  -3 104.319 38.7127  21
   5 -17  -3 32.8766 27.5541  27
  -5 -17   3 157.405 42.5063   7
   5 -17  -3-8.72973 32.6595  23
   5  17  -3 15.8887 31.3790  12
   5  17  -2 80.6836 33.6809  16
  -5 -17   2 80.9367 31.9968   7
   5 -17  -2 58.1433 28.8710  27
   5 -17  -2 33.1084 25.7290  23
   5  17  -1 3985.70 187.833  16
   5 -17  -1 4177.89 197.722  27
  -5 -17   1 4622.31 205.562   7
   5 -17  -1 4445.92 201.813  23
   5  17   0 406.386 55.6743  16
   5 -17   0 443.827 65.0283  27
  -5 -17   0 447.480 62.8657   7
   5 -17   0 485.126 64.0093  23
  -5  17  -1 1728.97 119.509   8
   5 -17   1 1934.26 131.884  27
   5 -17   1 1931.27 130.073  23
  -5 -17  -1 1900.71 127.593   7
   5  17   1 2111.57 125.990  16
   5 -17   2 49.7320 33.6118  27
  -5  17  -2 101.494 35.4454   8
  -5 -17  -2 73.6032 31.6811   7
   5 -17   2 61.5542 31.2144  23
  -5 -17  -2 103.197 35.0061   6
   5 -17   3 12.7559 30.8954  27
  -5  17  -3-5.83870 32.5208   8
   5  17   3-6.62393 27.6992  12
  -5 -17  -3-1.32354 23.3254   6
  -5  17  -4 7698.43 285.990   8
   5 -17   4 7344.43 273.590  27
   5  17   4 7559.35 271.237  12
  -5 -17  -4 7735.47 277.131   6
  -5  17  -5 2992.73 171.277   8
  -5 -17  -5 2825.67 160.432   6
  -5  17  -6 2285.42 149.185   8
  -5  17  -6 2532.92 148.066  17
  -5 -17  -6 2589.99 152.025   6
  -5  17  -7 323.384 56.1908  17
  -5  17  -7 338.920 60.2767   8
  -5 -17  -7 305.451 55.8028  26
  -5 -17  -7 352.317 60.4072   6
  -5  17  -8 4218.21 186.376  21
  -5  17  -8 4092.40 193.748   8
  -5 -17  -8 4047.01 184.336  26
  -5  17  -9 13791.4 372.468  21
  -5  17  -9 14010.4 381.135   8
  -5 -17  -9 14100.6 370.123  26
  -5  17 -10 118.472 34.5752  21
  -5 -17 -10 123.037 35.4419  18
  -5 -17 -10 54.4519 25.8698  26
  -5  17 -10 59.8852 26.1924   8
  -5  17 -11 388.755 44.2211  21
  -5 -17 -11 376.698 42.5340  18
   5 -18 -11 1053.96 63.1752   5
   5  18 -11 973.190 63.2972  24
   5 -18 -10 20.8136 18.9423   5
   5 -18 -10 39.0756 25.0960  19
   5  18 -10 21.3562 22.1459  16
   5  18  -9 961.365 82.8139  21
   5 -18  -9 899.821 75.9752   5
   5 -18  -9 963.075 82.8273  19
   5  18  -9 921.432 81.7375  16
   5  18  -8 6736.60 248.219  21
   5 -18  -8 6728.61 235.238   5
   5 -18  -8 6667.12 240.439  19
   5  18  -7 481.760 68.0645  21
   5 -18  -7 507.391 64.8685  19
   5 -18  -7 441.911 57.7941   5
   5  18  -6-12.3546 34.4531  21
   5 -18  -6-19.1893 29.5083   5
   5  18  -5 945.376 93.5031  21
   5 -18  -5 915.312 85.2883  27
  -5 -18   5 911.027 87.3898   7
   5 -18  -5 839.018 82.0094  23
   5  18  -4 1078.96 99.9722  21
   5 -18  -4 1128.65 98.6017  27
  -5 -18   4 1268.24 107.027   7
   5 -18  -4 1064.33 96.1874  23
   5  18  -4 1268.63 101.516  12
   5  18  -3 857.524 87.4801  21
   5 -18  -3 728.353 81.6880  27
  -5 -18   3 790.721 84.3500   7
   5 -18  -3 729.371 80.5765  23
   5  18  -3 753.922 81.6532  12
  -5 -18   2 2396.88 147.863   7
   5  18  -2 2337.30 142.357  16
   5 -18  -2 2440.48 149.361  27
   5 -18  -2 2286.62 143.831  23
   5  18  -2 2391.44 145.514  12
   5  18  -1 1565.67 114.545  16
   5 -18  -1 1422.54 113.468  27
  -5 -18   1 1440.02 113.888   7
   5 -18  -1 1337.33 109.538  23
   5  18   0 3699.07 177.497  16
  -5 -18   0 4039.62 191.405   7
   5 -18   0 3654.81 186.334  27
   5 -18   0 3734.16 186.064  23
  -5  18  -1 2562.70 148.848   8
  -5 -18  -1 2634.37 153.127   7
   5 -18   1 2646.07 162.993  27
   5 -18   1 2909.53 163.177  23
  -5  18  -2 3585.86 183.084   8
   5 -18   2 3535.15 184.605  27
  -5 -18  -2 3230.60 173.905   7
  -5 -18  -2 3975.57 182.283   6
   5 -18   3 12.5732 26.7199  27
  -5  18  -3-1.57945 28.2079   8
   5  18   3 39.2615 33.8349  12
  -5 -18  -3 21.4481 23.8511   6
  -5  18  -4 859.285 90.8121   8
   5 -18   4 840.014 88.9965  27
   5  18   4 983.603 90.9141  12
  -5 -18  -4 850.517 86.0039   6
  -5  18  -5 4790.22 219.643   8
  -5 -18  -5 4822.12 213.063   6
  -5  18  -6 1632.73 124.461   8
  -5 -18  -6 1837.82 128.598   6
  -5  18  -7 669.293 74.0311  21
  -5  18  -7 618.661 79.2521   8
  -5 -18  -7 587.458 72.6136  26
  -5 -18  -7 614.590 75.5288   6
  -5  18  -8 2493.78 136.549  21
  -5  18  -8 2812.90 155.138   8
  -5 -18  -8 2607.22 141.734  26
  -5  18  -9 170.668 40.5837  21
  -5  18  -9 201.255 48.0357   8
  -5 -18  -9 145.942 36.1606  26
  -5  18 -10 559.196 56.5582  21
  -5  18 -10 563.895 56.1234   8
  -5 -18 -10 590.407 56.0258  18
  -5 -18 -10 660.501 59.1198  26
  -5  18 -11 60.5623 21.1677  21
  -5 -18 -11 81.8804 21.3112  18
   5 -19 -10 489.603 46.9410   5
   5 -19 -10 441.880 47.4278  19
   5  19 -10 420.909 47.4878  16
   5  19  -9 346.632 49.5973  21
   5  19  -9 228.060 42.2411  16
   5 -19  -9 220.818 39.3498   5
   5 -19  -9 311.597 48.4450  19
   5  19  -8 5738.80 221.289  21
   5 -19  -8 5919.63 210.081   5
   5 -19  -8 5622.66 211.671  19
   5  19  -8 5618.94 220.384  16
   5  19  -7 117.738 35.9036  21
   5 -19  -7 71.0873 29.3184  19
   5 -19  -7 52.0527 26.7415   5
   5  19  -6 840.391 85.5869  21
   5 -19  -6 830.588 79.7486   5
   5 -19  -6 818.545 83.5739  19
   5 -19  -5 91.0471 32.7389  27
   5  19  -5 89.1649 34.1385  21
   5 -19  -5 94.4287 30.7130   5
  -5 -19   5 137.216 38.5421   7
   5  19  -4 1978.75 134.350  21
   5 -19  -4 1912.79 128.012  27
  -5 -19   4 2102.21 136.608   7
   5  19  -4 2047.91 130.769  12
   5 -19  -3 500.822 69.1405  27
   5  19  -3 580.368 73.1906  16
  -5 -19   3 493.806 69.4495   7
   5 -19  -3 488.024 64.9381  23
   5  19  -3 482.620 66.7462  12
   5  19  -2 10677.6 337.156  16
   5 -19  -2 10393.9 339.746  27
  -5 -19   2 11189.1 348.110   7
   5 -19  -2 10643.6 341.139  23
   5  19  -2 10286.4 335.795  12
   5  19  -1 2850.85 156.566  16
   5 -19  -1 2653.77 157.152  27
  -5 -19   1 2313.28 145.923   7
   5 -19  -1 2660.20 157.070  23
  -5 -19   0 2657.92 156.673   7
   5  19   0 3023.20 158.765  16
   5 -19   0 2784.62 162.837  27
   5 -19   0 3018.83 165.558  23
  -5  19  -1 2888.44 157.771   8
   5 -19   1 2858.96 163.084  27
  -5 -19  -1 2909.56 163.264   7
  -5  19  -2 34.4406 26.4880   8
  -5 -19  -2-35.5083 39.7356   7
   5 -19   2 62.3755 29.1257  27
  -5 -19  -2 58.9948 26.4875   6
  -5  19  -3 9067.39 308.325   8
   5 -19   3 8768.44 305.571  27
   5  19   3 8174.14 291.997  12
  -5 -19  -3 8789.44 297.493   6
  -5  19  -4 660.052 81.6182   8
   5 -19   4 647.295 77.0089  27
   5  19   4 701.088 78.4913  12
  -5 -19  -4 578.787 70.9388   6
  -5  19  -5 3519.12 185.089   8
  -5 -19  -5 3652.97 180.774   6
  -5  19  -6 2165.55 143.817   8
  -5 -19  -6 2224.82 139.528   6
  -5  19  -7 72.5705 26.3805  21
  -5 -19  -7 124.164 39.5309  26
  -5  19  -7 117.202 46.3144   8
  -5 -19  -7 88.9305 31.0686   6
  -5  19  -8 5018.55 193.298  21
  -5  19  -8 5089.85 208.238   8
  -5 -19  -8 4879.38 195.636  26
  -5  19  -9 16.1934 20.5708  21
  -5  19  -9-5.01483 23.9757   8
  -5 -19  -9 12.3562 20.8341  26
  -5  19 -10 204.840 33.4246  21
  -5 -19 -10 241.041 36.9650  18
  -5 -19 -10 249.494 34.2001  26
  -5  19 -10 214.589 34.5789   8
   5 -20 -10 137.293 23.0327   5
   5  20 -10 140.410 28.2281  16
   5  20 -10 143.570 28.0870  24
   5 -20  -9 1.82087 18.1927   5
   5 -20  -9 17.9242 23.0154  19
   5  20  -9 41.4877 28.9062  16
   5  20  -8 1847.79 115.225  21
   5 -20  -8 1664.20 99.8303   5
   5 -20  -8 1818.06 109.924  19
   5  20  -8 1776.12 114.854  16
   5  20  -7 951.088 88.1901  21
   5 -20  -7 908.786 79.2141   5
   5 -20  -7 907.772 82.4833  19
   5  20  -7 930.130 90.6533  16
   5  20  -6 155.725 46.7509  21
   5 -20  -6 152.817 38.5275  19
   5 -20  -6 146.263 36.8531   5
   5  20  -5 85.2055 37.8686  21
   5 -20  -5 40.6377 24.9584   5
   5 -20  -5-2.99289 22.7857  27
   5  20  -5 2.37947 28.2958  16
  -5 -20   5 41.0561 28.2298   7
   5  20  -4 59.3926 31.3485  16
  -5 -20   4 1.31303 25.8870   7
   5 -20  -4 29.3342 28.6602  27
   5  20  -4 13.9745 22.3189  12
   5 -20  -3 41.7591 31.1548  27
  -5 -20   3 57.2716 27.2851   7
   5  20  -3 4.55030 30.8160  12
   5  20  -3 40.9367 27.0504  16
   5  20  -2 1344.07 107.420  16
   5 -20  -2 1229.91 106.998  27
  -5 -20   2 1367.13 110.397   7
   5  20  -2 1164.88 101.509  12
   5  20  -1 2709.50 152.480  16
   5 -20  -1 2408.35 148.836  27
  -5 -20   1 2646.37 155.798   7
   5  20  -1 2546.16 153.212  12
   5  20   0 1981.89 126.077  16
   5 -20   0 1736.89 128.018  27
  -5 -20   0 1615.12 123.476   7
   5 -20   1 20.9635 32.1263  27
  -5  20  -1 14.5693 25.4241   8
  -5 -20  -1-32.9363 35.0535   7
   5 -20   2 404.056 64.6170  27
  -5  20  -2 392.568 63.8796   8
   5  20   2 381.866 61.5472  12
  -5 -20  -2 462.400 61.4813   6
  -5  20  -3 2037.44 136.362   8
   5 -20   3 2162.64 139.977  27
   5  20   3 1972.53 133.567  12
  -5 -20  -3 1950.12 128.461   6
  -5  20  -4 662.360 78.1067   8
   5 -20   4 749.661 79.5726  27
   5  20   4 730.293 79.8686  12
  -5 -20  -4 661.410 76.1605   6
  -5  20  -5 831.030 88.5195   8
   5  20   5 841.964 79.8827  12
  -5 -20  -5 820.819 85.0518   6
  -5  20  -6 11.4273 33.3615   8
  -5 -20  -6 15.1029 29.1253   6
  -5 -20  -7 256.045 47.3857  26
  -5  20  -7 216.908 50.1632   8
  -5 -20  -7 223.467 43.8322   6
  -5  20  -8 867.363 71.2020  21
  -5  20  -8 771.887 77.2944   8
  -5 -20  -8 679.792 68.5206  26
  -5  20  -9 20.7843 21.6409  21
  -5  20  -9 62.3476 25.3064   8
  -5 -20  -9 49.2647 24.5161  26
  -5  20 -10 730.788 53.0542  21
  -5  20 -10 816.629 57.5098   8
  -5 -20 -10 712.430 55.3863  18
   5  21 -10 81.6424 21.9038  24
   5 -21  -9 286.465 34.5739   5
   5 -21  -9 293.914 40.2755  19
   5  21  -9 385.641 47.2262  16
   5 -21  -8-3.58285 17.5335   5
   5 -21  -8-35.8520 29.1985  19
   5  21  -8-10.5225 27.1009  16
   5  21  -7 327.872 56.6160  16
   5 -21  -7 294.331 48.5167  19
   5 -21  -7 313.190 44.9635   5
   5 -21  -6 35.8088 32.4535  19
   5 -21  -6 57.5853 23.0296   5
   5  21  -6 51.4066 31.6611  16
   5 -21  -5 3278.67 155.197   5
   5  21  -5 3229.37 170.757  16
  -5 -21   5 3456.35 167.705   7
   5  21  -4 872.967 88.6145  16
   5 -21  -4 832.885 84.0409  27
  -5 -21   4 832.788 84.7190   7
   5  21  -4 881.535 82.2968  12
   5 -21  -3 556.193 70.6030  27
   5  21  -3 573.350 70.7328  16
  -5 -21   3 554.064 71.1684   7
   5  21  -3 554.245 69.9800  12
   5 -21  -2-43.1110 39.8725  27
   5  21  -2 30.6245 32.5847  16
  -5 -21   2-17.4081 35.7085   7
   5  21  -2-11.8656 36.7704  12
   5 -21  -1 130.247 41.6294  27
   5  21  -1 115.262 35.6037  16
  -5 -21   1 120.262 38.0162   7
   5  21  -1 155.251 43.1034  12
   5  21   0 1840.76 119.764  16
  -5 -21   0 1637.75 122.359   7
   5  21   0 1651.43 122.441  12
   5 -21   0 1593.25 122.627  27
   5 -21   1 255.597 57.7004  27
  -5 -21  -1 277.000 54.4704   7
   5  21   1 220.754 51.5004  12
  -5  21  -2 6190.58 242.152   8
   5 -21   2 5825.17 242.348  27
   5  21   2 5972.14 243.096  12
  -5 -21  -2 6511.81 241.604   6
  -5  21  -3 944.357 92.0821   8
   5 -21   3 965.999 93.5103  27
   5  21   3 1029.30 95.2195  12
  -5 -21  -3 1067.66 93.0193   6
  -5  21  -4 5509.71 229.298   8
   5 -21   4 5545.47 222.983  27
   5  21   4 5371.90 218.862  12
  -5 -21  -4 5257.14 218.932   6
  -5  21  -5 36.5932 32.9137   8
   5  21   5 4.05846 28.9949  12
  -5 -21  -5 93.2485 32.4932   6
  -5  21  -6 3958.90 187.371   8
  -5 -21  -6 3784.73 177.050   6
  -5 -21  -7 97.8989 36.7639  26
  -5 -21  -7 58.3785 31.9098   6
  -5  21  -8 16.2841 28.5574   8
  -5 -21  -8 3.84239 23.5050  26
  -5  21  -9 680.863 53.0092  21
  -5  21  -9 865.648 66.8830   8
  -5 -21  -9 781.451 59.3207  26
   5 -22  -9-20.1231 19.0998  19
   5  22  -9 7.92935 17.7893  16
   5 -22  -8 520.808 54.7592  19
   5  22  -8 556.749 58.4066  16
   5 -22  -7 1533.79 89.2526   5
   5 -22  -7 1563.90 98.8498  19
   5  22  -7 1654.74 107.556  16
   5 -22  -6-22.6245 35.1136  19
   5  22  -6 9.36589 28.0397  16
  -5  22   5-27.4070 34.0681  11
   5  22  -5 28.7216 32.7715  16
  -5 -22   5-9.30739 24.5578   7
   5 -22  -4 229.282 45.7518  27
   5  22  -4 302.197 52.1672  16
  -5 -22   4 325.862 55.8745   7
   5  22  -4 278.678 48.6497  12
   5  22  -3 1715.13 119.245  16
  -5 -22   3 1686.63 120.133   7
   5 -22  -3 1745.72 123.264  27
   5  22  -3 1585.77 115.475  12
   5 -22  -2 53.7943 31.6116  10
   5 -22  -2 60.5444 36.8324  27
   5  22  -2 80.8415 34.6173  16
  -5 -22   2 27.0669 28.5260   7
   5  22  -2 30.8237 29.6616  12
   5  22  -1 18.2168 23.3170  16
   5 -22  -1 48.3024 36.2249  27
  -5 -22   1 92.8391 34.9510   7
   5  22  -1 70.6765 39.2302  12
   5 -22   0 441.783 66.4230  27
  -5 -22   0 426.063 63.1877   7
   5  22   0 367.077 61.1106  12
  -5 -22  -1-7.95774 28.3815   7
   5  22   1 24.6350 35.4241  12
   5 -22   1 55.8143 39.9937  27
  -5  22  -2 4750.77 206.495   8
   5 -22   2 4805.66 212.773  27
   5  22   2 4735.80 210.374  12
  -5  22  -3 1134.20 97.7048   8
   5 -22   3 1173.94 100.391  27
   5  22   3 1165.72 98.6289  12
  -5 -22  -3 1313.89 100.804   6
  -5  22  -4 1796.09 123.639   8
   5 -22   4 1807.21 119.420  27
   5  22   4 1816.22 119.873  12
  -5 -22  -4 1801.52 118.996   6
  -5  22  -4 1745.38 114.788  11
  -5 -22  -5 627.548 72.5103   6
  -5  22  -5 512.451 68.1555   8
   5  22   5 581.247 62.6272  12
  -5  22  -6 87.3008 37.7998   8
  -5 -22  -6 99.8803 36.6844   6
  -5  22  -7 1553.98 104.976   8
  -5 -22  -7 1585.23 101.221  26
  -5 -22  -8 13.4809 19.3047  26
  -5  22  -8-16.1113 24.5950   8
  -5  22  -9 752.017 58.9576   8
  -5 -22  -9 876.488 57.5409  26
   5 -23  -8 4.43154 17.3173  19
   5  23  -8-7.25999 19.2217  16
   5 -23  -7 2780.28 127.013  19
   5  23  -7 2789.85 134.186  16
   5 -23  -6 735.401 69.6305  19
   5  23  -6 856.088 78.6226  16
  -5  23   5-17.0851 22.7042  11
  -5 -23   5 33.0026 26.6491   7
   5  23  -5-22.1971 26.7291  16
  -5  23   4 146.020 38.1674  11
   5  23  -4 260.007 50.4709  16
  -5 -23   4 278.330 49.7409   7
   5  23  -4 137.457 38.4376  12
   5  23  -3 345.953 56.0892  16
   5 -23  -3 410.063 59.8817  27
  -5 -23   3 413.417 62.5824   7
   5  23  -3 378.658 56.9703  12
   5 -23  -2 611.411 66.1028  10
   5  23  -2 595.986 67.4196  16
   5 -23  -2 567.815 69.7756  27
  -5 -23   2 587.824 71.4402   7
   5  23  -2 537.057 69.1550  12
   5  23  -1 2562.56 138.541  16
   5 -23  -1 2191.32 139.195  27
  -5 -23   1 2604.68 153.133   7
   5  23  -1 2270.86 143.064  12
   5 -23   0 223.837 45.0509  27
  -5 -23   0 218.766 50.7037   7
   5  23   0 173.672 45.7215  12
   5 -23   1 935.730 90.2053  27
   5  23   1 938.984 92.4892  12
  -5  23  -2 928.557 84.7443   8
   5 -23   2 900.616 86.6313  27
   5  23   2 884.677 87.6090  12
   5 -23   3 3543.18 170.784  27
  -5  23  -3 3611.65 171.107   8
   5  23   3 3720.71 175.084  12
  -5 -23  -3 3635.55 168.757   6
  -5  23  -3 3635.81 174.017  11
  -5  23  -4 313.137 49.6727  11
   5 -23   4 332.276 52.8938  27
  -5  23  -4 309.349 55.5135   8
   5  23   4 313.902 51.0204  12
  -5 -23  -4 294.676 48.0984   6
  -5  23  -5 1563.30 110.301   8
  -5 -23  -5 1499.40 103.275   6
   5  23   5 1509.41 97.5525  12
  -5  23  -6 329.377 51.9641   8
  -5 -23  -6 401.840 54.9512  26
  -5 -23  -6 250.967 44.8196   6
  -5  23  -7 3225.28 146.089   8
  -5 -23  -7 3216.48 139.169  26
  -5  23  -8 657.427 59.1835   8
  -5 -23  -8 542.740 50.4081  26
   5 -24  -8 520.094 43.5942  19
   5  24  -8 498.620 46.1713  16
   5 -24  -7 139.369 30.6335  19
   5  24  -7 79.7949 27.1262  16
   5 -24  -6 2737.76 128.019  19
   5  24  -6 2912.11 136.213  16
  -5  24   5 8.76356 21.0283  11
   5 -24  -5-27.6226 25.1817  19
   5  24  -5 41.9816 29.5255  16
  -5 -24   5 32.8182 26.5200   7
   5  24  -4 3147.29 151.402  16
  -5 -24   4 3188.82 152.564   7
   5  24  -4 3183.85 146.961  12
  -5  24   4 2799.67 139.927  11
   5  24  -3 1704.32 110.279  16
  -5 -24   3 1589.01 111.327   7
   5  24  -3 1555.15 106.552  12
  -5  24   3 1490.82 106.631  11
   5 -24  -2 45.0086 25.2009  10
   5  24  -2 46.3180 29.5150  16
   5 -24  -2 56.4408 34.8738  27
  -5 -24   2 43.0855 31.0599   7
   5  24  -2-10.2096 27.7420  12
   5 -24  -1 42.4216 29.3748  10
   5 -24  -1-6.38176 31.2649  27
  -5 -24   1-15.7388 27.2104   7
   5  24  -1-13.2397 31.7438  12
  -5 -24   0 2513.78 147.625   7
   5  24   0 2463.72 145.949  12
   5 -24   1 299.641 54.8130  27
   5  24   1 344.614 56.9141  12
  -5  24  -2 143.180 40.5044  11
  -5  24  -2 183.185 38.0569   8
   5 -24   2 194.350 43.6964  27
   5  24   2 182.094 46.6241  12
  -5  24  -3 681.465 69.6620   8
   5 -24   3 797.815 75.8890  27
  -5 -24  -3 844.548 75.8337   6
   5  24   3 690.450 72.1075  12
  -5  24  -3 776.076 76.5417  11
  -5  24  -4 258.971 42.2212  11
   5 -24   4 277.302 46.4352  27
  -5  24  -4 247.426 49.6909   8
   5  24   4 211.637 39.0543  12
  -5 -24  -4 296.693 46.5645   6
  -5  24  -5 138.875 36.3523   8
  -5 -24  -5 136.788 35.5013   6
  -5  24  -6 2911.96 138.503   8
  -5 -24  -6 3006.62 136.556  26
  -5  24  -7 1078.74 78.0046   8
  -5 -24  -7 1077.39 73.4210  26
  -5  24  -8 1235.66 73.3680   8
  -5 -24  -8 1222.34 67.2159  26
   5 -25  -7 688.607 52.5482  19
   5  25  -7 674.120 54.6649  16
   5 -25  -6 2014.04 100.555  19
   5  25  -6 1967.87 102.526  16
   5 -25  -5 3193.70 137.821  19
   5  25  -5 3267.71 141.293  16
  -5 -25   5 3169.77 135.173   7
  -5  25   5 3132.72 128.162  11
  -5  25   4 94.3268 30.2943  11
   5  25  -4 135.263 35.0792  16
  -5 -25   4 94.8076 28.9420   7
   5  25  -4 77.8023 25.2267  12
  -5  25   3 421.962 56.5873  11
   5  25  -3 426.341 54.5692  16
  -5 -25   3 396.192 56.1303   7
   5  25  -3 395.417 54.7546  12
  -5  25   2-16.9252 31.0694  11
   5 -25  -2 11.6034 20.9555  10
   5  25  -2 28.6418 22.1785  16
  -5 -25   2 29.7911 28.3143   7
   5  25  -2 8.43387 28.1411  12
  -5  25   1-5.48053 32.5224  11
   5 -25  -1 0.61620 21.5195  10
   5 -25  -1-41.2000 35.5556  27
  -5 -25   1 5.74047 26.2227   7
   5  25  -1 3.46484 30.8601  12
   5 -25   0 3013.18 145.178  10
   5 -25   0 2995.78 153.113  27
   5  25   0 2936.27 153.342  12
  -5  25   0 3101.93 156.155  11
  -5  25  -1 62.2104 27.8199  11
   5 -25   1 179.785 42.9236  27
   5  25   1 101.420 40.0060  12
  -5  25  -2 449.722 58.6897  11
   5 -25   2 428.396 57.5492  27
   5  25   2 412.590 60.5266  12
  -5  25  -3 643.727 65.2995   8
   5 -25   3 625.017 64.5160  27
  -5 -25  -3 593.182 59.3192   6
   5  25   3 569.506 64.3714  12
  -5  25  -3 603.060 63.5405  11
  -5  25  -4 2407.27 124.812   8
  -5 -25  -4 2461.70 121.473   6
   5  25   4 2350.92 119.319  12
  -5 -25  -5 321.395 43.0463   6
  -5  25  -5 368.688 50.2220   8
  -5  25  -6 4627.34 166.817   8
  -5 -25  -6 4694.85 164.362  26
  -5  25  -7 41.4966 20.8649   8
  -5 -25  -7 7.69269 14.8753  26
   5 -26  -6 79.4417 22.6574  19
   5  26  -6 96.5868 25.0344  16
   5 -26  -5 1007.44 70.6336  19
   5  26  -5 1109.85 73.3210  16
   5  26  -4 1320.35 83.4575  16
  -5 -26   4 1479.66 90.1885   7
   5  26  -4 1369.72 81.6556  12
  -5  26   4 1318.52 82.4497  11
   5  26  -3 5493.21 186.540  16
  -5 -26   3 5414.27 196.475   7
   5  26  -3 5800.58 195.597  12
  -5  26   3 5483.74 192.734  11
   5 -26  -2 820.046 66.5575  10
  -5 -26   2 857.758 75.9949   7
   5  26  -2 704.583 68.4469  12
  -5  26   2 733.808 71.1517  11
  -5  26   1 77.8391 33.0626  11
   5 -26  -1 65.1483 26.9483  10
   5  26  -1 105.587 33.7724  12
  -5  26   0 44.1572 26.8444  11
   5 -26   0-8.08593 22.6398  10
   5  26   0 21.7386 27.2963  12
  -5  26  -1-30.3324 32.2061  11
   5  26   1 9.00669 26.2000  12
  -5  26  -2 114.405 32.9637  11
   5  26   2 70.6100 29.5950  12
  -5  26  -3 300.175 43.7972  11
  -5  26  -3 335.491 42.8273   8
   5  26   3 367.279 48.6046  12
  -5  26  -4 179.218 34.6007   8
  -5 -26  -4 236.158 35.8990   6
   5  26   4 202.693 33.9895  12
  -5  26  -5 21.0168 19.6096   8
  -5 -26  -5 60.1075 20.9090  26
  -5  26  -6 394.009 42.6495   8
  -5 -26  -6 355.957 40.2700  26
   5 -27  -5 506.826 45.7445  19
  -5  27   4 139.343 27.2156  11
   5 -27  -4 91.6468 24.9999  19
   5  27  -4 163.421 27.8452  16
  -5  27   3 15.9647 20.2886  11
   5  27  -3 20.4360 17.6288  12
   5  27  -2 6411.79 205.230  12
  -5  27   2 6281.10 205.243  11
   5 -27  -1 2399.25 110.709  10
   5  27  -1 2517.65 124.194  12
  -5  27   1 2290.54 118.938  11
  -5  27   0-11.4339 27.2086  11
   5 -27   0 9.37429 17.1853  10
   5  27   0 19.9183 24.2816  12
  -5  27  -1 15.6148 23.5550  11
   5 -27   1 27.4880 18.8572  10
   5  27   1 37.3347 29.6964  12
  -5  27  -2 165.321 35.4579  11
   5  27   2 147.375 32.2145  12
   5  27   3 1173.38 76.8557  12
  -5  27  -3 1236.16 76.5121  11
  -5  27  -4 167.436 28.0934   8
   5  27   4 130.363 26.4868  12
  -5  27  -5 375.763 38.2545   8
  -5 -27  -5 366.027 39.6599  26
   5 -28  -4 5306.32 154.871  19
   5  28  -3 75.3538 21.2585  12
  -5  28   3 37.4550 20.0710  11
  -5  28   2 9.42068 19.1103  11
   5  28  -2-10.7531 19.0580  12
  -5  28   1 38.0427 22.1761  11
   5 -28  -1 3.86454 13.9313  10
   5  28  -1 28.0301 22.4741  12
  -5  28   0 87.8398 26.8212  11
   5 -28   0 192.039 30.5767  10
   5  28   0 141.769 28.5159  12
  -5  28  -1 62.6125 22.7224  11
   5 -28   1 71.3563 21.4395  10
   5  28   1 41.4985 20.8743  12
   5 -28   2 619.123 50.7664  10
   5  28   2 651.597 56.4260  12
  -5  28  -2 654.027 54.4608  11
   5 -28   3 73.5590 20.9798  10
   5  28   3 90.5795 23.0180  12
  -5 -28  -4 166.782 26.1547  26
   5  29  -1 485.996 45.1353  12
  -5  29   1 443.334 43.8829  11
   5  29   0 1222.16 71.8148  12
  -5  29   0 1236.00 71.8751  11
   5  29   1 383.596 39.9784  12
  -5  29  -1 357.504 38.6009  11
   6   0 -13 10.2037 18.9810  15
   6   0 -13-33.7356 22.2952  24
   6   0 -12 39.5117 26.1021  15
   6   0 -12-53.0173 33.3890  24
   6   0 -11 40.9262 34.0608  15
   6   0 -11-35.5932 31.5489  14
   6   0 -11-23.6609 33.5925  24
   6   0 -10 9741.66 310.684  15
   6   0 -10 9381.95 290.953  14
   6   0 -10 10227.9 308.598  25
   6   0 -10 9655.66 305.399  24
   6   0  -9-0.58162 19.7615  15
   6   0  -9 36.1691 27.2193  25
   6   0  -9 19.0197 27.9208  24
   6   0  -8 63.6462 26.6355  15
   6   0  -8 77.3968 24.1371  14
   6   0  -8 90.0684 27.8370  25
   6   0  -8 82.6215 31.8623  24
   6   0  -7-19.1447 24.7591  25
   6   0  -7 16.2103 23.5169  24
   6   0  -6 3797.28 341.881   4
   6   0  -5 46.3973 54.5240   4
   6   0  -4 27416.9 902.324   4
   6   0  -3-7.58459 47.5028  33
   6   0  -3-28.5415 62.3003   4
   6   0  -2 7066.20 392.975   4
   6   0  -2 6821.68 355.995  33
   6   0  -1-12.9946 34.9184  33
   6   0  -1 52.7958 63.6243   4
  -6   0   0 514.738 87.7729   2
   6   0   0 623.892 91.4559  33
  -6   0  -1 5.54317 43.1336   2
  -6   0  -2 32362.3 905.141   2
  -6   0  -3-24.9061 63.8473   2
   6   0   3 78.3866 54.5005   1
  -6   0  -4 34104.5 992.250   2
  -6   0  -4 29981.0 920.431  29
  -6   0  -5 33.0975 40.1258  29
  -6   0  -5 29.0242 49.8417   2
  -6   0  -6 2828.73 287.240   2
  -6   0  -6 2690.52 262.150  29
  -6   0  -7-8.70638 18.5472   9
  -6   0  -7 18.5204 22.9567  26
  -6   0  -8 138.968 39.0754   9
  -6   0  -8 88.4099 26.1298  26
  -6   0  -9 8.75483 25.5526   9
  -6   0  -9-4.94526 20.6030  18
  -6   0  -9-57.3637 36.7555  26
  -6   0 -10 85.7373 31.5630  18
  -6   0 -10 52.0120 25.9778  26
  -6   0 -11-1.91305 21.6800  18
  -6   0 -11-4.74701 22.0723  26
  -6   0 -12 1639.89 100.904  18
  -6   0 -13-3.98549 16.6018  18
   6   1 -13 3367.25 135.126  15
   6  -1 -13 3421.80 131.271  15
   6  -1 -13 3251.41 127.074  24
   6   1 -13 3337.04 128.576  24
   6   1 -12 697.849 69.3213  15
   6  -1 -12 682.797 67.1336  15
   6  -1 -12 839.307 71.9974  14
   6  -1 -12 714.032 65.9536  24
   6   1 -12 625.506 64.7410  24
   6   1 -11 1138.53 86.9549  14
   6  -1 -11 970.126 78.8503  14
   6  -1 -11 989.695 85.3973  24
   6   1 -11 1153.27 92.5410  24
   6  -1 -11 1087.51 90.0815  15
   6   1 -11 1106.33 93.0104  15
   6   1 -10 7344.27 263.945  15
   6  -1 -10 7760.17 266.391  15
   6   1 -10 6972.33 242.922  14
   6  -1 -10 7177.38 248.524  14
   6  -1 -10 7902.00 264.065  25
   6  -1 -10 7564.03 261.676  24
   6   1 -10 7708.29 266.516  24
   6   1  -9 1365.02 106.268  15
   6  -1  -9 1272.84 100.443  15
   6   1  -9 1138.46 88.6915  14
   6  -1  -9 1333.34 101.930  25
   6   1  -9 1370.57 103.125  25
   6  -1  -9 1269.71 100.357  24
   6   1  -9 1218.54 99.0143  24
   6  -1  -9 1328.08 95.3178  14
   6   1  -8 86.5185 28.9184  15
   6  -1  -8 75.5055 31.7975  15
   6   1  -8 34.8083 24.8529  14
   6  -1  -8 91.7715 33.1857  25
   6   1  -8 61.5322 29.7865  25
   6  -1  -8 63.7080 32.3161  24
   6   1  -8 68.4066 27.2807  24
   6   1  -7 881.540 79.9798  15
   6  -1  -7 851.623 77.4876  25
   6   1  -7 837.823 77.5077  25
   6  -1  -7 639.881 68.6681  24
   6   1  -7 828.797 79.1148  24
  -6  -1   6 86.1094 59.6495   3
   6  -1  -6 92.6897 53.9483   4
   6   1  -6 84.2630 60.5022   4
   6  -1  -5 790.646 148.258   4
   6   1  -5 671.137 130.294   4
   6   1  -4 6006.04 369.760  33
   6  -1  -4 6060.42 386.262   4
   6   1  -4 5842.79 381.168   4
   6   1  -3 7687.47 397.464  33
   6  -1  -3 7376.74 414.287   4
   6   1  -3 6982.87 405.156   4
   6   1  -2 832.282 122.117  33
   6  -1  -2 935.908 142.963   4
   6   1  -2 863.488 140.199   4
  -6   1   1 55559.1 1195.90   2
   6   1  -1 50873.5 1231.01  33
   6  -1  -1 61569.7 1277.89  33
   6  -1  -1 59176.9 1391.25   4
   6   1  -1 55892.5 1371.67   4
   6   1   0 35475.5 854.356  33
   6  -1   0 36140.6 844.865  33
  -6  -1  -1 4649.47 281.454   2
   6   1   1 4132.24 230.908  33
   6  -1   1 4424.27 288.548   1
  -6   1  -2 39853.8 1008.40   2
   6  -1   2 36811.7 974.996   1
  -6   1  -3 25453.2 815.697   2
  -6  -1  -3 24725.8 813.640   2
  -6  -1  -4 12665.1 564.099   2
  -6  -1  -4 11407.1 522.191  29
  -6   1  -4 11268.8 499.790  29
  -6   1  -5 3384.52 292.867   2
  -6  -1  -5 3571.61 308.890   2
  -6  -1  -5 3293.54 281.987  29
  -6   1  -6 4270.82 347.651   2
  -6  -1  -6 3660.47 312.626  29
  -6   1  -7 5395.83 217.282   9
  -6  -1  -7 5313.69 215.704   9
  -6   1  -7 5462.51 218.726  26
  -6  -1  -7 5572.53 219.972  26
  -6   1  -8 786.659 83.0239   9
  -6  -1  -8 884.287 86.2560   9
  -6   1  -8 763.696 80.4877  26
  -6  -1  -8 764.154 80.9053  26
  -6  -1  -9 193.604 44.0738   9
  -6   1  -9 230.968 43.2089  18
  -6  -1  -9 152.063 37.7914  18
  -6   1  -9 153.569 38.9384  26
  -6  -1  -9 121.529 34.0052  26
  -6  -1 -10 82.2202 38.0369  18
  -6  -1 -10 28.6710 25.1645  26
  -6   1 -10 52.7191 29.9510  26
  -6   1 -11 421.712 55.0299  18
  -6  -1 -11 380.880 54.3931  18
  -6   1 -11 357.109 53.8679  26
  -6  -1 -11 338.144 53.1910  26
  -6   1 -12 2227.17 120.080  18
  -6  -1 -12 2266.57 119.293  18
  -6   1 -13 1562.36 86.0601  18
  -6  -1 -13 1461.13 84.4513  18
  -6   1 -13 1632.48 93.6362  17
   6  -2 -13 233.056 34.9685  15
   6   2 -13 189.392 34.7119  15
   6  -2 -13 994.977 75.2542  14
   6  -2 -13 719.554 58.4416  24
   6   2 -13 141.508 27.9267  24
   6   2 -12 1478.24 100.206  15
   6  -2 -12 1567.65 98.2709  15
   6  -2 -12 1590.45 95.0414  14
   6  -2 -12 1477.56 95.6051  24
   6   2 -12 1513.91 97.4414  24
   6  -2 -11 3730.31 164.452   5
   6  -2 -11 3243.99 151.744  14
   6   2 -11 3667.86 171.771  15
   6  -2 -11 3693.03 167.599  15
   6   2 -11 3510.81 157.114  14
   6  -2 -11 3586.07 165.100  24
   6   2 -11 3546.12 166.357  24
   6  -2 -10 2083.68 126.628   5
   6  -2 -10 2153.14 129.599  15
   6   2 -10 1884.91 115.907  14
   6  -2 -10 1776.79 114.664  14
   6  -2 -10 1915.24 122.126  25
   6  -2 -10 2015.72 125.718  24
   6   2 -10 2012.11 126.663  24
   6   2 -10 2006.18 129.573  15
   6  -2  -9 340.721 52.3284   5
   6   2  -9 423.024 61.1843  15
   6  -2  -9 356.952 54.1602  15
   6   2  -9 298.948 47.6497  14
   6  -2  -9 328.233 49.9432  14
   6  -2  -9 474.124 62.0596  25
   6   2  -9 512.414 62.7656  25
   6  -2  -9 461.854 60.4794  24
   6   2  -9 414.891 59.2505  24
   6  -2  -8 136.858 33.8884   5
   6   2  -8 120.395 29.8373  14
   6   2  -8 184.247 40.0076  15
   6  -2  -8 169.092 37.9362  25
   6   2  -8 159.709 39.8633  25
   6  -2  -8 209.068 43.3468  24
   6   2  -8 142.601 39.4264  24
   6   2  -7 6435.42 234.632  15
   6  -2  -7 6121.83 228.991  25
   6   2  -7 6548.62 233.694  25
   6  -2  -7 6460.54 232.637  24
   6   2  -7 6555.91 233.467  24
  -6  -2   6 519.584 114.385   3
   6  -2  -6 707.949 151.552   4
   6   2  -6 502.344 131.074   4
   6  -2  -5 4156.22 337.494   4
   6   2  -5 4237.59 341.237   4
   6   2  -4 50.8315 40.4388  33
   6   2  -4 97.6419 65.8954   4
   6  -2  -4 46.1152 50.9996   4
   6   2  -3 7824.17 406.030  33
   6   2  -3 7802.72 427.748   4
   6  -2  -3 7995.95 431.757   4
   6   2  -2 685.102 112.777  33
   6  -2  -2 591.699 115.611   4
   6   2  -2 510.149 103.459   4
   6   2  -1 749.035 109.139  33
   6  -2  -1 538.907 111.907   4
   6   2  -1 503.107 105.997   4
  -6  -2   0 658.367 100.908   2
   6   2   0 506.732 82.2049  33
   6  -2   0 696.708 121.167   1
   6  -2   1 1012.22 137.857   1
   6   2   1 1241.61 123.504  33
  -6  -2  -1 1468.47 158.492   2
   6  -2   2 11587.4 490.230   1
  -6  -2  -2 12092.6 504.251   2
  -6   2  -3 16988.1 647.403   2
  -6  -2  -3 18357.9 677.057   2
  -6   2  -4 3216.88 270.712   2
  -6  -2  -4 3079.39 276.279   2
  -6  -2  -4 2918.86 259.495  29
  -6   2  -5 198.847 83.7118   2
  -6  -2  -5 102.724 55.0513   2
  -6  -2  -5 181.782 78.0609  29
  -6   2  -6 179.739 79.1480   2
  -6  -2  -6 155.881 81.4557   2
  -6  -2  -6 233.570 94.1312  29
  -6   2  -7 2388.88 140.349   9
  -6  -2  -7 2496.33 142.115   9
  -6  -2  -7 2665.10 146.387  26
  -6   2  -7 2659.36 146.689  26
  -6   2  -8 1117.62 97.4088   9
  -6  -2  -8 1264.24 103.093   9
  -6   2  -8 1090.68 94.4922  26
  -6  -2  -8 1089.28 95.1720  26
  -6  -2  -9 4964.30 214.822   9
  -6   2  -9 5660.08 214.559  18
  -6  -2  -9 5245.92 211.863  18
  -6   2  -9 4895.68 214.540  26
  -6  -2  -9 4849.37 213.372  26
  -6   2 -10 91.6653 34.1815  18
  -6  -2 -10 28.2336 24.3051  18
  -6  -2 -10 12.0865 24.1553  26
  -6   2 -10 51.3641 32.4375  26
  -6   2 -11 19.7455 21.6830  18
  -6  -2 -11 0.22529 22.9698  18
  -6   2 -11 23.1342 26.1489  26
  -6  -2 -11 29.7522 22.1963  26
  -6   2 -12 426.810 52.4484  18
  -6  -2 -12 397.057 51.5800  18
  -6   2 -13 111.698 26.5642  18
  -6  -2 -13 101.737 27.8005  18
  -6   2 -13 130.366 31.4818  17
   6   3 -13 109.416 27.0521  15
   6   3 -13-11.0025 24.9615  24
   6   3 -12 634.583 66.8419  15
   6  -3 -12 528.296 56.3269  14
   6  -3 -12 673.919 63.2665  24
   6   3 -12 524.277 59.0748  24
   6   3 -11 7506.77 240.556  14
   6  -3 -11 8016.20 258.975   5
   6   3 -11 7625.82 262.719  15
   6  -3 -11 8028.84 256.367  15
   6  -3 -11 7160.46 239.808  14
   6  -3 -11 7472.37 251.048  24
   6   3 -11 7636.47 256.760  24
   6  -3 -10 44.6267 28.4166   5
   6   3 -10 29.5001 29.7490  15
   6   3 -10 100.976 36.1303  14
   6  -3 -10-22.9977 34.9721  14
   6  -3 -10 50.0530 31.9793  25
   6  -3 -10-50.2187 40.9545  24
   6   3 -10 23.3129 30.5856  24
   6  -3  -9 920.241 86.5092   5
   6  -3  -9 1038.20 91.3713  25
   6   3  -9 999.126 92.0661  15
   6   3  -9 882.190 78.0245  14
   6   3  -9 1121.29 91.2626  25
   6  -3  -9 1008.36 90.1675  24
   6   3  -9 1006.98 89.7495  24
   6  -3  -8 1413.01 107.768   5
   6   3  -8 1379.44 106.535  15
   6   3  -8 1424.41 96.0559  14
   6  -3  -8 1509.90 109.417  25
   6   3  -8 1599.54 110.383  25
   6  -3  -8 1434.50 107.089  24
   6   3  -8 1548.82 110.234  24
   6  -3  -7 5091.86 203.742   5
   6  -3  -7 5217.01 201.270  19
   6   3  -7 4734.50 198.679  15
   6  -3  -7 4735.87 198.242  25
   6   3  -7 4638.27 193.859  25
   6  -3  -7 4774.49 197.249  24
   6   3  -7 5064.68 200.679  24
  -6  -3   6 151.884 83.7402   3
   6  -3  -6 29.5215 47.9068   4
   6   3  -6-14.4009 58.0019   4
  -6  -3   5 303.880 86.4257   3
   6   3  -5 325.158 99.0473  33
   6  -3  -5 403.906 109.447   4
   6   3  -5 343.364 108.090   4
   6   3  -4 6025.46 375.536  33
   6  -3  -4 6482.42 399.437   4
   6   3  -4 6664.03 409.040   4
   6   3  -3 11.9681 42.3585   4
   6   3  -3-3.96117 36.7536  33
   6   3  -2 458.022 100.082   4
   6   3  -2 423.984 87.1121  33
   6  -3  -2 498.604 106.078   4
   6   3  -1 2839.22 217.031  33
   6  -3  -1 2949.90 248.581   4
   6   3  -1 2774.55 243.521   4
   6  -3   0 24503.7 770.720   1
  -6  -3   0 25063.4 703.182   2
   6  -3   1 10596.6 468.576   1
   6   3   1 9387.65 386.128  33
  -6  -3  -1 9800.55 431.592   2
  -6  -3  -2 2451.31 220.540   2
   6  -3   2 2879.62 237.045   1
  -6  -3  -3 3722.64 285.532   2
   6  -3   3 3768.78 274.633   1
  -6  -3  -4 2010.10 219.483  29
   6  -3   4 2442.83 221.881   1
  -6   3  -5-12.8147 55.7796   2
  -6  -3  -5 149.749 82.7660   2
  -6  -3  -5-9.30464 47.5288  29
  -6   3  -6 3821.61 328.386   2
  -6  -3  -6 3423.14 314.193   2
  -6  -3  -6 3369.96 306.750  29
  -6   3  -7 1128.87 95.4484   9
  -6  -3  -7 1100.24 93.7919   9
  -6   3  -7 1137.17 94.4485  26
  -6  -3  -7 1049.61 90.8201  26
  -6  -3  -8 807.406 81.2816   9
  -6   3  -8 749.915 79.5709  26
  -6  -3  -8 657.512 74.6935  26
  -6  -3  -9 5924.27 235.744   9
  -6   3  -9 5549.50 229.565  26
  -6  -3  -9 5327.59 225.246  26
  -6  -3 -10 2591.61 146.792   9
  -6   3 -10 2644.54 143.281  18
  -6  -3 -10 2466.38 140.170  18
  -6   3 -10 2165.22 136.640  26
  -6  -3 -10 2370.18 140.964  26
  -6   3 -11 92.2189 32.1749  18
  -6  -3 -11 108.741 37.9644  18
  -6   3 -11 61.9409 28.4482  26
  -6  -3 -11 88.6016 33.2105  26
  -6   3 -12 169.270 35.2927  18
  -6  -3 -12 212.739 38.0615  18
  -6  -3 -13 157.948 29.6610  18
  -6   3 -13 145.815 31.5491  17
   6   4 -13-15.5681 25.2034  24
   6   4 -13 69.5331 23.2801  15
   6  -4 -12 35.6102 23.8157  14
   6   4 -12 64.1663 31.4714  24
   6   4 -12 90.5561 35.7829  15
   6  -4 -11 1896.73 118.363   5
   6   4 -11 1728.83 118.713  15
   6  -4 -11 1904.04 112.224  14
   6  -4 -11 1944.59 117.104  24
   6   4 -11 1709.96 113.500  24
   6  -4 -10 12.6799 22.5693   5
   6   4 -10 18.5857 30.9874  15
   6  -4 -10 14.3735 32.8420  14
   6  -4 -10 58.7032 28.6323  25
   6  -4 -10-25.8754 34.8240  24
   6   4 -10 46.0521 31.7893  24
   6  -4  -9 278.862 47.8447   5
   6   4  -9 172.420 43.1485  15
   6   4  -9 236.683 40.6386  14
   6  -4  -9 239.217 46.7649  25
   6   4  -9 263.730 45.9965  25
   6  -4  -9 213.126 46.0240  24
   6   4  -9 298.638 52.4804  24
   6  -4  -8 4542.53 198.659   5
   6   4  -8 4413.74 176.424  14
   6   4  -8 4425.51 196.925  15
   6  -4  -8 4429.69 194.423  25
   6   4  -8 4601.23 192.710  25
   6  -4  -8 4396.15 192.746  24
   6   4  -8 4463.51 194.141  24
   6  -4  -7 370.346 51.2463  19
   6  -4  -7 391.770 54.6357   5
   6   4  -7 372.040 55.9504  15
   6  -4  -7 426.003 58.7691  25
   6   4  -7 371.996 50.5800  25
   6  -4  -7 418.143 57.2334  24
   6   4  -7 391.860 54.7026  24
  -6  -4   6 736.755 145.180   3
   6   4  -6 881.779 165.673   4
   6  -4  -6 781.169 154.838   4
  -6  -4   5 673.113 129.899   3
   6   4  -5 841.965 147.484  33
   6  -4  -5 716.929 140.078   4
   6   4  -5 879.049 159.625   4
   6   4  -4 7217.72 419.597  33
   6  -4  -4 8488.54 461.400   4
   6   4  -4 8078.15 457.352   4
  -6  -4   4 9326.15 479.523   3
   6   4  -3 18031.9 655.069  33
   6  -4  -3 16823.1 618.950  28
   6  -4  -3 16615.4 651.437   4
   6   4  -3 17067.8 661.960   4
   6   4  -2 1407.32 163.931  33
   6  -4  -2 1587.47 189.387   4
   6  -4  -2 1659.33 167.483  28
   6   4  -2 1532.03 183.575   4
   6   4  -1 14074.8 526.633  33
   6  -4  -1 14534.7 584.216   1
   6  -4  -1 14157.4 500.217  28
   6  -4  -1 14863.8 584.739   4
   6   4  -1 14439.1 587.696   4
   6   4   0 634.989 102.110  33
   6  -4   0 895.636 108.868  28
  -6  -4   0 976.683 120.478   2
   6  -4   0 945.707 144.110   4
   6   4   0 808.673 130.680   4
   6  -4   0 730.068 123.475   1
  -6  -4  -1 22534.9 699.826   2
   6  -4   1 20552.0 712.448   1
  -6  -4  -2 5684.24 337.366   2
   6  -4   2 5861.24 350.746   1
  -6  -4  -3 349.131 93.4960   2
   6  -4   3 244.239 77.8955   1
  -6  -4  -4 257.718 79.5979   2
  -6  -4  -4 505.246 118.969  29
   6  -4   4 438.775 101.864   1
  -6   4  -5 134.674 66.8432   2
  -6  -4  -5 255.664 89.1930   2
  -6  -4  -5 138.460 62.6011  29
  -6   4  -6 190.733 76.4854   2
  -6  -4  -6 288.745 96.2702   2
  -6  -4  -6 172.308 54.9052  29
  -6   4  -7 32.4282 26.0921   9
  -6  -4  -7 1.15716 22.0439   9
  -6  -4  -7 1.65415 21.6596  26
  -6   4  -7 62.7635 26.0300  26
  -6  -4  -8 45.9166 29.0814   9
  -6  -4  -8 145.643 39.6401  18
  -6   4  -8 74.8690 33.3376  26
  -6  -4  -8 68.5238 27.0851  26
  -6  -4  -9 96.7853 35.0646   9
  -6  -4  -9 102.508 34.2197  18
  -6   4  -9 55.3266 32.7746  26
  -6  -4  -9 83.2792 29.5890  26
  -6  -4 -10 440.159 61.6620   9
  -6   4 -10 401.614 56.1373  18
  -6  -4 -10 438.665 63.7870  18
  -6   4 -10 433.857 61.9005  26
  -6  -4 -10 372.925 57.8430  26
  -6   4 -11 1058.48 86.3751  18
  -6  -4 -11 1110.80 89.1028  18
  -6   4 -11 1132.75 92.3464  26
  -6  -4 -11 1249.52 95.6451  26
  -6   4 -12 2.28148 21.7125  18
  -6  -4 -12-21.0862 22.4649  18
  -6   4 -12-26.0753 31.0574  17
  -6  -4 -13-16.2501 15.4527  18
  -6   4 -13-3.43860 18.4533  17
   6   5 -13 190.781 34.1832  15
   6   5 -13 103.217 22.4589  24
   6  -5 -12 1692.98 100.887   5
   6   5 -12 1591.10 102.802  15
   6  -5 -12 1606.95 94.7798  14
   6   5 -12 1503.97 97.0978  24
   6  -5 -11 730.380 72.5296   5
   6  -5 -11 582.018 64.5560  25
   6  -5 -11 623.638 63.8237  14
   6  -5 -11 712.377 69.5311  24
   6   5 -11 598.786 66.8307  24
   6   5 -11 708.891 74.4142  15
   6  -5 -10 126.747 38.5744   5
   6   5 -10 150.911 40.7709  15
   6  -5 -10 49.9106 29.7805  14
   6  -5 -10 117.953 32.7310  24
   6   5 -10 151.185 39.9944  24
   6  -5  -9 1950.08 128.148   5
   6   5  -9 1852.38 126.974  15
   6   5  -9 2120.33 122.202  14
   6  -5  -9 2044.66 129.070  25
   6   5  -9 2187.69 128.735  25
   6  -5  -9 1865.81 122.847  24
   6   5  -9 1884.49 124.040  24
   6  -5  -8 800.992 82.0667   5
   6  -5  -8 861.098 82.5986  19
   6   5  -8 891.104 87.1206  15
   6   5  -8 842.756 73.6193  14
   6  -5  -8 779.446 80.7933  25
   6   5  -8 780.852 77.6911  25
   6  -5  -8 827.819 79.9812  24
   6   5  -8 771.321 78.6534  24
   6  -5  -7 497.800 62.9702   5
   6  -5  -7 510.225 62.2342  19
   6   5  -7 389.093 56.3271  15
   6  -5  -7 506.112 63.8514  25
   6   5  -7 599.516 67.1660  25
   6  -5  -7 421.189 54.2488  24
  -6  -5   6 412.291 107.617   3
   6   5  -6 528.066 125.533  33
   6  -5  -6 462.358 114.274   4
   6   5  -6 457.750 124.720   4
   6   5  -5 1305.40 183.270  33
   6  -5  -5 1394.34 194.467   4
   6   5  -5 1133.52 178.788   4
  -6  -5   5 1309.89 189.456   3
  -6  -5   4 31.5075 39.1191   3
   6   5  -4 22.4034 48.5179  33
   6  -5  -4 17.6452 44.5895  28
   6  -5  -4 50.6027 56.5151   4
   6   5  -4-38.0511 52.1700   4
   6  -5  -3 15283.0 593.105  28
   6   5  -3 14603.6 591.817  33
   6  -5  -3 15936.2 630.182   4
   6   5  -3 14730.5 617.135   4
  -6  -5   3 16037.8 639.447   3
   6   5  -2 602.267 111.516  33
   6  -5  -2 635.441 107.723  28
   6  -5  -2 426.630 99.6700   4
   6   5  -2 604.908 128.615   4
   6   5  -1 221.462 69.7871  33
   6  -5  -1 179.427 54.4690  28
   6  -5  -1 275.365 78.6486   4
   6   5  -1 225.679 74.2590   4
   6  -5  -1 206.962 76.5230   1
   6   5   0 344.011 84.6843  33
  -6  -5   0 159.326 58.4971   2
   6  -5   0 195.197 56.3389  28
   6  -5   0 113.570 63.4898   1
   6  -5   0 218.703 70.2888   4
   6   5   0 210.236 74.4448   4
  -6  -5  -1 3749.00 263.030   2
   6  -5   1 3825.52 287.803   1
  -6  -5  -2 8292.30 420.358   2
   6  -5   2 8089.42 427.186   1
  -6  -5  -3 9757.97 475.326   2
   6  -5   3 8242.13 440.733   1
  -6  -5  -4 4241.69 330.507  29
  -6  -5  -4 3940.46 312.907   2
   6  -5   4 4635.21 329.859   1
  -6  -5  -5 33.8043 45.9983   2
  -6  -5  -5-27.4768 59.9178  29
   6  -5   5 92.1293 60.0488   1
  -6   5  -6 281.852 91.7943   2
  -6  -5  -6 422.028 110.484   2
  -6  -5  -6 433.008 119.456  29
  -6   5  -7 619.113 71.7355  26
  -6  -5  -7 590.565 68.9078  26
  -6  -5  -8 5823.91 232.795   9
  -6  -5  -8 6122.90 229.077  18
  -6  -5  -8 5646.23 231.383  26
  -6   5  -8 5785.91 233.301  26
  -6  -5  -9 747.648 80.3356   9
  -6  -5  -9 766.338 77.9964  18
  -6   5  -9 808.041 83.8769  26
  -6  -5  -9 674.877 74.5112  26
  -6  -5 -10 1128.74 94.7183   9
  -6   5 -10 1089.95 89.0731  18
  -6  -5 -10 1195.54 96.5969  18
  -6   5 -10 1219.43 100.211  26
  -6  -5 -10 1070.35 94.8678  26
  -6  -5 -11 491.833 60.0428  26
  -6   5 -11 494.443 59.5548  18
  -6  -5 -11 534.727 61.3493  18
  -6   5 -11 558.278 62.8162  26
  -6  -5 -12 186.189 37.6617  18
  -6   5 -12 212.901 45.2189  17
  -6  -5 -13 24.7886 18.6617  18
  -6   5 -13 10.5526 17.6777  17
   6   6 -13 422.483 47.6349  15
   6  -6 -13 422.968 43.2392  14
   6  -6 -12 1119.28 81.6065   5
   6  -6 -12 1242.38 81.8794  14
   6   6 -12 1132.74 86.7295  15
   6   6 -12 1096.24 82.0789  24
   6  -6 -11 1371.67 100.348   5
   6   6 -11 1335.00 102.787  15
   6  -6 -11 1628.52 106.965  25
   6  -6 -11 1304.83 90.9657  14
   6  -6 -11 1719.71 111.750  24
   6   6 -11 1303.67 98.0208  24
   6  -6 -10 45.5483 33.6737   5
   6   6 -10 35.7609 26.7650  15
   6  -6 -10 30.5388 25.0515  25
   6  -6 -10 75.6056 31.8929  24
   6   6 -10 65.1120 35.7585  24
   6  -6  -9 403.729 62.2991   5
   6   6  -9 384.298 63.0972  15
   6  -6  -9 489.464 67.8800  25
   6  -6  -9 311.637 54.0275  24
   6   6  -9 441.195 66.0472  24
   6  -6  -8 109.110 36.5356  19
   6  -6  -8 54.5190 25.5597   5
   6   6  -8 44.8196 27.4123  15
   6  -6  -8 65.0796 32.3978  25
   6   6  -8 49.2120 27.7044  25
   6  -6  -8 22.6784 29.6898  24
   6   6  -8 58.3365 28.7260  24
   6  -6  -7 612.439 69.9870   5
   6  -6  -7 561.836 65.2041  19
   6   6  -7 535.923 66.5754  15
   6  -6  -7 616.779 69.3962  25
   6   6  -7 696.450 71.4110  25
   6  -6  -7 517.745 62.5687  24
  -6  -6   6 87.5610 70.7952   3
   6   6  -6 18.4038 40.3950  33
   6  -6  -6-29.8513 76.6752   4
   6   6  -6 88.0542 65.7155   4
   6   6  -5 5969.12 406.930  33
   6  -6  -5 5370.86 389.201   4
   6   6  -5 5946.61 417.556   4
   6  -6  -5 5951.39 396.676  28
  -6  -6   5 5735.38 403.231   3
  -6  -6   4 439.738 111.520   3
   6   6  -4 492.838 114.126  33
   6  -6  -4 402.985 101.166  28
   6  -6  -4 453.162 108.785   4
   6   6  -4 586.047 127.758   4
   6   6  -3 4956.73 329.441  33
   6  -6  -3 4889.76 324.427  28
   6  -6  -3 5172.06 340.540   4
   6   6  -3 4826.72 337.584   4
  -6  -6   3 4825.21 339.477   3
   6   6  -2 20246.5 701.288  33
   6  -6  -2 20325.7 687.974  28
   6   6  -2 19984.5 724.743   4
   6  -6  -2 21838.0 743.262   4
   6  -6  -2 20584.6 747.027   1
   6  -6  -1 151.780 66.6103   1
   6   6  -1 195.409 63.2634  33
   6  -6  -1 159.584 61.7883  28
   6  -6  -1 210.339 67.7780   4
   6   6  -1 128.639 65.1612   4
   6   6   0 7168.04 402.583   4
  -6  -6   0 7089.72 356.933   2
   6  -6   0 6433.97 372.456   4
   6  -6   0 6249.85 316.347  28
   6  -6   0 6221.83 378.144   1
  -6  -6  -1 2796.31 232.599   2
   6  -6   1 2843.22 251.542   1
  -6  -6  -2 9473.65 457.169   2
   6  -6   2 8150.30 443.285   1
  -6  -6  -3 708.399 129.897   2
   6  -6   3 935.055 147.999   1
   6  -6   4 5824.84 378.870   1
  -6  -6  -4 5125.03 364.722   2
   6  -6   5 9407.07 497.528   1
  -6  -6  -5 9652.75 528.597   2
  -6   6  -6-35.8514 61.6331   2
  -6   6  -6-82.5445 61.5554  34
  -6  -6  -6-187.429 82.6209  34
  -6  -6  -6 82.9592 70.4113   2
  -6  -6  -6-186.696 83.3716  29
  -6   6  -7 4533.41 206.615   8
  -6   6  -7 4588.08 201.919  26
  -6  -6  -7 5029.77 209.514  26
  -6  -6  -8 868.669 86.3498   9
  -6  -6  -8 1024.52 88.1930  18
  -6  -6  -8 956.321 91.0719  26
  -6   6  -8 868.085 86.2606  26
  -6  -6  -9 3521.53 175.014   9
  -6  -6  -9 3743.18 177.228  18
  -6   6  -9 3534.63 178.589  26
  -6  -6  -9 3701.65 181.481  26
  -6  -6 -10 1475.38 106.494   9
  -6   6 -10 1530.01 105.233  18
  -6  -6 -10 1435.99 105.558  18
  -6   6 -10 1296.96 102.957  26
  -6  -6 -10 1346.92 106.067  26
  -6   6 -11 44.7664 24.1854  18
  -6  -6 -11 46.8498 29.9728  18
  -6   6 -11 37.0804 25.4200  26
  -6  -6 -11 51.8967 29.9323  26
  -6  -6 -12 1055.24 77.8167  18
  -6   6 -12 985.170 81.4231  17
  -6  -6 -13 193.785 29.1282  18
  -6   6 -13 223.138 35.6826  17
   6  -7 -13 786.990 55.3534  14
   6   7 -13 879.708 59.8496  24
   6  -7 -12 22.8304 23.9137   5
   6   7 -12 63.2961 32.9390  15
   6  -7 -12-27.3434 28.1757  14
   6   7 -12 32.2919 24.6854  24
   6  -7 -11 70.4890 32.3695   5
   6   7 -11 149.362 43.5061  15
   6  -7 -11 677.486 75.7058  25
   6  -7 -11 36.8106 30.5227  14
   6  -7 -11 808.667 95.0250  24
   6   7 -11 39.2466 32.0260  24
   6  -7 -10 3646.85 177.245   5
   6   7 -10 3691.58 179.539  15
   6  -7 -10 3599.35 170.064  25
   6  -7 -10 3843.81 172.462  24
   6   7 -10 3674.32 173.419  24
   6  -7  -9 19739.6 496.258   5
   6  -7  -9 20096.0 492.962  19
   6   7  -9 19510.5 496.576  15
   6  -7  -9 18291.6 479.421  25
   6  -7  -9 19073.9 478.942  24
   6   7  -9 20222.1 493.391  24
   6  -7  -8-21.8337 28.6801  19
   6  -7  -8 43.9745 29.0629   5
   6   7  -8 15.5448 29.2611  15
   6  -7  -8 32.7603 25.4583  25
   6   7  -8 47.5839 27.9421  25
   6  -7  -8 39.7309 29.9578  24
   6  -7  -7 291.611 48.7449  19
   6  -7  -7 345.908 53.1604   5
   6   7  -7 368.760 56.5634  15
   6   7  -7 389.625 58.8609  25
   6  -7  -7 355.193 53.4551  25
   6  -7  -7 285.667 47.6995  24
   6  -7  -6 4627.21 373.780   4
   6   7  -6 4587.97 379.389   4
   6   7  -6 4505.95 190.859  15
   6  -7  -6 4430.02 188.624  25
   6  -7  -6 4166.88 182.121  24
  -6  -7   6 5235.22 403.959   3
   6   7  -5 7476.54 461.237  33
   6  -7  -5 7027.57 445.979   4
   6   7  -5 7139.12 460.540   4
   6  -7  -5 7274.11 452.479  28
  -6  -7   5 7301.80 466.678   3
  -6  -7   4 938.539 163.323   3
   6   7  -4 859.385 140.969  33
   6   7  -4 1215.88 177.957   4
   6  -7  -4 1010.61 160.993  28
   6  -7  -4 991.793 158.636   4
  -6  -7   3 898.925 148.147   3
   6   7  -3 999.841 151.091  33
   6  -7  -3 1076.57 155.967  28
   6  -7  -3 882.842 142.138   4
   6   7  -3 876.335 138.040   4
  -6  -7   2 71.0786 50.6603   3
   6   7  -2 57.9544 53.8821  33
   6  -7  -2 128.856 62.7433  28
   6  -7  -2 86.9372 61.3358   4
   6   7  -2 62.2224 60.6299   4
   6  -7  -2 138.780 63.4447   1
   6  -7  -1 1558.50 192.664   1
   6  -7  -1 1785.14 180.504  28
   6  -7  -1 1589.40 178.643   4
   6   7  -1 1599.05 184.323   4
  -6  -7   1 1472.44 178.766   3
   6  -7   0 6799.13 338.695  28
   6  -7   0 6956.46 387.873   4
   6   7   0 6579.56 389.390   4
  -6  -7   0 6261.71 367.207   3
   6  -7   0 6054.40 382.787   1
  -6  -7  -1 5007.21 320.409   2
   6  -7   1 4255.90 318.250   1
  -6  -7  -1 4250.40 291.080   3
   6  -7   2 6697.75 405.959   1
  -6  -7  -2 6237.38 378.471   2
  -6  -7  -2 6242.89 354.735   3
   6  -7   3-20.5316 45.1665   1
  -6  -7  -3 38.4629 48.3831   2
   6  -7   4 2411.60 250.471   1
  -6  -7  -4 2240.78 249.503  29
  -6  -7  -4 2622.13 265.324   2
   6  -7   5 5612.49 389.453   1
  -6  -7  -5 4917.74 384.774  29
  -6  -7  -5 5720.92 409.054   2
  -6   7  -6 5603.93 426.841  34
  -6  -7  -6 6297.95 445.618  34
  -6   7  -6 5516.75 227.810   8
  -6   7  -6 5453.29 218.373  26
  -6  -7  -6 6205.67 231.639  26
  -6   7  -7 6957.00 263.695   8
  -6   7  -7 7179.16 261.345  26
  -6  -7  -7 6710.54 252.554  26
  -6  -7  -8 827.329 84.8723   9
  -6  -7  -8 847.651 82.2313  18
  -6   7  -8 747.344 81.2535  26
  -6  -7  -8 824.504 84.5137  26
  -6  -7  -9 545.282 68.9496   9
  -6  -7  -9 661.753 74.0169  18
  -6   7  -9 543.538 71.7419  26
  -6  -7  -9 459.853 66.1946  26
  -6  -7 -10 372.499 56.7768   9
  -6   7 -10 363.756 53.9614  18
  -6  -7 -10 264.332 46.5398  18
  -6   7 -10 327.875 55.6011  26
  -6  -7 -10 344.313 55.4565  26
  -6  -7 -11 1396.75 98.2402  18
  -6   7 -11 1582.57 112.894  17
  -6   7 -11 1535.62 104.700  26
  -6  -7 -11 1522.44 104.229  26
  -6  -7 -12 512.769 54.4965  18
  -6   7 -12 493.065 58.8457  17
  -6  -7 -13 775.421 55.1318  18
  -6   7 -13 789.689 61.5759  17
   6   8 -13 2526.52 100.929  24
   6  -8 -13 2389.60 95.2571  14
   6  -8 -12-2.84537 22.9200   5
   6   8 -12 9.13932 23.9672  15
   6  -8 -12-19.6347 24.8868  14
   6   8 -12 50.4436 28.0886  24
   6  -8 -11 31.3920 27.8033   5
   6   8 -11 53.7756 35.0446  15
   6  -8 -11 34.5053 31.4717  14
   6   8 -11 21.6942 29.0019  24
   6  -8 -10 443.293 63.7226   5
   6   8 -10 378.147 61.2648  15
   6  -8 -10 425.676 68.4025  25
   6   8 -10 481.758 65.1873  24
   6  -8  -9 995.175 94.0273   5
   6  -8  -9 1016.75 91.6204  19
   6   8  -9 1143.61 101.526  15
   6  -8  -9 1045.97 94.2537  25
   6  -8  -9 1181.74 98.8843  24
   6   8  -9 1008.20 95.7156  24
   6  -8  -8 4.00893 24.8499  19
   6  -8  -8 22.5502 31.0091   5
   6   8  -8 24.9929 25.1309  15
   6  -8  -8 60.2824 31.8403  25
   6   8  -8 42.8026 28.6719  25
   6  -8  -8 80.1317 36.9089  24
   6  -8  -7 51.0977 29.8138  19
   6  -8  -7 46.8582 24.1815   5
   6   8  -7 95.6407 31.3720  15
   6  -8  -7 83.4744 29.8850  25
   6  -8  -7-6.09459 30.6519  24
   6  -8  -6 328.890 50.4540  19
   6   8  -6 265.612 44.6641  16
   6   8  -6 308.986 49.9545  15
   6  -8  -6 249.972 47.5543  25
   6  -8  -6 228.475 41.2226  24
   6   8  -5 1165.18 183.284  33
   6  -8  -5 1343.86 193.664   4
   6   8  -5 1358.78 200.261   4
   6  -8  -5 1094.03 177.805  28
  -6  -8   5 1577.40 221.433   3
   6   8  -4 1670.76 209.638  33
   6  -8  -4 2014.85 225.239   4
   6   8  -4 1925.95 225.275   4
   6  -8  -4 1757.99 207.599  28
  -6  -8   4 1922.38 228.130   3
  -6  -8   3 193.726 71.0573   3
   6   8  -3 221.928 78.3551  33
   6  -8  -3 273.910 93.5936  28
   6  -8  -3 227.360 78.7826   4
   6   8  -3 183.621 75.7163   4
  -6  -8   2 927.062 149.326   3
   6   8  -2 795.464 136.171  33
   6  -8  -2 797.405 132.783  28
   6  -8  -2 964.690 144.368   4
   6   8  -2 1039.10 155.360   4
   6  -8  -2 990.565 155.428   1
  -6  -8   1 869.706 142.169   3
   6  -8  -1 706.671 133.111   1
   6  -8  -1 734.345 116.153  28
   6  -8  -1 683.315 119.767   4
   6   8  -1 695.232 124.773   4
  -6  -8   0 344.962 88.9171   3
   6  -8   0 584.418 103.974  28
   6  -8   0 411.200 97.8910   4
   6   8   0 411.604 95.8091   4
  -6  -8   0 514.857 99.4120   2
   6  -8   0 452.655 104.670   1
   6  -8   1 13340.0 602.894   1
  -6  -8  -1 15207.6 604.559   2
  -6  -8  -1 13799.8 568.883   3
   6  -8   2 3886.88 314.874   1
  -6  -8  -2 4016.40 307.265   2
  -6  -8  -2 4235.35 294.166   3
   6  -8   3 6094.50 402.293   1
  -6  -8  -3 6395.10 408.859   2
   6  -8   4 301.268 90.2768   1
  -6  -8  -4 294.647 99.7707   2
  -6  -8  -4 372.880 109.173  29
   6  -8   5 290.524 105.457   1
  -6  -8  -5 278.197 93.1750   2
  -6  -8  -5 437.900 119.854  29
  -6   8  -6 299.799 96.1949  34
  -6  -8  -6 222.151 67.4671  34
  -6   8  -6 183.317 42.3946   8
  -6   8  -6 164.133 39.1225  26
  -6  -8  -6 170.393 38.1527  26
  -6   8  -7 841.505 83.8320  26
  -6   8  -7 867.309 89.9787   8
  -6  -8  -7 831.924 83.9962  26
  -6  -8  -8 768.903 81.3971   9
  -6   8  -8 910.048 90.6688   8
  -6   8  -8 815.970 84.3343  26
  -6  -8  -8 736.239 80.7166  26
  -6  -8  -9 2181.39 134.536   9
  -6  -8  -9 2332.18 137.179  18
  -6   8  -9 2081.67 136.403  26
  -6  -8  -9 2042.78 134.226  26
  -6  -8 -10 915.190 85.1290  18
  -6   8 -10 827.477 84.0947  17
  -6   8 -10 850.076 83.0042  26
  -6  -8 -10 737.805 77.6552  26
  -6  -8 -11 406.704 54.5381  18
  -6   8 -11 395.582 58.8079  17
  -6  -8 -11 449.050 57.6810  26
  -6   8 -11 450.784 57.1379  26
  -6  -8 -12 8.54695 19.6122  18
  -6   8 -12 19.9342 25.9751  17
  -6  -8 -13 26.7361 15.1913  18
  -6   8 -13 12.5083 15.7376  17
   6  -9 -13 566.365 43.7077  14
   6   9 -13 567.869 44.8641  24
   6  -9 -12 334.465 45.1830   5
   6  -9 -12 304.816 41.7592  14
   6   9 -12 403.242 48.9878  24
   6  -9 -11 3745.73 166.512   5
   6   9 -11 3769.90 170.027  15
   6  -9 -11 3690.69 155.559  14
   6   9 -11 3717.08 163.736  24
   6  -9 -10 6012.66 232.982   5
   6   9 -10 6150.05 237.140  15
   6  -9 -10 6402.70 230.307  25
   6   9 -10 6314.16 231.421  24
   6  -9  -9 70.7386 34.7206  19
   6  -9  -9 135.842 42.6685   5
   6   9  -9 100.505 36.1943  15
   6  -9  -9 66.2318 34.5855  25
   6  -9  -8 794.606 83.1575   5
   6  -9  -8 852.135 85.6133  19
   6   9  -8 788.849 82.3711  15
   6  -9  -8 864.440 86.1617  25
   6   9  -8 863.922 80.2656  25
   6  -9  -8 1048.16 96.8426  24
   6  -9  -7 30.5194 24.4474  19
   6  -9  -7 29.1671 23.1628   5
   6   9  -7 25.9346 24.2828  15
   6  -9  -7 7.71272 26.7527  25
   6   9  -7-20.2449 29.4829  16
   6  -9  -6 12014.7 342.352  19
   6   9  -6 11785.7 348.986  16
   6   9  -6 11500.5 342.256  15
   6  -9  -6 11244.9 339.865  25
   6  -9  -6 11318.5 334.895  24
  -6  -9   5 44.2537 80.4645   3
   6   9  -5-3.35250 55.3987  33
   6  -9  -5 68.5730 48.0906  28
   6   9  -4 3847.95 322.846  33
   6  -9  -4 4032.91 319.555   4
   6   9  -4 3995.67 326.786   4
   6  -9  -4 4005.14 328.444  28
  -6  -9   4 3547.35 326.985   3
   6   9  -3 3275.24 286.269  33
   6  -9  -3 4058.41 302.966   4
   6   9  -3 3554.96 292.730   4
   6  -9  -3 3618.75 301.216  28
  -6  -9   3 3927.70 327.976   3
  -6  -9   2 885.901 154.711   3
   6   9  -2 985.689 155.642  33
   6  -9  -2 936.866 155.416   1
   6  -9  -2 1074.60 150.086   4
   6  -9  -2 999.927 151.063  28
   6   9  -2 1066.87 153.133   4
   6  -9  -1 8317.66 468.761   1
   6  -9  -1 8465.11 431.587  28
   6  -9  -1 9125.84 443.454   4
   6   9  -1 8824.99 446.394   4
  -6  -9   1 8163.86 455.014   3
  -6  -9   0 463.926 106.385   3
   6  -9   0 677.327 116.174  28
  -6  -9   0 386.243 91.2702   2
   6  -9   0 483.599 99.1928   4
   6   9   0 486.392 105.449   4
   6  -9   0 343.663 104.221   1
  -6  -9  -1 29.3591 33.1399   2
  -6  -9  -1 144.370 54.9413   3
   6  -9   1 100.331 68.5724   1
   6  -9   1-4.18948 44.3644   4
   6   9   1-6.11041 41.2602   4
   6  -9   2 5021.20 367.791   1
  -6  -9  -2 5144.92 363.417   2
  -6  -9  -2 5466.48 343.474   3
   6  -9   3 4643.70 358.809   1
  -6  -9  -3 4860.24 362.907   2
   6  -9   4 1995.60 239.260   1
  -6  -9  -4 1995.59 238.367   2
  -6  -9  -4 2390.77 263.190  29
   6  -9   5 2549.53 277.670   1
  -6  -9  -5 2637.63 284.726   2
  -6  -9  -5 2138.49 260.016  29
  -6   9  -6 167.220 42.8115   8
  -6   9  -6 171.949 40.2212  26
  -6  -9  -6 156.090 38.9862  26
  -6   9  -7 582.492 75.3581   8
  -6   9  -7 581.995 71.7330  26
  -6  -9  -7 495.155 68.6500  26
  -6   9  -8 440.071 64.1243   8
  -6  -9  -8 525.233 69.3285  26
  -6   9  -8 486.065 67.5855  26
  -6  -9  -9-1.99888 22.3461   9
  -6  -9  -9-8.04885 26.9227  18
  -6   9  -9 26.5010 29.9254  17
  -6   9  -9-18.3662 29.8363  26
  -6  -9  -9-18.8073 26.5423  26
  -6  -9 -10 50.8327 27.3095  18
  -6   9 -10 30.5801 29.1473  17
  -6   9 -10 10.1076 21.8184  26
  -6  -9 -10 22.9862 26.2387  26
  -6  -9 -11-19.2213 24.7542  18
  -6   9 -11-39.3715 34.3598  17
  -6   9 -11 8.94747 22.5638  26
  -6  -9 -11 0.87965 20.7642  26
  -6  -9 -12 768.682 63.2898  18
  -6   9 -12 813.279 70.8131  17
  -6   9 -13 280.487 38.2680  21
  -6   9 -13 345.566 38.7642  17
   6 -10 -12 34.3553 21.5812   5
   6 -10 -12 61.7792 20.6793  14
   6  10 -12 29.1487 23.1699  24
   6 -10 -11 559.055 62.3843   5
   6  10 -11 525.397 66.8007  15
   6 -10 -11 455.783 55.2822  14
   6  10 -11 490.313 60.2663  24
   6 -10 -10 70.8344 34.4771   5
   6  10 -10 81.0433 38.1733  15
   6  10 -10 41.8953 31.8896  24
   6 -10  -9 3618.94 178.294   5
   6 -10  -9 3494.01 172.862  19
   6  10  -9 3770.08 183.085  15
   6 -10  -9 3669.75 175.906  25
   6 -10  -8 32.5036 30.4087  19
   6 -10  -8 49.2754 28.0916   5
   6  10  -8 52.0268 35.3408  15
   6 -10  -8-43.9995 44.9568  25
   6  10  -8 5.47246 23.8894  25
   6 -10  -7 4226.12 196.767   5
   6 -10  -7 4568.46 197.828  19
   6  10  -7 4777.33 205.774  16
   6  10  -7 4306.96 197.382  15
   6 -10  -7 4057.57 191.066  25
   6 -10  -7 4761.94 204.005  24
   6  10  -6 858.807 82.5233  21
   6 -10  -6 815.352 79.7739  19
   6  10  -6 814.678 81.6863  15
   6 -10  -6 806.903 81.9831  25
   6  10  -5 2433.69 138.820  21
   6 -10  -5 2389.78 133.343  19
   6  10  -5 2289.03 136.016  16
   6  10  -5 2374.05 135.906  15
   6 -10  -5 2345.40 135.994  25
   6 -10  -5 2770.08 147.458  24
   6 -10  -5 2375.18 136.870  23
   6  10  -4 11527.2 582.573  33
   6 -10  -4 11372.7 581.677  28
  -6 -10   4 11585.1 619.302   3
  -6 -10   3 37.9826 77.2429   3
   6  10  -3 60.5159 54.4591  33
   6 -10  -3 17.2402 48.0079  28
   6 -10  -2 13613.1 632.584   1
   6  10  -2 15399.8 642.683  33
   6 -10  -2 14408.1 618.463  28
  -6 -10   2 15384.4 671.786   3
   6 -10  -1 2401.42 229.353  28
  -6 -10   1 1935.75 221.729   3
   6 -10  -1 2140.55 237.050   1
   6 -10   0 8054.61 415.188  28
   6 -10   0 7204.88 445.855   1
  -6 -10   0 7736.48 441.519   3
  -6 -10  -1 12.0342 33.8155   3
   6 -10   1 39.1662 53.7711   1
  -6 -10  -1 101.860 63.7710   2
   6 -10   2 11866.9 593.613   1
  -6 -10  -2 11727.4 572.434   2
  -6 -10  -2 12228.3 544.120   3
   6 -10   3 13141.7 636.756   1
  -6 -10  -3 12801.2 621.684   2
   6 -10   4 167.107 78.9331   1
  -6 -10  -4 109.649 64.9071   2
  -6 -10  -4 244.483 83.8571  29
   6 -10   5 265.999 86.9742   1
  -6  10  -5 288.231 52.7150   8
  -6  10  -5 207.946 41.9860  26
  -6 -10  -5 232.327 44.2789  26
  -6 -10  -5 300.850 51.9544   6
  -6  10  -6 1084.56 99.7298   8
  -6  10  -6 1282.56 102.434  26
  -6 -10  -6 1197.57 101.339  26
  -6  10  -7 3520.58 184.330   8
  -6  10  -7 3449.31 172.632  17
  -6  10  -7 3105.66 167.694  26
  -6 -10  -7 3253.61 170.809  26
  -6  10  -8 27.9262 27.2508  17
  -6  10  -8-39.8048 36.4203   8
  -6  10  -8-1.18456 29.3086  26
  -6 -10  -8 5.23619 26.5291  26
  -6 -10  -9 134.323 36.7781   9
  -6 -10  -9 135.754 38.8380  18
  -6  10  -9 103.005 37.7320  17
  -6  10  -9 217.005 46.0371   8
  -6  10  -9 83.4010 34.8487  26
  -6 -10  -9 81.5672 32.5379  26
  -6 -10 -10 39.5962 30.1796  18
  -6  10 -10 46.0276 33.0876  17
  -6  10 -10 37.0530 31.8919  26
  -6 -10 -10 61.1443 34.6627  26
  -6 -10 -11 274.729 43.7915  18
  -6  10 -11 293.904 49.6017  17
  -6  10 -11 258.218 42.7423  26
  -6 -10 -11 293.840 47.0419  26
  -6 -10 -12 75.6672 24.4532  18
  -6  10 -12 116.943 32.7179  17
   6 -11 -12 1503.57 86.6795   5
   6 -11 -12 1464.14 81.8328  14
   6  11 -12 1555.65 86.9710  24
   6 -11 -11 591.852 62.6552   5
   6  11 -11 687.270 68.2032  24
   6 -11 -10 279.421 51.8124   5
   6  11 -10 359.975 60.0195  15
   6  11 -10 225.176 46.6085  24
   6 -11  -9 7068.93 260.984   5
   6 -11  -9 6979.57 255.248  19
   6 -11  -9 7629.16 262.055  25
   6  11  -9 7637.77 268.399  15
   6 -11  -8 3177.14 168.528   5
   6 -11  -8 2992.23 161.317  19
   6  11  -8 3370.33 170.862  16
   6  11  -8 3324.44 170.877  15
   6 -11  -8 2972.10 160.137  25
   6  11  -7 342.013 55.2051  21
   6 -11  -7 356.485 55.6727  19
   6 -11  -7 384.198 61.3895   5
   6  11  -7 452.812 64.4837  15
   6  11  -7 339.149 56.5077  16
   6 -11  -7 317.792 55.1631  25
   6  11  -6 780.373 81.2821  21
   6 -11  -6 707.956 77.4046  19
   6  11  -6 911.162 87.0588  15
   6 -11  -6 808.047 81.1676  25
   6 -11  -6 770.393 77.3531  23
   6  11  -5 15.1135 18.9135  21
   6 -11  -5 57.0410 26.4578  23
   6 -11  -4 3435.70 316.308  28
   6  11  -4 3648.63 322.334  33
  -6 -11   4 3268.49 329.865   3
   6  11  -3 2692.49 266.346  33
   6 -11  -3 2263.54 253.423   1
   6 -11  -3 2561.86 265.317  28
  -6 -11   3 2591.63 280.851   3
  -6 -11   2 60.7239 55.9764   3
   6 -11  -2 18.6097 41.7515  28
   6 -11  -2 10.7131 42.3291   1
  -6 -11   1 1118.85 172.999   3
   6 -11  -1 933.595 148.616  28
   6 -11  -1 1134.02 177.689   1
   6 -11   0 6062.04 413.275   1
  -6 -11   0 5969.88 396.995   3
  -6 -11  -1 150.190 71.5148   3
   6 -11   1 64.4773 66.2502   1
  -6 -11  -1 23.9735 44.9953   2
   6 -11   2 7428.02 470.742   1
  -6 -11  -2 6994.59 443.678   2
   6 -11   3 993.574 167.540   1
  -6 -11  -3 717.291 147.241   2
   6 -11   4 5273.93 410.140   1
  -6  11  -4 4856.34 211.837   8
  -6 -11  -4 4657.90 381.736  29
  -6  11  -5 3911.70 177.021  17
  -6  11  -5 3627.21 186.189   8
  -6  11  -5 3921.88 183.571  26
  -6 -11  -5 3831.49 181.854  26
  -6 -11  -5 4157.06 189.039   6
  -6  11  -6 3383.55 168.902  17
  -6  11  -6 3364.94 180.528   8
  -6  11  -6 3198.86 167.916  26
  -6 -11  -6 3342.92 170.697  26
  -6  11  -7 699.279 80.7479   8
  -6  11  -7 748.733 81.2234  17
  -6  11  -7 689.963 79.2532  26
  -6 -11  -7 772.404 82.9879  26
  -6  11  -8 118.851 41.8777  17
  -6  11  -8 107.388 38.9984   8
  -6  11  -8 76.0543 35.9629  26
  -6 -11  -8 55.3028 28.4898  26
  -6 -11  -9 345.514 53.4615   9
  -6 -11  -9 365.706 53.5882  18
  -6  11  -9 436.777 65.5936  17
  -6  11  -9 383.803 60.0475   8
  -6  11  -9 288.510 52.3806  26
  -6 -11  -9 356.734 57.6458  26
  -6 -11 -10 5661.30 212.820  18
  -6  11 -10 6008.62 228.981  17
  -6  11 -10 5774.86 221.136  26
  -6 -11 -10 5820.46 219.902  26
  -6 -11 -11 278.773 42.7355  18
  -6  11 -11 240.811 44.0639  17
  -6 -11 -11 208.480 36.7494  26
  -6 -11 -12 586.571 51.9787  18
  -6  11 -12 696.398 62.1172  17
   6 -12 -12 679.291 57.1865   5
   6 -12 -12 628.943 51.4808  14
   6  12 -12 733.123 58.4446  24
   6 -12 -11 359.902 50.3769   5
   6  12 -11 389.183 51.0147  24
   6 -12 -10 449.088 60.7143   5
   6  12 -10 445.516 59.2984  24
   6 -12  -9 470.984 66.7757  19
   6 -12  -9 404.555 64.3644   5
   6  12  -8 319.616 52.2302  21
   6 -12  -8 182.198 42.8181  19
   6 -12  -8 252.760 51.6963   5
   6  12  -8 332.526 55.7375  16
   6  12  -8 359.316 58.4349  15
   6  12  -7 148.460 36.5596  21
   6 -12  -7 134.225 36.4206  19
   6 -12  -7 168.151 45.8064   5
   6  12  -7 106.638 37.2982  16
   6 -12  -7 213.694 48.2866  25
   6  12  -6 302.792 51.0229  21
   6 -12  -6 328.970 52.7448  19
   6 -12  -6 236.138 41.1317  25
   6 -12  -6 375.417 57.0891  23
   6  12  -5 23.8870 21.7593  21
   6 -12  -5 55.2622 27.0835  25
   6 -12  -5 19.7264 23.8679  23
   6  12  -4 745.602 77.7666  21
   6  12  -4 640.612 73.2914  16
   6 -12  -4 720.725 72.7047  25
   6 -12  -4 681.983 73.5036  23
   6  12  -3 2388.76 258.861  33
   6 -12  -3 2588.48 275.113   1
   6 -12  -3 2271.25 251.655  28
  -6 -12   3 1907.26 246.097   3
  -6 -12   2 713.398 147.706   3
   6 -12  -2 437.488 111.322  28
   6 -12  -2 554.680 118.951   1
  -6 -12   1 542.726 124.557   3
   6 -12  -1 462.896 114.590   1
   6 -12  -1 599.311 125.151  28
  -6 -12   0 562.949 124.956   3
   6 -12   0 321.898 97.8467   1
  -6 -12  -1 141.943 84.1262   3
   6 -12   1 300.341 95.8735   1
  -6 -12  -1 208.671 75.0178   2
   6 -12   2 4505.61 372.663   1
  -6 -12  -2 3645.87 327.726   2
   6 -12   3 1680.41 229.502   1
  -6 -12  -3 1828.00 240.623   2
  -6  12  -4 4558.47 209.077   8
  -6  12  -4 4847.05 204.834  26
  -6 -12  -4 4951.44 205.216   6
  -6  12  -5 9217.80 292.622  17
  -6  12  -5 8472.63 306.272   8
  -6  12  -5 8833.24 299.000  26
  -6 -12  -5 9624.78 308.556   6
  -6  12  -6 14719.7 399.540  17
  -6  12  -6 13899.1 411.868   8
  -6 -12  -6 14261.4 401.464  26
  -6  12  -7 3073.08 173.841   8
  -6  12  -7 3353.99 171.999  17
  -6  12  -7 2965.77 165.981  26
  -6 -12  -7 3186.45 169.741  26
  -6  12  -8 1066.19 101.536   8
  -6  12  -8 1119.56 99.3846  17
  -6  12  -8 1276.92 105.877  26
  -6 -12  -8 1130.76 99.3517  26
  -6 -12  -9 960.430 83.6203   9
  -6  12  -9 995.062 89.8899   8
  -6  12  -9 871.042 87.3909  17
  -6  12  -9 969.184 90.3005  26
  -6 -12  -9 792.828 81.7699  26
  -6 -12 -10 1474.98 101.599  18
  -6  12 -10 1637.03 109.721  26
  -6  12 -10 1479.66 107.061  17
  -6 -12 -10 1605.17 107.771  26
  -6 -12 -11 15.2821 21.3865  18
  -6  12 -11 48.1351 29.4560  17
  -6 -12 -11 54.1097 25.0522  26
  -6  12 -12 276.991 41.4476  21
  -6 -12 -12 355.821 39.7195  18
  -6  12 -12 410.551 47.1294  17
   6 -13 -12 3553.93 127.722   5
   6 -13 -12 3199.62 117.060  14
   6  13 -12 3520.06 126.586  24
   6 -13 -11 1916.45 106.721   5
   6  13 -11 1909.80 105.110  24
   6 -13 -10 975.752 86.5847   5
   6 -13 -10 740.364 72.6739  19
   6  13 -10 830.429 80.5001  24
   6 -13  -9 580.481 71.8500   5
   6 -13  -9 576.310 69.9362  19
   6  13  -9 648.552 69.2976  16
   6  13  -8 7920.28 273.431  21
   6 -13  -8 7206.05 266.447   5
   6 -13  -8 7068.20 260.512  19
   6  13  -8 7640.63 273.437  16
   6 -13  -8 7915.76 274.537  25
   6  13  -7 1011.31 92.4893  21
   6 -13  -7 1151.93 101.459   5
   6 -13  -7 963.218 90.1669  19
   6  13  -7 1101.37 99.8152  16
   6 -13  -7 1260.32 112.171  25
   6  13  -6 2776.36 157.185  21
   6 -13  -6 2675.40 149.634  19
   6 -13  -6 2720.68 153.352  25
   6 -13  -6 2849.32 154.714  23
   6  13  -5 980.221 92.6434  21
   6 -13  -5 870.196 86.7576  25
   6 -13  -5 985.372 89.1727  23
   6  13  -4 5583.98 227.263  21
   6  13  -4 5329.90 223.762  16
   6 -13  -4 5410.31 216.959  25
   6  13  -4 5825.45 220.200  12
   6 -13  -4 5559.12 224.809  23
   6 -13  -3 7243.71 470.232   1
   6  13  -3 7261.21 263.198  16
   6 -13  -3 7042.10 246.030  25
   6 -13  -3 6906.86 253.812  27
   6  13  -3 7617.33 258.490  12
   6 -13  -3 7067.86 256.285  23
   6 -13  -2 1472.07 211.041   1
   6 -13  -2 1998.97 240.123  28
  -6 -13   2 1410.53 216.453   3
   6 -13  -1 7709.44 465.215  28
   6 -13  -1 8265.25 504.795   1
  -6 -13   1 7370.34 482.982   3
  -6 -13   0 731.652 145.014   3
   6 -13   0 682.791 139.736   1
  -6 -13  -1 1188.60 183.643   3
  -6 -13  -1 1061.66 175.338   2
   6 -13   1 1138.16 189.131   1
   6 -13   2 847.146 163.155   1
  -6 -13  -2 870.970 172.769   2
  -6  13  -3 14281.2 408.914   8
  -6  13  -3 14688.3 397.739  26
  -6 -13  -3 13675.7 384.438   6
   6  13   3 15224.0 401.205  12
  -6  13  -4 4448.39 189.029  17
  -6  13  -4 4799.61 215.176   8
  -6  13  -4 4243.82 194.666  26
  -6 -13  -4 4652.52 202.166   6
   6  13   4 4676.41 196.994  12
  -6  13  -5 608.614 68.9561  17
  -6  13  -5 558.691 68.5325  26
  -6  13  -5 386.289 62.8328   8
  -6 -13  -5 528.839 69.6126   6
  -6  13  -6 5297.81 233.099   8
  -6  13  -6 5147.93 215.510  17
  -6  13  -6 4867.85 216.536  26
  -6 -13  -6 5147.25 221.100  26
  -6 -13  -6 5647.16 230.748   6
  -6  13  -7 416.210 62.6683  17
  -6  13  -7 440.005 66.0049   8
  -6  13  -7 370.066 60.5437  26
  -6 -13  -7 385.762 62.6507  26
  -6  13  -8 596.557 75.6806   8
  -6  13  -8 447.189 65.7325  17
  -6  13  -8 497.795 67.5726  26
  -6 -13  -8 492.132 66.8964  26
  -6 -13  -9 1547.29 104.680   9
  -6  13  -9 1520.81 111.595   8
  -6  13  -9 1538.56 112.930  17
  -6 -13  -9 1540.09 111.839  26
  -6  13  -9 1548.11 111.941  26
  -6 -13 -10 111.268 32.8560  18
  -6  13 -10 60.5531 35.8014  17
  -6 -13 -10 73.1817 33.0028  26
  -6 -13 -11 332.137 44.1450  18
  -6  13 -11 329.675 50.1742  17
  -6 -13 -11 335.171 43.1404  26
  -6  13 -12 407.620 45.2969  21
  -6 -13 -12 378.256 38.6106  18
   6 -14 -12 1134.76 61.5134  14
   6  14 -12 1256.46 68.2187  24
   6 -14 -11 1974.35 104.674   5
   6  14 -11 1969.59 103.221  24
   6 -14 -10 778.833 75.1004   5
   6 -14 -10 745.705 71.4459  19
   6  14 -10 824.732 74.3249  24
   6  14  -9 1086.53 88.8861  21
   6 -14  -9 1052.61 91.3404   5
   6 -14  -9 962.764 86.6219  19
   6  14  -9 1118.94 91.6439  16
   6  14  -8 1450.54 109.856  21
   6 -14  -8 1583.73 115.537   5
   6 -14  -8 1374.76 106.927  19
   6  14  -8 1572.74 116.923  16
   6  14  -7 537.546 68.8739  21
   6 -14  -7 468.577 64.2269  19
   6 -14  -7 447.277 66.7513   5
   6  14  -7 447.048 66.1251  16
   6  14  -6 7230.79 271.552  21
   6 -14  -6 7164.17 261.734  19
   6  14  -6 7024.96 270.644  16
   6 -14  -6 8019.80 275.043  25
   6 -14  -6 7836.29 271.476  23
   6  14  -5 8673.32 300.131  21
   6  14  -5 8316.56 298.455  16
   6 -14  -5 8725.31 290.994  25
   6 -14  -5 9122.02 299.987  23
   6  14  -4 59.9759 30.0323  21
   6 -14  -4 117.596 38.7112  27
   6 -14  -4 84.3424 32.8508  23
   6  14  -4 84.2697 35.4645  16
   6  14  -4 27.8039 26.4159  12
   6  14  -3 3717.14 182.043  16
   6 -14  -3 3436.50 174.192  27
   6 -14  -3 3522.38 168.561  25
   6  14  -3 3804.43 179.214  12
   6 -14  -3 3520.37 176.516  23
   6  14  -2 43086.0 884.074  16
   6 -14  -2 42525.9 883.146  27
   6 -14  -2 40786.4 845.378  25
   6 -14  -2 42504.7 882.443  23
   6  14  -2 44017.1 882.794  12
   6 -14  -1 231.174 85.7990   1
  -6 -14   1 250.773 89.6547   3
   6 -14  -1 304.155 109.376  28
   6  14  -1 278.884 51.5108  16
   6 -14  -1 148.351 40.1293  27
  -6 -14   1 289.730 52.5376   7
   6 -14  -1 281.834 51.8930  23
   6  14  -1 258.330 49.1825  12
   6  14   0 5173.24 212.024  16
   6 -14   0 5039.96 215.547  27
   6 -14   0 5287.75 411.862   1
  -6 -14   0 5582.48 221.086   7
   6 -14   0 5369.78 218.379  23
   6  14   0 4982.40 211.020  12
   6 -14   1 2838.84 157.187  27
   6 -14   1 2793.95 152.180  23
   6  14   1 2654.58 149.666  12
  -6 -14  -1 2922.58 293.282   2
  -6  14  -2 683.862 78.4486   8
   6  14   2 650.709 70.4173  16
  -6  14  -2 687.383 73.6635  26
   6 -14   2 720.501 80.4645  27
   6 -14   2 683.081 73.7842  23
   6  14   2 647.160 73.2539  12
  -6  14  -3 1398.24 107.077  26
  -6  14  -3 1366.44 110.799   8
   6 -14   3 1436.11 113.522  27
  -6 -14  -3 1424.07 105.979   6
   6  14   3 1334.04 104.628  12
  -6  14  -4 2128.85 127.799  17
  -6  14  -4 2167.83 144.371   8
   6 -14   4 2120.28 138.847  27
  -6  14  -4 2143.76 134.567  26
  -6 -14  -4 2279.30 140.688   6
   6  14   4 2220.98 134.370  12
  -6  14  -5 35.2655 24.4841  17
   6 -14   5 59.8036 32.9506  27
  -6  14  -5 64.5603 36.5382   8
  -6  14  -5-0.34521 31.7332  26
  -6 -14  -5 45.4144 32.7443   6
  -6  14  -6 949.302 97.2638   8
  -6  14  -6 977.477 91.0771  17
  -6  14  -6 1032.10 96.1029  26
  -6 -14  -6 931.435 92.5017  26
  -6 -14  -6 1006.91 93.3100   6
  -6  14  -7 194.296 43.8801  17
  -6  14  -7 253.716 53.8957   8
  -6 -14  -7 221.979 47.4085  26
  -6  14  -7 205.599 52.5391  26
  -6  14  -8 1363.83 111.015   8
  -6  14  -8 1607.40 116.153  17
  -6  14  -8 1437.36 110.451  26
  -6 -14  -8 1272.85 104.303  26
  -6  14  -9 5208.21 210.608   8
  -6  14  -9 4972.33 206.468  17
  -6 -14  -9 4964.85 204.091  26
  -6 -14 -10 14.5619 23.2613  18
  -6  14 -10 26.1829 26.7214  17
  -6  14 -10 45.7106 26.4061   8
  -6 -14 -10 23.2156 24.0879  26
  -6  14 -11 652.956 61.2234  21
  -6 -14 -11 677.246 57.6711  18
  -6  14 -11 675.302 64.4396  17
  -6 -14 -11 716.495 58.9320  26
  -6  14 -12 580.747 49.1508  21
   6 -15 -11 812.378 63.3573   5
   6  15 -11 776.554 61.8176  24
   6 -15 -10 449.136 54.4895  19
   6 -15 -10 415.208 54.4387   5
   6  15 -10 470.218 57.1835  24
   6 -15  -9 3559.53 166.780   5
   6 -15  -9 3664.22 166.852  19
   6  15  -9 3839.39 170.773  16
   6  15  -8 283.292 50.2595  21
   6 -15  -8 189.786 48.0372  19
   6 -15  -8 175.483 43.5089   5
   6  15  -8 180.067 45.3747  16
   6  15  -7-16.8787 32.1261  21
   6 -15  -7 51.0613 31.5027  19
   6 -15  -7 10.6589 28.6244   5
   6  15  -7 61.4912 34.2472  16
   6  15  -6 482.448 67.9350  21
   6 -15  -6 511.688 68.0503  19
   6  15  -6 482.618 70.5366  16
   6 -15  -6 588.109 71.0289  23
   6  15  -5 19593.1 512.533  21
   6  15  -5 19383.9 512.926  16
   6 -15  -5 20806.9 502.995  25
   6 -15  -5 20578.3 511.349  23
   6  15  -4 7412.67 273.443  21
   6  15  -4 7023.83 270.182  16
   6 -15  -4 7912.82 275.397  27
   6 -15  -4 7604.71 263.889  25
   6  15  -4 7827.51 270.210  12
   6 -15  -4 7319.23 270.589  23
   6  15  -3 2749.60 158.309  16
   6 -15  -3 2909.73 155.112  25
  -6 -15   3 2707.12 151.882   7
   6 -15  -3 2941.92 161.805  23
   6  15  -3 2626.50 150.666  12
   6 -15  -3 2967.29 160.147  27
   6  15  -2 32227.3 706.968  16
   6 -15  -2 30397.6 701.453  27
   6 -15  -2 29917.2 695.812  23
   6  15  -2 31919.2 702.949  12
   6  15  -1 3344.73 170.875  16
  -6 -15   1 2978.80 162.064   7
   6 -15  -1 3259.96 173.102  27
   6 -15  -1 3363.86 171.303  23
   6  15  -1 3252.88 167.416  12
   6  15   0 42175.3 850.881  16
   6 -15   0 37162.7 842.025  27
  -6 -15   0 43927.6 866.149   7
   6 -15   0 43960.8 867.457  23
   6  15   0 38658.9 841.459  12
   6  15   1 206.453 41.7809  16
   6 -15   1 252.261 52.6492  27
  -6  15  -1 169.633 40.1013   8
   6 -15   1 249.881 45.0053  23
   6  15   1 227.792 46.1653  12
  -6  15  -2 1179.48 102.220   8
   6  15   2 1164.21 94.9541  16
   6 -15   2 1268.23 106.656  27
   6 -15   2 1074.53 95.7876  23
   6  15   2 1170.56 98.9155  12
  -6  15  -3 582.092 74.3378   8
   6 -15   3 518.742 68.7734  27
  -6 -15  -3 583.852 67.3945   6
   6  15   3 616.148 71.4342  12
  -6  15  -4 530.377 66.9861  17
   6 -15   4 589.916 75.3209  27
  -6  15  -4 450.744 69.7756  26
  -6  15  -4 475.802 74.8087   8
   6  15   4 314.040 54.2369  12
  -6 -15  -4 489.848 65.2019   6
  -6  15  -5 5902.24 230.457  17
  -6  15  -5 5515.32 241.394   8
   6 -15   5 6438.15 249.530  27
  -6  15  -5 5599.35 233.972  26
  -6 -15  -5 6039.02 240.258   6
  -6  15  -6 1307.96 113.701   8
  -6  15  -6 1338.95 106.807  17
  -6  15  -6 1201.48 104.213  26
  -6 -15  -6 1410.05 112.083  26
  -6 -15  -6 1262.19 105.909   6
  -6  15  -7 7342.38 276.698   8
  -6  15  -7 7714.83 269.583  17
  -6  15  -7 7038.12 266.192  26
  -6 -15  -7 6895.88 261.363  26
  -6  15  -8 277.054 50.6239  17
  -6  15  -8 332.296 58.4928   8
  -6 -15  -8 282.118 53.2752  26
  -6  15  -9 1512.50 107.845   8
  -6  15  -9 1399.00 105.469  17
  -6 -15  -9 1422.35 101.939  26
  -6  15 -10 379.607 52.4216  21
  -6 -15 -10 429.267 50.9814  18
  -6  15 -10 408.186 56.0430  17
  -6  15 -10 346.130 47.7682   8
  -6 -15 -10 424.618 52.2530  26
  -6  15 -11 2054.18 103.265  21
  -6 -15 -11 1886.48 92.7145  18
  -6 -15 -11 2016.96 93.9139  26
   6 -16 -11 193.806 30.9232   5
   6  16 -11 187.436 33.2261  24
   6 -16 -10 458.317 53.4704   5
   6  16 -10 422.599 47.8039  16
   6  16 -10 441.513 52.6045  24
   6 -16  -9 986.984 83.2642   5
   6 -16  -9 1003.32 84.4525  19
   6  16  -9 1073.13 87.8171  16
   6  16  -8 5184.20 211.860  21
   6 -16  -8 5298.69 210.269   5
   6 -16  -8 5280.62 209.732  19
   6  16  -8 5359.12 217.803  16
   6  16  -7 3493.77 176.919  21
   6 -16  -7 3486.27 171.251   5
   6 -16  -7 3278.33 167.003  19
   6  16  -7 3383.22 175.673  16
   6  16  -6 282.844 57.0492  16
   6  16  -6 273.300 54.1216  21
   6 -16  -6 232.773 50.7486  19
   6 -16  -6 391.702 61.3797  23
   6  16  -5 16923.4 463.250  21
   6  16  -5 17004.3 467.306  16
   6 -16  -5 17806.3 463.620  23
   6  16  -4 8686.05 308.441  16
   6 -16  -4 9682.18 315.604  27
   6  16  -4 9606.94 307.747  12
   6 -16  -4 9004.87 306.810  23
   6  16  -3 960.855 92.8849  16
   6 -16  -3 816.111 86.6945  27
  -6 -16   3 930.105 89.3767   7
   6 -16  -3 985.601 92.6212  23
   6  16  -3 943.794 90.5801  12
   6  16  -2 432.087 65.3381  16
   6 -16  -2 456.175 66.6266  27
  -6 -16   2 444.463 63.2520   7
   6 -16  -2 484.959 67.2677  23
   6  16  -2 454.162 64.1820  12
   6  16  -1 3770.68 183.715  16
   6 -16  -1 3531.84 181.833  27
  -6 -16   1 3914.74 187.933   7
   6 -16  -1 3490.89 179.595  23
   6  16  -1 3700.39 182.144  12
   6  16   0 2181.39 136.491  16
  -6 -16   0 2200.99 141.045   7
   6 -16   0 2243.51 144.207  27
   6 -16   0 2282.55 141.923  23
   6  16   0 2111.69 135.581  12
  -6  16  -1 5823.39 235.681   8
   6  16   1 6473.74 241.084  16
   6 -16   1 6521.29 253.841  27
   6 -16   1 5866.52 238.526  23
   6  16   1 5668.89 235.826  12
  -6  16  -2 6388.55 248.924   8
   6  16   2 6195.48 233.947  16
   6 -16   2 5861.88 242.753  27
   6 -16   2 5780.18 235.702  23
   6  16   2 5824.52 236.959  12
  -6  16  -3 4050.40 199.150   8
   6 -16   3 4515.70 207.146  27
  -6 -16  -3 4380.36 195.476   6
   6  16   3 4137.96 194.798  12
  -6  16  -4 1155.62 105.582   8
   6 -16   4 1186.67 104.633  27
  -6 -16  -4 1217.61 102.447   6
   6  16   4 1299.49 103.653  12
  -6  16  -5-9.67386 27.1753  17
   6 -16   5 17.4861 24.9356  27
  -6  16  -5-21.0297 35.9785   8
  -6 -16  -5 7.00248 30.4498   6
  -6  16  -6-1.11321 26.3178  17
  -6  16  -6 24.5745 31.8621   8
  -6 -16  -6 29.4908 32.2815  26
  -6 -16  -6-9.13977 26.8477   6
  -6  16  -7 129.792 40.3174  17
  -6  16  -7 210.162 52.3161   8
  -6 -16  -7 137.884 41.0802  26
  -6  16  -8 58.7175 30.2051  17
  -6  16  -8 144.326 45.5057   8
  -6 -16  -8 109.125 38.1878  26
  -6  16  -9 2814.33 141.117  21
  -6  16  -9 2714.28 142.638   8
  -6  16  -9 2698.29 141.562  17
  -6 -16  -9 2826.87 141.842  26
  -6  16 -10 58.9881 26.3844  21
  -6 -16 -10 41.6094 21.9689  18
  -6 -16 -10 88.9100 28.6153  26
  -6  16 -10 24.7561 19.0263   8
  -6  16 -11 1387.22 79.1059  21
  -6 -16 -11 1370.12 72.9413  18
   6 -17 -11 81.4524 21.1417   5
   6 -17 -11 52.4163 15.4925  14
   6  17 -11 93.4019 22.8552  24
   6 -17 -10 1758.77 95.5805   5
   6  17 -10 1808.49 93.5622  16
   6  17 -10 1780.45 97.0502  24
   6 -17  -9 518.649 60.5516  19
   6 -17  -9 456.765 56.9347   5
   6  17  -9 601.582 64.1603  16
   6 -17  -8 2885.60 147.167   5
   6 -17  -8 2817.60 146.610  19
   6  17  -8 2872.01 152.588  16
   6  17  -7 112.082 39.9453  21
   6 -17  -7 139.663 43.9238  19
   6 -17  -7 220.959 45.2154   5
   6  17  -7 229.430 50.0247  16
   6  17  -6 26.5234 29.2312  21
   6 -17  -6 54.2868 35.6247  19
   6 -17  -6 26.6520 26.0988   5
   6  17  -6 128.931 47.0183  16
   6 -17  -6 41.1446 30.4081  23
   6  17  -5 4836.74 218.436  16
   6 -17  -5 4739.23 209.184  23
   6  17  -4 989.904 100.634  16
   6 -17  -4 551.569 70.5014  27
   6  17  -4 973.300 99.6180  12
   6 -17  -4 432.418 66.6328  23
   6  17  -3 24637.9 591.385  16
   6 -17  -3 22904.9 574.474  27
   6 -17  -3 23614.0 581.384  23
   6  17  -3 24431.5 581.977  12
   6  17  -2 1143.91 100.612  16
  -6 -17   2 1330.58 107.375   7
   6 -17  -2 1106.24 100.577  23
   6  17  -2 1173.97 101.679  12
   6 -17  -2 1125.29 100.305  27
   6  17  -1 5874.75 233.312  16
   6 -17  -1 5153.19 226.214  27
  -6 -17   1 5299.94 226.725   7
   6 -17  -1 5436.71 230.762  23
   6  17  -1 5245.79 224.061  12
   6  17   0 365.191 57.6849  16
   6 -17   0 402.134 62.6083  27
  -6 -17   0 403.981 62.1652   7
   6 -17   0 332.582 52.4593  23
   6  17   0 349.449 59.8484  12
  -6  17  -1 3868.37 187.351   8
   6  17   1 3978.54 185.790  16
   6 -17   1 3781.23 188.814  23
   6  17   1 3787.66 188.232  12
   6 -17   1 4165.53 200.144  27
  -6  17  -2 1069.02 99.2246   8
   6 -17   2 1115.04 103.362  27
   6 -17   2 1126.50 99.1626  23
   6  17   2 967.097 93.6669  12
   6 -17   3 468.702 69.1033  27
  -6  17  -3 441.533 67.7947   8
  -6 -17  -3 593.250 70.3317   6
   6  17   3 495.581 67.4722  12
  -6  17  -4 5544.45 241.120   8
   6 -17   4 5916.65 242.994  27
  -6 -17  -4 6106.64 241.207   6
   6  17   4 6350.86 241.770  12
   6 -17   5 232.609 48.8983  27
  -6  17  -5 166.048 45.1512   8
  -6 -17  -5 205.070 48.8789   6
  -6  17  -6 108.013 47.5332   8
  -6 -17  -6 105.541 42.6962  26
  -6 -17  -6 119.091 34.2511   6
  -6  17  -7 653.815 67.4524  21
  -6  17  -7 593.044 76.3263   8
  -6 -17  -7 753.038 80.2059  26
  -6  17  -8 6459.67 226.135  21
  -6  17  -8 6341.66 240.050   8
  -6 -17  -8 6283.64 230.792  26
  -6  17  -9 514.409 58.8129  21
  -6  17  -9 530.166 62.3058   8
  -6 -17  -9 499.331 58.4323  26
  -6  17 -10 29.9398 21.3228  21
  -6 -17 -10 10.7761 21.5483  18
  -6  17 -10 32.5970 19.3615   8
  -6 -17 -10 10.7003 16.9393  26
   6 -18 -10 11.2032 17.5140   5
   6  18 -10 5.85945 15.2612  16
   6  18 -10 6.77732 20.6861  24
   6 -18  -9 4895.16 177.986   5
   6 -18  -9 5096.74 181.755  19
   6  18  -9 4735.38 179.895  16
   6 -18  -8 2246.82 124.648   5
   6 -18  -8 2357.92 128.335  19
   6  18  -8 2346.32 133.518  16
   6 -18  -7 3607.91 167.086   5
   6 -18  -7 3787.99 173.845  19
   6  18  -7 3578.97 177.024  16
   6 -18  -6 3623.86 172.158   5
   6 -18  -6 3490.56 169.794  19
   6  18  -6 3252.99 173.882  16
   6  18  -5 1096.95 100.445  16
   6 -18  -5 1054.74 94.7912  23
   6  18  -4 2327.40 148.065  16
   6 -18  -4 2472.31 146.046  27
  -6 -18   4 2629.09 150.079   7
   6 -18  -4 2361.49 146.883  23
   6  18  -4 2620.22 148.184  12
   6  18  -3 9621.50 322.350  16
   6 -18  -3 9457.81 317.625  27
  -6 -18   3 10487.0 330.872   7
   6 -18  -3 9249.74 317.477  23
   6  18  -3 9655.15 316.629  12
   6  18  -2 124.087 41.7520  16
   6 -18  -2 159.832 46.1263  27
  -6 -18   2 189.780 49.3202   7
   6 -18  -2 156.149 44.8657  23
   6  18  -2 146.239 40.6704  12
   6  18  -1 620.934 74.5937  16
   6 -18  -1 609.645 74.4467  27
  -6 -18   1 618.316 77.5147   7
   6 -18  -1 563.110 74.4784  23
   6  18  -1 648.654 77.3450  12
   6 -18   0 145.886 42.1225  27
  -6 -18   0 302.329 64.8000   7
   6 -18   0 344.851 59.0746  23
   6  18   0 231.985 51.3222  12
   6  18   0 267.183 51.4423  16
  -6  18  -1 1740.82 123.418   8
   6  18   1 1732.47 119.649  16
   6 -18   1 1837.86 131.613  27
   6 -18   1 1748.22 126.539  23
   6  18   1 1585.71 120.193  12
  -6  18  -2 9340.89 312.581   8
   6 -18   2 8693.53 308.541  27
   6 -18   2 9326.22 311.721  23
   6  18   2 8695.89 303.994  12
   6 -18   3 7.02389 28.7140  27
  -6  18  -3-21.0244 36.9230   8
   6  18   3 9.55284 29.8837  12
  -6 -18  -3-12.7507 24.2604   6
   6 -18   4 81.0991 32.3554  27
  -6  18  -4 103.105 42.5268   8
   6  18   4 175.429 44.1391  12
  -6 -18  -4 207.822 44.1587   6
   6 -18   5 209.806 44.0651  27
  -6  18  -5 245.032 54.7411   8
  -6 -18  -5 196.142 44.9696   6
  -6  18  -6 356.560 61.0030   8
  -6 -18  -6 395.410 62.0075  26
  -6 -18  -6 340.189 56.1446   6
  -6  18  -7 409.175 63.6379   8
  -6 -18  -7 292.875 54.2615  26
  -6  18  -8 568.520 59.6110  21
  -6  18  -8 722.560 78.5794   8
  -6 -18  -8 618.343 68.7616  26
  -6  18  -9 244.605 39.3102  21
  -6  18  -9 292.652 46.5995   8
  -6 -18  -9 280.484 42.6304  26
  -6  18 -10-19.7008 17.7930  21
  -6 -18 -10-9.95769 16.4919  18
  -6  18 -10-17.4264 19.5430   8
  -6 -18 -10 1.80896 14.9854  26
   6 -19 -10 18.5470 14.9586   5
   6  19 -10 27.0136 18.9779  24
   6 -19  -9 1337.13 82.3177   5
   6 -19  -9 1383.42 85.5459  19
   6  19  -9 1402.32 88.3298  16
   6 -19  -8 968.097 76.4829   5
   6 -19  -8 896.940 76.3742  19
   6  19  -8 906.977 80.2789  16
   6 -19  -7 80.3474 32.8160  19
   6 -19  -7 61.0074 27.0701   5
   6  19  -7 124.025 40.6491  16
   6 -19  -6-34.9917 29.8045  19
   6 -19  -6-3.59331 24.1591   5
   6  19  -6-3.39896 34.2215  16
   6 -19  -5-5.20061 21.9934  27
   6  19  -5 39.4703 31.2885  16
   6  19  -4 16.1329 29.7356  16
   6 -19  -4 19.4159 25.8166  27
  -6 -19   4 50.8384 31.9778   7
   6 -19  -4-8.71791 31.7810  23
   6  19  -4 21.8320 23.7249  12
   6 -19  -3 1314.88 108.149  27
   6  19  -3 1334.73 109.843  16
  -6 -19   3 1362.25 110.240   7
   6 -19  -3 1183.46 105.161  23
   6  19  -3 1315.19 106.891  12
   6  19  -2 3876.44 188.001  16
   6 -19  -2 3431.29 180.701  27
  -6 -19   2 3941.56 190.318   7
   6 -19  -2 3655.27 187.395  23
   6  19  -2 3612.25 183.985  12
   6  19  -1 50.2019 37.1058  16
   6 -19  -1-2.25712 28.4898  27
  -6 -19   1 67.7702 37.0360   7
   6 -19  -1 12.6243 33.8576  23
   6  19  -1 19.6850 30.2460  12
   6  19   0 3362.71 171.858  16
  -6 -19   0 3583.26 182.184   7
   6 -19   0 3265.04 176.308  23
   6  19   0 3274.02 175.477  12
   6 -19   0 3202.37 177.152  27
   6 -19   1 231.344 52.6482  27
  -6  19  -1 218.434 47.8623   8
   6  19   1 335.766 54.0412  16
   6 -19   1 281.848 52.4701  23
   6  19   1 260.384 54.9011  12
  -6  19  -2 13325.9 383.964   8
   6 -19   2 12243.7 379.601  27
   6  19   2 12107.8 371.602  12
   6 -19   3 529.433 71.5914  27
  -6  19  -3 472.597 67.8925   8
  -6 -19  -3 555.787 68.5643   6
   6  19   3 425.491 64.0012  12
   6 -19   4 397.621 59.2873  27
  -6  19  -4 422.201 66.4842   8
  -6 -19  -4 543.282 68.7358   6
   6  19   4 498.459 66.2905  12
   6 -19   5 45.9826 22.8760  27
  -6  19  -5 13.4298 33.1347   8
   6  19   5 3.00218 26.1198  12
  -6 -19  -5 6.00796 24.7952   6
  -6  19  -6 187.764 49.7325   8
  -6 -19  -6 213.054 47.6793  26
  -6  19  -7 26.2466 35.8256   8
  -6 -19  -7 97.7551 37.6815  26
  -6  19  -8 87.2062 32.4080   8
  -6 -19  -8 110.343 34.6538  26
  -6  19  -9 16.8147 19.3758  21
  -6 -19  -9 29.8292 20.2433  26
  -6  19  -9 44.4326 23.5422   8
  -6 -19 -10 19.5289 13.2428  26
   6 -20  -9 13.7727 16.9423   5
   6 -20  -9 38.8788 24.2491  19
   6  20  -9-8.63988 20.4908  16
   6  20  -9 23.2059 20.2434  24
   6 -20  -8-16.4016 26.8437  19
   6 -20  -8 16.2592 18.3125   5
   6  20  -8 28.3241 25.6113  16
   6 -20  -7 143.713 37.5583  19
   6 -20  -7 172.447 37.2924   5
   6  20  -7 197.847 50.4604  16
   6 -20  -6 14.0219 27.9087  19
   6 -20  -6-16.2794 28.7768   5
   6  20  -6-12.7265 33.5033  16
   6 -20  -5 563.127 65.0361   5
   6  20  -5 631.645 77.0105  16
   6 -20  -5 687.795 70.6457  27
   6  20  -4 434.936 64.9232  16
   6 -20  -4 412.689 59.6717  27
  -6 -20   4 383.498 56.0698   7
   6  20  -4 394.588 57.4810  12
   6 -20  -3 156.156 43.5761  27
   6  20  -3 105.039 41.1766  16
  -6 -20   3 112.606 39.3971   7
   6  20  -3 122.218 38.0392  12
   6  20  -2 1859.77 126.376  16
   6 -20  -2 1764.59 127.210  27
  -6 -20   2 1940.10 130.540   7
   6 -20  -2 1661.65 123.050  23
   6  20  -2 1583.52 118.634  12
   6  20  -1 61.0857 29.6936  16
   6 -20  -1 139.605 43.4464  27
  -6 -20   1 102.949 37.6331   7
   6  20  -1 29.7645 30.2511  12
   6  20   0 2085.66 130.829  16
   6 -20   0 1874.50 132.955  27
  -6 -20   0 1694.51 126.176   7
   6  20   0 1795.88 128.895  12
  -6  20  -1 4896.73 207.441   8
   6 -20   1 4671.99 215.845  27
   6  20   1 4581.59 210.965  12
  -6  20  -2 771.395 83.6414   8
   6 -20   2 714.022 81.2134  27
   6  20   2 603.603 78.4878  12
  -6  20  -3 2408.46 145.866   8
   6 -20   3 2225.08 141.822  27
  -6 -20  -3 2315.50 135.698   6
   6  20   3 2241.44 139.491  12
   6 -20   4 14.5465 25.3779  27
  -6  20  -4 6.51835 33.4922   8
   6  20   4-7.25719 28.2976  12
  -6 -20  -4-1.07968 25.8899   6
  -6  20  -5 3629.55 180.966   8
  -6 -20  -5 3272.95 163.659   6
   6  20   5 3367.12 158.797  12
  -6  20  -6 195.687 48.9456   8
  -6 -20  -6 185.031 43.5623  26
  -6  20  -7 2266.95 133.656   8
  -6 -20  -7 2304.20 127.426  26
  -6  20  -8 147.248 37.8391   8
  -6 -20  -8 176.749 38.4107  26
  -6 -20  -9-5.98408 16.1801  18
  -6  20  -9-7.06173 19.9181   8
  -6 -20  -9-21.6466 21.4462  26
   6 -21  -9 629.925 50.5674  19
   6  21  -9 645.258 52.4864  16
   6  21  -9 719.394 52.2726  24
   6 -21  -8-29.4250 26.2486  19
   6 -21  -8 11.6367 17.8774   5
   6  21  -8 2.31272 22.0816  16
   6 -21  -7 44.5713 26.8418  19
   6 -21  -7 48.8024 25.4963   5
   6  21  -7 79.5076 31.7223  16
   6 -21  -6 1022.22 78.7751   5
   6 -21  -6 987.720 82.6926  19
   6  21  -6 901.312 84.3107  16
   6 -21  -5 328.403 48.9808   5
   6  21  -5 324.513 57.4033  16
   6  21  -4 865.317 84.9645  16
   6 -21  -4 885.462 82.8575  27
  -6 -21   4 868.498 81.2076   7
   6  21  -4 891.621 82.3443  12
   6  21  -3 484.094 67.4054  16
   6 -21  -3 478.802 62.5985  27
  -6 -21   3 631.983 73.6062   7
   6  21  -3 517.230 67.3037  12
   6  21  -2 346.079 56.0340  16
   6 -21  -2 270.676 51.7617  27
  -6 -21   2 330.974 54.8741   7
   6  21  -2 323.026 57.6274  12
   6  21  -1 38.2061 25.6431  16
   6 -21  -1 41.5866 32.4482  27
  -6 -21   1 58.2392 34.3892   7
   6  21  -1-25.5801 37.1180  12
   6 -21   0 251.127 55.2862  27
   6  21   0 216.439 47.7336  12
   6  21   0 323.150 52.6409  16
   6 -21   1 5229.17 226.832  27
   6  21   1 5337.69 226.986  12
   6 -21   2 347.670 60.5403  27
  -6  21  -2 355.172 59.4761   8
   6  21   2 318.373 58.9443  12
  -6  21  -3 2420.67 144.517   8
   6 -21   3 2440.03 144.896  27
  -6 -21  -3 2463.29 138.057   6
   6  21   3 2296.08 139.276  12
  -6  21  -4 3288.18 169.817   8
   6 -21   4 3255.84 163.686  27
  -6 -21  -4 3575.38 167.609   6
   6  21   4 3418.24 163.684  12
  -6  21  -5 464.248 63.9702   8
  -6 -21  -5 444.576 60.3406   6
   6  21   5 422.841 55.2602  12
  -6  21  -6 2947.40 153.516   8
  -6 -21  -6 3091.08 151.347  26
  -6  21  -7 841.298 77.7984   8
  -6 -21  -7 804.716 71.9967  26
  -6  21  -8 933.813 74.2212   8
  -6 -21  -8 933.695 70.8989  26
  -6  21  -9 1306.47 75.0961   8
  -6 -21  -9 1233.28 69.5389  26
   6 -22  -8 2299.58 94.2113   5
   6 -22  -8 2493.64 107.816  19
   6 -22  -7 67.2259 23.1643  19
   6 -22  -7 57.7803 18.1407   5
   6  22  -7 105.515 33.8420  16
   6 -22  -6 0.04767 27.3198  19
   6 -22  -6 3.16288 18.9208   5
   6  22  -6 42.4952 32.0534  16
   6 -22  -5 1237.14 85.3428   5
   6 -22  -5 1198.26 91.8304  19
   6  22  -5 1212.05 96.8542  16
  -6  22   5 1185.02 86.1033  11
   6 -22  -4 628.350 63.4636   5
   6  22  -4 626.242 71.8381  16
   6 -22  -4 641.251 70.4192  27
  -6 -22   4 660.306 68.9707   7
   6  22  -4 650.089 68.2676  12
   6 -22  -3 602.442 71.5331  27
   6  22  -3 510.106 66.6950  16
  -6 -22   3 654.125 73.2516   7
   6  22  -3 652.296 72.5617  12
   6  22  -2 131.840 37.5040  16
   6 -22  -2 142.553 43.0595  27
  -6 -22   2 172.174 42.2471   7
   6  22  -2 192.349 48.5278  12
   6 -22  -1 1.60069 32.6316  27
   6  22  -1 29.9579 23.0740  16
   6  22  -1 34.8224 34.8877  12
   6  22   0 10.9512 20.7965  16
   6 -22   0 3.17930 32.1728  27
   6  22   0 7.25856 34.9268  12
   6 -22   1 172.747 48.7617  27
   6  22   1 180.451 52.8151  12
   6 -22   2 285.200 56.5673  27
  -6  22  -2 224.628 46.2816   8
   6  22   2 255.641 50.4803  12
  -6  22  -3 1331.17 102.942   8
   6 -22   3 1328.85 102.055  27
  -6 -22  -3 1244.79 93.4351   6
   6  22   3 1129.53 93.4363  12
   6 -22   4 430.024 59.0957  27
  -6  22  -4 463.325 62.5306   8
  -6 -22  -4 385.949 52.1594   6
   6  22   4 390.924 54.4327  12
  -6  22  -5 8.80029 28.4406   8
  -6 -22  -5 49.7707 33.2011  26
  -6  22  -6 3167.39 153.714   8
  -6 -22  -6 3292.47 151.152  26
  -6  22  -7 114.310 32.9742   8
  -6 -22  -7 157.475 35.0025  26
  -6  22  -8 33.7593 20.8045   8
  -6 -22  -8 45.7948 21.9573  26
   6 -23  -8 43.9126 18.6715  19
   6  23  -8 78.2591 23.7475  16
   6  23  -7 46.0649 24.1337  16
   6 -23  -7 3.36829 20.3308  19
   6 -23  -6 127.615 33.0823  19
   6  23  -6 112.276 33.4231  16
  -6  23   5 334.845 44.1436  11
   6 -23  -5 324.132 48.0774  19
   6  23  -5 269.918 45.9010  16
   6  23  -4 809.462 76.4018  16
   6  23  -4 918.792 77.1705  12
  -6  23   4 938.803 78.4264  11
   6  23  -3 119.779 32.1729  16
   6 -23  -3 209.910 45.3348  27
  -6 -23   3 170.239 39.0137   7
   6  23  -3 183.144 42.8440  12
   6  23  -2 5650.38 214.110  16
   6 -23  -2 5517.00 218.009  27
   6  23  -2 5790.28 223.194  12
   6  23  -1 348.370 52.7853  16
   6 -23  -1 297.677 54.3179  27
   6  23  -1 345.798 62.5274  12
   6 -23   0 9342.83 302.697  27
   6  23   0 9046.51 299.331  12
   6 -23   1 113.903 42.0427  27
   6  23   1 84.9686 37.6851  12
  -6  23  -2 1012.47 83.9595   8
   6 -23   2 1159.10 95.7859  27
   6  23   2 1130.81 94.4499  12
  -6  23  -3 1225.84 93.5312   8
   6 -23   3 1244.43 95.5206  27
   6  23   3 1100.54 89.7857  12
  -6  23  -4 195.305 39.7743  11
   6 -23   4 203.926 39.7582  27
  -6  23  -4 239.110 47.3838   8
   6  23   4 143.107 32.4630  12
  -6  23  -5 169.463 39.4192   8
  -6 -23  -5 132.307 34.1823  26
  -6  23  -6 224.350 40.8213   8
  -6 -23  -6 243.319 40.9903  26
  -6  23  -7 511.233 52.3726   8
  -6 -23  -7 465.810 49.1529  26
  -6  23  -8 103.251 24.3882   8
  -6 -23  -8 108.237 22.8291  26
   6 -24  -7 2956.49 113.170  19
   6  24  -7 3230.16 123.321  16
   6 -24  -6 9.93363 18.6659  19
   6  24  -6 29.4826 23.4188  16
   6 -24  -5 1678.23 97.5107  19
   6  24  -5 1795.83 104.338  16
  -6  24   5 1708.87 91.6597  11
   6  24  -4 1333.62 92.6074  16
   6  24  -4 1384.72 89.0060  12
  -6  24   4 1340.42 88.8273  11
  -6  24   3 21.2050 27.0462  11
   6  24  -3-35.6086 26.7451  12
   6  24  -3 37.1658 27.4154  16
   6  24  -2 226.060 42.1559  16
   6 -24  -2 281.479 50.1165  27
   6  24  -2 282.230 48.4419  12
   6  24  -1 1867.37 108.601  16
   6 -24  -1 1875.48 119.432  27
   6  24  -1 1813.20 118.473  12
   6 -24   0 25.3413 33.3017  27
   6  24   0 55.5599 35.3279  12
   6 -24   1 311.357 54.3835  27
   6  24   1 298.189 47.9416  12
  -6  24  -2 2443.11 124.891   8
   6 -24   2 2475.04 135.126  27
   6  24   2 2441.54 133.894  12
  -6  24  -2 2566.07 135.995  11
  -6  24  -3 2651.23 131.329   8
   6 -24   3 2311.58 126.180  27
   6  24   3 2477.90 129.372  12
  -6  24  -3 2447.19 127.101  11
  -6  24  -4 964.441 79.0964   8
   6 -24   4 1103.43 78.8967  27
   6  24   4 1038.48 78.5558  12
  -6  24  -5 1535.20 96.8116   8
  -6 -24  -5 1719.31 100.098  26
  -6  24  -6 159.111 30.7448   8
  -6 -24  -6 230.657 37.4159  26
  -6  24  -7 4121.67 145.427   8
  -6 -24  -7 4368.80 143.426  26
   6 -25  -6 103.697 24.5234  19
   6  25  -6 38.8304 20.3746  16
   6 -25  -5 86.4704 24.4751  19
   6  25  -5 108.770 27.5425  16
  -6  25   4 154.224 32.3259  11
   6 -25  -4 109.501 30.6677  19
   6  25  -4 144.918 36.5332  16
   6  25  -4 123.021 29.5610  12
  -6  25   3 61.4357 27.4670  11
   6  25  -3 84.2536 28.0241  16
   6  25  -3 48.3555 23.3276  12
  -6  25   2 150.769 33.7853  11
   6  25  -2 137.575 31.7979  16
   6  25  -2 189.687 41.6800  12
   6 -25  -1 5242.69 195.798  27
   6  25  -1 4859.92 190.378  12
   6 -25   0 947.189 81.6955  27
   6  25   0 954.523 83.1184  12
  -6  25   0 991.177 82.9223  11
   6 -25   1 1141.36 88.9411  27
   6  25   1 1222.95 90.9730  12
  -6  25  -1 1155.07 88.5585  11
  -6  25  -2 114.056 33.9530  11
   6 -25   2 63.7225 28.7258  27
   6  25   2 135.723 36.3408  12
  -6  25  -3 3445.81 141.653   8
   6 -25   3 3537.32 146.621  27
   6  25   3 3442.06 145.680  12
  -6  25  -3 3296.69 141.581  11
  -6  25  -4 172.079 33.0413   8
  -6 -25  -4 225.159 37.7464  26
   6  25   4 174.818 32.1821  12
  -6 -25  -5 38.8847 23.0268  26
  -6  25  -5 11.9434 20.7554   8
  -6  25  -6 233.797 34.1442   8
  -6 -25  -6 211.338 33.5646  26
   6 -26  -5 556.908 47.2126  19
   6  26  -5 581.548 47.7824  16
   6 -26  -4 2590.18 111.642  19
   6  26  -4 2725.98 113.851  16
  -6  26   4 2714.72 110.369  11
   6  26  -3 4087.73 146.301  16
   6  26  -3 4136.30 150.133  12
  -6  26   3 4167.70 152.739  11
   6  26  -2 2559.04 121.735  12
  -6  26   2 2414.36 119.379  11
   6  26  -1 1487.54 95.0768  12
  -6  26   1 1499.79 95.9574  11
  -6  26   0 77.9054 32.2006  11
   6  26   0 116.221 34.8469  12
   6  26   1 3717.48 155.275  12
  -6  26  -1 3926.33 157.824  11
  -6  26  -2 1.56424 22.6015  11
   6  26   2 44.5771 24.2923  12
  -6  26  -3 985.657 66.0588   8
  -6 -26  -3 1145.29 76.3141  26
   6  26   3 1101.38 74.8236  12
  -6  26  -3 1166.59 74.3317  11
  -6  26  -4 332.467 38.8466   8
  -6 -26  -4 306.825 39.7494  26
   6  26   4 336.944 38.4381  12
  -6  26  -5 393.926 40.3535   8
  -6 -26  -5 350.492 38.3859  26
   6 -27  -4 588.080 45.7731  19
   6 -27  -3 1892.91 89.7305  19
   6  27  -3 1972.08 88.7820  12
  -6  27   3 1758.36 87.7906  11
   6  27  -2 1749.55 91.8232  12
  -6  27   2 1880.60 95.0642  11
   6  27  -1 1396.92 84.7000  12
  -6  27   1 1287.41 82.2399  11
   6  27   0 5622.32 182.532  12
  -6  27   0 4944.95 172.887  11
  -6  27  -1 275.216 39.5260  11
   6  27   1 303.114 43.4724  12
  -6  27  -2 66.7309 22.1533  11
  -6 -27  -2 73.5815 20.6938  26
   6  27   2 109.176 28.0055  12
  -6 -27  -3 566.758 47.8889  26
   6  27   3 521.046 46.9287  12
  -6 -27  -4 90.6624 22.2442  26
  -6  28   2 5769.74 165.029  11
  -6  28   1 148.599 29.5019  11
   6  28  -1 131.078 27.2680  12
   6  28   0 3225.59 122.321  12
  -6  28   0 3125.06 120.105  11
   6  28   1 882.406 60.9509  12
  -6  28  -1 913.306 60.4392  11
   7   0 -13 372.847 44.5411  24
   7   0 -12 15.6272 21.9846  15
   7   0 -12-42.5124 29.4415  24
   7   0 -11 23022.1 507.384  15
   7   0 -11 22772.7 510.537  24
   7   0 -10-13.4217 21.1894  15
   7   0 -10-26.4139 30.3789  14
   7   0 -10 16.8769 27.6439  25
   7   0 -10 39.0655 31.0183  24
   7   0  -9 3709.86 173.555  15
   7   0  -9 3651.27 161.591  14
   7   0  -9 3361.60 167.748  25
   7   0  -9 3280.34 167.187  24
   7   0  -8-17.1236 23.6023  15
   7   0  -8-59.3654 36.7476  14
   7   0  -8-57.1354 37.4576  25
   7   0  -8-22.9988 33.7099  24
   7   0  -7 39.7315 22.9228  25
   7   0  -7 12.4962 23.1831  24
   7   0  -6 36.3236 24.0693  25
   7   0  -6 6.50695 20.1641  24
   7   0  -5 288.347 101.279   4
   7   0  -4 4.40910 45.3384   4
   7   0  -3 926.840 158.213   4
   7   0  -2-46.7559 64.4785  33
   7   0  -2-39.4214 61.7829   4
   7   0  -1 3885.12 272.214  33
   7   0  -1 4540.94 342.940   4
   7   0   0-11.2609 51.7835   4
  -7   0  -1 3721.55 274.261   2
  -7   0  -2-34.2181 46.5554   2
  -7   0  -3 28093.8 924.197   2
  -7   0  -4 205.849 80.6735   2
  -7   0  -5 4632.11 376.851   2
  -7   0  -6 304.428 49.8909   9
  -7   0  -6-11.1844 33.4411  26
  -7   0  -7 9550.55 319.896   9
  -7   0  -7 10782.4 330.003  26
  -7   0  -8-9.28776 28.4902   9
  -7   0  -8-13.5776 33.9642  26
  -7   0  -9-54.3289 39.2491  26
  -7   0 -10-11.6150 28.1035  26
  -7   0 -11 431.463 57.1494  26
  -7   0 -12-0.63487 20.9630  26
  -7   0 -13 286.471 37.0139  17
   7   1 -13 447.573 44.0101  24
   7   1 -12 1443.40 88.8074  15
   7  -1 -12 1448.95 90.2095  24
   7   1 -12 1309.72 87.7803  24
   7   1 -11 628.710 68.4568  15
   7  -1 -11 668.700 66.1950  15
   7  -1 -11 649.279 68.5327  14
   7  -1 -11 772.050 72.5257  25
   7  -1 -11 625.177 72.0717  24
   7   1 -11 743.003 77.8822  24
   7   1 -10 3672.79 170.992  15
   7  -1 -10 3872.12 170.939  15
   7   1 -10 3287.39 150.100  14
   7  -1 -10 3473.88 155.925  14
   7  -1 -10 3656.57 170.160  25
   7   1 -10 3774.05 171.129  25
   7  -1 -10 3634.69 170.783  24
   7   1 -10 3481.11 169.335  24
   7   1  -9-10.6469 28.6902  15
   7   1  -9-63.2365 35.6401  14
   7  -1  -9 2.52345 27.9046  14
   7  -1  -9 5.21316 27.4045  25
   7   1  -9 37.6217 25.6558  25
   7  -1  -9 21.6228 31.3214  24
   7   1  -9-45.0684 38.9883  24
   7   1  -8 1714.68 117.544  15
   7  -1  -8 1759.25 108.673  14
   7  -1  -8 1723.34 117.952  25
   7   1  -8 1655.04 115.577  25
   7  -1  -8 1465.75 110.232  24
   7   1  -8 1911.56 125.063  24
   7   1  -7-4.70926 25.3649  15
   7  -1  -7 6.60811 25.7085  25
   7   1  -7 31.2549 24.6795  25
   7  -1  -7 41.4619 23.8121  24
   7   1  -7 30.1151 26.0320  24
   7   1  -6 760.312 74.6957  25
   7  -1  -6 880.440 81.2874  24
   7   1  -6 812.047 76.7299  24
   7  -1  -5 2504.13 280.979   4
   7   1  -5 2702.15 292.890   4
   7  -1  -4 1973.23 236.969   4
   7   1  -4 1788.68 226.445   4
   7   1  -3 3446.18 280.771  33
   7   1  -3 3318.26 298.874   4
   7  -1  -3 3409.93 299.623   4
   7  -1  -2 2159.16 233.811   4
   7   1  -2 2376.20 244.887   4
   7   1  -2 2212.81 212.255  33
   7   1  -1 13179.8 524.349  33
   7  -1  -1 11447.7 561.645   4
   7   1  -1 12086.0 577.836   4
  -7   1   0 329.143 83.4524   2
   7   1   0 253.081 66.8513  33
   7  -1   0 246.659 89.8935   4
   7   1   0 187.243 64.5528   4
  -7   1  -1 205.694 74.4304   2
  -7  -1  -1 186.285 52.1132   2
  -7   1  -2 405.406 100.203   2
  -7  -1  -2 361.732 92.8557   2
  -7   1  -3 472.942 109.965   2
  -7  -1  -3 323.025 86.6533   2
  -7   1  -4 769.665 148.979   2
  -7  -1  -4 984.575 169.340   2
  -7  -1  -4 490.536 116.479  29
  -7   1  -5 571.909 137.423   2
  -7  -1  -5 846.616 161.240   2
  -7  -1  -5 930.730 155.960  29
  -7   1  -6 5003.16 211.261   9
  -7  -1  -6 5437.06 219.271   9
  -7   1  -6 5377.47 217.840  26
  -7  -1  -6 5249.29 214.261  26
  -7   1  -7 668.221 78.4587   9
  -7  -1  -7 613.846 75.6634   9
  -7   1  -7 674.067 75.8338  26
  -7  -1  -7 598.190 71.7210  26
  -7   1  -8 81.3867 35.3720   9
  -7  -1  -8 121.318 39.0528   9
  -7   1  -8 142.962 41.2840  26
  -7  -1  -8 116.674 35.7382  26
  -7  -1  -9 539.489 72.2593   9
  -7   1  -9 457.684 65.9638  26
  -7  -1  -9 538.831 73.8296  26
  -7   1 -10 118.934 39.1396  26
  -7  -1 -10 79.0555 34.5448  26
  -7   1 -11 48.2931 28.3326  26
  -7  -1 -11 59.0249 31.5950  26
  -7   1 -12 1510.92 90.7900  26
  -7  -1 -12 1426.84 88.4809  26
  -7   1 -13 366.933 40.7579  17
  -7  -1 -13 398.984 42.5389  17
   7   2 -13-7.04824 18.5603  24
   7   2 -12 4873.90 173.651  15
   7  -2 -12 4742.75 160.069  14
   7  -2 -12 4913.60 172.451  24
   7   2 -12 4720.91 172.752  24
   7   2 -11 38.7373 29.9111  15
   7  -2 -11-20.9364 25.8211  14
   7  -2 -11 26.9871 26.8848  25
   7  -2 -11-55.4524 35.1786  24
   7   2 -11-10.8381 29.3486  24
   7   2 -10 6286.01 234.651  15
   7   2 -10 6236.91 213.603  14
   7  -2 -10 6062.05 217.807  14
   7  -2 -10 6732.52 238.664  25
   7   2 -10 6768.68 236.468  25
   7  -2 -10 6184.68 232.677  24
   7   2 -10 6560.42 236.687  24
   7   2  -9 66.4342 27.1595  15
   7   2  -9-16.0566 28.1819  14
   7  -2  -9 4.92973 28.8578  14
   7  -2  -9 7.10843 29.7118  25
   7   2  -9 71.5739 27.6967  25
   7  -2  -9-9.27085 42.3498  24
   7   2  -9 18.5871 34.1675  24
   7   2  -8 8713.41 292.288  15
   7  -2  -8 9001.52 277.369  14
   7  -2  -8 8676.47 291.037  25
   7   2  -8 8892.95 291.646  25
   7  -2  -8 8665.13 290.877  24
   7   2  -8 9235.57 297.586  24
   7   2  -7 8795.00 289.748  15
   7  -2  -7 9018.49 294.557  25
   7   2  -7 8985.74 292.283  25
   7  -2  -7 9365.14 298.484  24
   7   2  -7 9339.63 296.244  24
   7   2  -6 1221.27 93.9120  15
   7  -2  -6 1327.49 101.065  25
   7   2  -6 1284.70 97.9346  25
   7  -2  -6 1306.50 100.256  24
   7   2  -6 1415.37 101.594  24
   7  -2  -5 14769.6 707.484   4
   7   2  -5 15356.0 723.458   4
  -7  -2   5 15465.4 697.694   3
   7   2  -4 106.042 65.3028  33
   7  -2  -4 21.4975 46.8385   4
   7   2  -4 46.6289 42.8375   4
   7   2  -3 2081.19 219.743  33
   7  -2  -3 2187.99 241.894   4
   7   2  -3 2297.82 247.760   4
   7   2  -2 888.651 136.218  33
   7  -2  -2 939.036 153.447   4
   7   2  -2 1029.02 163.966   4
   7   2  -1 82.0461 48.3012  33
   7  -2  -1 155.667 66.7688   4
   7   2  -1 91.2224 53.7739   4
  -7   2   0 3367.45 248.147   2
   7   2   0 3321.83 242.776  33
   7  -2   0 3215.06 287.032   4
   7   2   0 2984.03 278.135   4
  -7   2  -1-232.929 72.5400   2
  -7  -2  -1 85.6040 48.1462   2
  -7   2  -2 5094.89 341.036   2
  -7  -2  -2 5448.48 356.528   2
   7  -2   2 4775.45 334.090   1
   7  -2   3 1006.62 151.126   1
  -7   2  -3 1300.49 178.544   2
  -7  -2  -3 1261.68 176.623   2
  -7   2  -4 33.7340 54.3276   2
  -7  -2  -4 27.5635 44.6134   2
  -7  -2  -4 143.569 81.1901  29
  -7   2  -5 828.266 157.951   2
  -7  -2  -5 1014.07 173.307   2
  -7  -2  -5 1053.63 176.003  29
  -7   2  -6 3170.30 163.578   9
  -7  -2  -6 2935.24 158.394   9
  -7   2  -6 3253.48 165.296  26
  -7  -2  -6 3356.72 166.620  26
  -7   2  -7 1544.69 117.365   9
  -7  -2  -7 1712.46 122.165   9
  -7   2  -7 1532.95 113.671  26
  -7  -2  -7 1565.20 115.623  26
  -7   2  -8 801.035 86.0625   9
  -7  -2  -8 876.549 88.0198   9
  -7   2  -8 773.634 83.4340  26
  -7  -2  -8 846.078 87.7703  26
  -7  -2  -9 3302.13 172.269   9
  -7   2  -9 3130.43 168.161  26
  -7  -2  -9 3176.59 169.150  26
  -7   2 -10 63.7013 28.2895  26
  -7  -2 -10 71.5880 29.5247  26
  -7   2 -11 3403.93 159.433  26
  -7  -2 -11 3421.07 159.529  26
  -7   2 -12 123.374 29.6441  26
  -7  -2 -12 134.272 29.4340  26
  -7   2 -13 153.198 27.2638  17
   7   3 -13-8.78364 20.2223  24
   7   3 -12 3645.11 148.057  15
   7  -3 -12 3449.37 133.347  14
   7  -3 -12 3980.26 149.583  24
   7   3 -12 3591.07 147.346  24
   7   3 -11 3844.45 167.705  15
   7  -3 -11 3691.09 152.980  14
   7  -3 -11 3769.89 158.669  25
   7  -3 -11 3838.67 164.259  24
   7   3 -11 3850.38 167.362  24
   7  -3 -10 1139.81 89.9060   5
   7   3 -10 1049.57 92.7039  15
   7  -3 -10 1014.42 82.9184  14
   7  -3 -10 1154.06 94.0710  25
   7   3 -10 1235.38 96.4567  25
   7  -3 -10 1119.20 93.0090  24
   7   3 -10 1093.57 91.6315  24
   7  -3  -9 1293.52 100.703   5
   7   3  -9 1039.44 92.0923  15
   7   3  -9 1212.84 88.2450  14
   7  -3  -9 1119.74 88.1505  14
   7  -3  -9 1121.56 94.3141  25
   7   3  -9 1182.01 96.6214  25
   7  -3  -9 1195.41 97.6132  24
   7   3  -9 1095.71 97.0119  24
   7  -3  -8 37.5074 31.8426   5
   7   3  -8-9.82961 27.7398  15
   7  -3  -8 65.5660 34.2158  25
   7   3  -8 27.3504 29.6310  25
   7  -3  -8-41.4114 38.1923  24
   7   3  -8 48.5630 37.4056  24
   7  -3  -7 27681.7 617.967   5
   7  -3  -7 26565.1 613.906  25
   7   3  -7 27316.2 613.230  25
   7  -3  -7 27564.9 616.773  24
   7   3  -7 27232.5 613.552  24
   7   3  -7 26642.9 611.700  15
   7   3  -6 388.411 55.1189  15
   7  -3  -6 432.963 60.1024  25
   7   3  -6 456.356 59.1209  25
   7  -3  -6 468.232 62.8088  24
   7   3  -6 455.639 59.8646  24
   7  -3  -6 590.678 66.7270  23
   7  -3  -5 3635.72 339.246   4
   7   3  -5 3790.79 346.906   4
  -7  -3   5 3742.93 332.559   3
   7   3  -4 5509.09 382.431  33
   7  -3  -4 6061.90 413.984   4
   7   3  -4 5515.12 402.053   4
   7   3  -3 3429.17 287.428  33
   7  -3  -3 2585.11 258.562   4
   7   3  -3 2724.70 271.563   4
   7   3  -2 1127.06 158.723  33
   7  -3  -2 1161.77 172.925   4
   7   3  -2 1045.18 165.281   4
   7   3  -1 6322.94 360.425  33
   7  -3  -1 5839.88 385.403   4
   7   3  -1 5668.17 388.926   4
   7   3   0 1555.97 168.513  33
   7  -3   0 1358.42 187.807   4
   7   3   0 1660.43 207.702   4
  -7  -3  -1 340.024 84.0236   2
   7  -3   1 332.790 97.1948   1
  -7   3  -2 6719.94 401.379   2
   7  -3   2 6781.39 409.208   1
  -7  -3  -2 7720.07 428.767   2
   7  -3   3 5179.27 355.090   1
  -7   3  -3 5388.19 370.374   2
  -7  -3  -3 5510.75 375.481   2
  -7   3  -4 3941.09 326.689   2
  -7  -3  -4 3576.10 315.765   2
  -7  -3  -4 3261.31 296.801  29
  -7   3  -5 4344.28 361.321   2
  -7  -3  -5 4062.30 350.814   2
  -7  -3  -5 3878.14 339.989  29
  -7   3  -6 10231.0 321.634   9
  -7  -3  -6 9382.64 310.842   9
  -7   3  -6 10226.7 317.894  26
  -7  -3  -6 10453.9 321.930  26
  -7   3  -7 3956.44 190.474   9
  -7  -3  -7 3962.84 191.220   9
  -7   3  -7 4170.41 192.103  26
  -7  -3  -7 3723.31 182.663  26
  -7  -3  -8 1096.21 100.523   9
  -7   3  -8 1114.27 99.1801  26
  -7  -3  -8 1000.77 93.8562  26
  -7  -3  -9 1383.11 109.633   9
  -7   3  -9 1297.35 109.879  26
  -7  -3  -9 1320.62 108.059  26
  -7   3 -10 66.4425 33.5312  26
  -7  -3 -10 88.2290 36.8154  26
  -7   3 -11 775.770 74.8437  26
  -7  -3 -11 811.233 76.0848  26
  -7   3 -12 52.7024 28.1215  17
  -7   3 -12 61.8849 21.6267  26
  -7  -3 -12 110.717 27.2236  26
  -7   3 -13 165.699 28.2221  17
   7  -4 -13 1243.16 63.6677  14
   7   4 -13 238.070 31.0478  24
   7   4 -12 548.701 57.5370  15
   7  -4 -12 643.710 57.2976  14
   7   4 -12 514.995 55.6236  24
   7  -4 -11 1572.14 98.4893   5
   7   4 -11 1459.89 101.494  15
   7  -4 -11 1396.05 91.6827  14
   7  -4 -11 1513.02 95.6187  25
   7  -4 -11 1583.96 102.931  24
   7   4 -11 1615.81 106.009  24
   7  -4 -10 210.899 41.2519   5
   7   4 -10 231.932 45.9213  15
   7  -4 -10 170.602 36.1017  14
   7  -4 -10 313.105 52.1452  25
   7   4 -10 199.266 38.8663  25
   7  -4 -10 190.664 40.8318  24
   7   4 -10 217.323 46.6868  24
   7  -4  -9 7535.70 263.195   5
   7   4  -9 7090.30 260.070  15
   7   4  -9 7665.39 239.550  14
   7  -4  -9 6883.13 242.834  14
   7  -4  -9 7339.11 263.018  25
   7   4  -9 7936.99 264.741  25
   7  -4  -9 7168.43 258.985  24
   7   4  -9 7485.11 263.190  24
   7  -4  -8 4401.93 196.368   5
   7   4  -8 4244.49 194.664  15
   7  -4  -8 3936.12 185.819  25
   7   4  -8 4279.57 190.177  25
   7  -4  -8 4048.94 188.148  24
   7   4  -8 4473.89 196.067  24
   7  -4  -7 6807.39 254.433   5
   7  -4  -7 7657.71 256.882  19
   7   4  -7 7228.83 259.694  15
   7  -4  -7 7262.40 260.270  25
   7   4  -7 7192.29 257.241  25
   7  -4  -7 7351.63 260.489  24
   7   4  -7 7440.56 260.338  24
   7   4  -6 2868.63 150.641  15
   7  -4  -6 2818.67 149.966  25
   7   4  -6 2838.64 150.021  25
   7  -4  -6 2946.64 151.958  24
   7   4  -6 2825.29 148.566  24
   7  -4  -6 2882.29 149.689  23
  -7  -4   5 523.730 123.286   3
   7   4  -5 665.033 140.217  33
   7  -4  -5 539.110 130.380   4
   7   4  -5 604.806 142.460   4
   7   4  -4 2605.62 265.857  33
   7  -4  -4 2842.15 281.144   4
   7   4  -4 3103.63 299.066   4
  -7  -4   4 3033.30 292.730   3
   7   4  -3 181.773 80.3316  33
   7  -4  -3 195.004 68.8761   4
   7   4  -3 72.7191 65.0463   4
   7   4  -2 577.128 116.609  33
   7  -4  -2 618.830 126.703   4
   7   4  -2 562.264 123.949   4
   7   4  -1 3404.27 266.661  33
   7  -4  -1 4090.31 317.184   4
   7   4  -1 3939.55 320.632   4
   7   4   0 3842.05 269.201  33
   7  -4   0 3668.88 304.180   1
   7  -4   0 4124.98 324.631   4
   7   4   0 4075.74 329.525   4
  -7  -4  -1 888.851 141.204   2
   7  -4   1 891.691 145.499   1
  -7  -4  -2 772.933 134.113   2
   7  -4   2 754.849 135.769   1
   7  -4   3 2810.27 265.838   1
  -7  -4  -3 3305.75 291.455   2
  -7   4  -4 516.122 126.040   2
  -7  -4  -4 239.648 92.8325   2
   7  -4   4 300.503 94.6043   1
  -7  -4  -4 509.748 127.646  29
  -7   4  -5 1031.17 173.185   2
  -7  -4  -5 865.924 167.067   2
  -7  -4  -5 756.070 151.770  29
  -7   4  -6 5573.92 226.000   9
  -7   4  -6 5544.24 223.100  26
  -7  -4  -6 5643.62 225.637  26
  -7  -4  -7 85.9992 38.3305   9
  -7   4  -7-5.81735 23.2008   8
  -7   4  -7 1.89571 27.1724  26
  -7  -4  -7 14.0906 24.8285  26
  -7  -4  -8 973.504 94.2061   9
  -7   4  -8 956.113 91.4543  26
  -7  -4  -8 964.212 91.4045  26
  -7  -4  -9 472.744 65.1856   9
  -7   4  -9 480.105 66.3027  26
  -7  -4  -9 492.535 68.7211  26
  -7   4 -10 5015.18 209.643  26
  -7  -4 -10 4654.13 203.966  26
  -7   4 -11-7.98663 25.8610  26
  -7  -4 -11-26.5629 24.9266  26
  -7   4 -12 166.985 37.0395  17
  -7   4 -12 115.191 28.5780  26
  -7  -4 -12 138.756 29.2077  26
  -7   4 -13 10.1586 15.3072  17
   7  -5 -12 629.641 53.7285  14
   7   5 -12 672.767 59.8578  24
   7  -5 -11 3360.69 148.210   5
   7   5 -11 3208.71 152.351  15
   7  -5 -11 2972.96 136.660  14
   7  -5 -11 3195.41 142.620  25
   7  -5 -11 3595.74 157.388  24
   7   5 -11 3216.77 151.584  24
   7  -5 -10 729.467 73.6672   5
   7   5 -10 783.409 79.3056  15
   7  -5 -10 612.979 64.9470  14
   7  -5 -10 738.346 75.9143  25
   7  -5 -10 744.901 75.4653  24
   7   5 -10 714.832 74.2302  24
   7  -5  -9 171.628 41.6131   5
   7   5  -9 167.840 43.3577  15
   7  -5  -9 86.3462 37.9937  25
   7   5  -9 139.996 42.2520  25
   7  -5  -9 74.1762 33.7257  24
   7   5  -9 151.337 49.0567  24
   7  -5  -8 5092.80 214.271   5
   7   5  -8 4770.40 208.692  15
   7  -5  -8 5139.74 215.881  25
   7   5  -8 5313.44 212.964  25
   7  -5  -8 4850.91 208.164  24
   7   5  -8 5115.90 211.501  24
   7  -5  -7 7096.08 260.213   5
   7  -5  -7 7613.32 258.026  19
   7   5  -7 7127.18 259.687  15
   7  -5  -7 7098.00 258.599  25
   7   5  -7 7568.02 262.297  25
   7  -5  -7 7378.52 262.914  24
   7   5  -7 7588.41 263.168  24
   7   5  -6 4605.07 196.818  15
   7  -5  -6 4265.56 191.624  25
   7   5  -6 4763.14 197.517  25
   7  -5  -6 4675.64 196.853  24
   7   5  -6 4529.98 194.576  24
   7  -5  -6 4993.05 201.098  23
  -7  -5   5 1369.98 206.847   3
   7   5  -5 1347.93 192.794  33
   7  -5  -5 1139.11 193.494   4
   7   5  -5 1367.15 206.058   4
   7  -5  -5 1208.69 95.5620  25
   7  -5  -5 1294.00 95.0767  24
   7   5  -4 8480.15 489.945  33
   7  -5  -4 8477.45 497.150   4
   7   5  -4 8257.45 501.093   4
  -7  -5   4 8869.23 515.614   3
   7   5  -3-24.2258 54.7020  33
   7  -5  -3-145.870 68.7886   4
   7   5  -3 48.7818 55.2138   4
  -7  -5   3 28.8015 41.7639   3
   7   5  -2 8167.56 442.547  33
   7  -5  -2 8261.52 464.360   4
   7   5  -2 7525.81 454.076   4
   7   5  -1 799.863 132.887  33
   7  -5  -1 802.765 142.008   4
   7   5  -1 819.961 149.874   4
   7   5   0 556.063 105.617  33
   7  -5   0 608.483 132.139   1
   7  -5   0 504.385 112.250   4
   7   5   0 691.456 131.505   4
   7  -5   1 2007.82 224.553   1
   7   5   1 1556.40 170.932  33
  -7  -5  -1 1945.39 204.768   2
  -7  -5  -2 198.169 84.4993   2
   7  -5   2 161.838 81.3727   1
  -7  -5  -3 19690.7 773.922   2
   7  -5   3 21493.4 799.941   1
  -7  -5  -4 6676.69 439.654   2
  -7  -5  -4 5998.64 422.764  29
   7  -5   4 6969.40 434.423   1
  -7   5  -5 2045.84 126.874   9
  -7   5  -5 2047.39 250.937   2
  -7  -5  -5 1735.05 233.826  29
  -7  -5  -5 1954.04 248.791   2
  -7   5  -5 2377.79 135.289  26
  -7  -5  -5 2077.43 126.716  26
  -7   5  -6 349.583 55.6124  26
  -7   5  -6 364.609 60.6083   8
  -7  -5  -6 400.947 58.5272  26
   7  -5   6 415.648 57.8944  22
  -7  -5  -7 4563.93 206.696   9
  -7   5  -7 4807.94 213.617   8
  -7   5  -7 4472.58 203.515  26
  -7  -5  -7 4517.29 203.735  26
  -7  -5  -8 127.711 37.9162   9
  -7   5  -8 130.447 38.8517  26
  -7  -5  -8 229.174 49.3093  26
  -7  -5  -9 42.3577 28.6067   9
  -7   5  -9 111.204 38.2776  26
  -7  -5  -9 17.2447 25.1139  26
  -7  -5 -10 127.722 36.8941   9
  -7   5 -10 63.0163 34.0485  26
  -7  -5 -10 67.6062 37.7028  26
  -7   5 -11 19.4693 24.0913  26
  -7  -5 -11 78.5625 34.0445  26
  -7   5 -12 96.2536 28.4068  17
  -7   5 -12 74.6943 23.4562  26
  -7  -5 -12 130.583 28.8488  26
  -7   5 -13 88.4680 23.5965  17
   7  -6 -12 47.2297 20.7029  14
   7   6 -12 51.2969 26.7579  24
   7  -6 -11 291.472 46.6707   5
   7   6 -11 340.705 52.4427  15
   7  -6 -11 241.763 40.3909  14
   7   6 -11 281.339 49.2491  24
   7  -6 -10 1942.38 120.913   5
   7   6 -10 1912.06 123.587  15
   7  -6 -10 1967.21 120.397  25
   7  -6 -10 1795.61 110.142  14
   7  -6 -10 2193.47 126.859  24
   7   6 -10 2089.82 127.223  24
   7  -6  -9 148.041 39.6983   5
   7   6  -9 153.296 44.2763  15
   7  -6  -9 145.110 42.1566  25
   7   6  -9 195.024 40.5789  25
   7  -6  -9 230.564 50.0558  24
   7   6  -9 251.198 52.4065  24
   7  -6  -8 516.116 68.1446   5
   7   6  -8 433.709 65.1500  15
   7  -6  -8 585.595 74.0154  25
   7   6  -8 462.925 61.4326  25
   7   6  -8 630.610 74.7843  24
   7  -6  -8 506.062 65.7624  24
   7  -6  -7 4465.94 201.937   5
   7  -6  -7 4715.30 198.306  19
   7   6  -7 4664.50 204.751  15
   7  -6  -7 4770.13 206.073  25
   7   6  -7 4831.46 203.262  25
   7  -6  -7 4300.10 194.723  24
   7   6  -7 5062.07 208.339  24
   7   6  -6 57.8124 26.8488  15
   7  -6  -6 53.3083 31.0396  25
   7   6  -6 15.1744 22.7531  24
   7  -6  -6 14.0867 20.0895  23
   7   6  -5 12447.7 649.507   4
   7   6  -5 11134.8 335.781  15
   7  -6  -5 12524.3 349.783  25
   7  -6  -5 11909.7 341.650  24
   7  -6  -5 11912.0 344.107  23
  -7  -6   4 37.2844 59.0953   3
   7   6  -4 21.7713 53.1053  33
   7  -6  -4-26.4701 47.7295   4
   7   6  -4-17.2839 57.2406   4
  -7  -6   3 1176.59 180.724   3
   7   6  -3 1167.88 171.555  33
   7  -6  -3 1088.25 159.796  28
   7  -6  -3 1140.79 175.780   4
   7   6  -3 1064.99 176.474   4
  -7  -6   2 848.398 148.489   3
   7   6  -2 814.058 136.262  33
   7  -6  -2 938.432 145.609  28
   7  -6  -2 805.294 143.221   4
   7   6  -2 967.598 157.340   4
   7   6  -1 3818.04 290.902  33
   7  -6  -1 3750.82 317.755   1
   7  -6  -1 3713.52 306.647   4
   7   6  -1 3404.60 299.989   4
   7   6   0 534.820 100.632  33
   7  -6   0 929.202 155.137   1
   7  -6   0 866.046 148.686   4
   7   6   0 978.961 159.873   4
   7  -6   1 1747.49 217.284   1
   7   6   1 2036.22 200.468  33
  -7  -6  -1 2098.40 217.338   2
   7  -6   1 2100.24 234.103   4
  -7  -6  -2 5291.17 367.163   2
   7  -6   2 5101.44 368.658   1
  -7  -6  -3 1708.70 214.307   2
   7  -6   3 1744.43 218.701   1
  -7  -6  -4 3789.21 332.727   2
  -7  -6  -4 3193.76 309.782  29
   7  -6   4 3505.37 312.590   1
  -7   6  -5 1628.48 113.633  26
  -7  -6  -5 1845.33 121.183  26
   7  -6   5 1892.52 124.559  22
  -7   6  -6 1543.36 118.708   8
  -7   6  -6 1560.32 113.801  26
  -7  -6  -6 1573.49 115.488  26
   7  -6   6 1506.05 113.532  22
  -7  -6  -7 418.565 63.5358   9
  -7   6  -7 408.661 63.7648   8
  -7   6  -7 404.109 62.2263  26
  -7  -6  -7 427.296 62.7551  26
  -7  -6  -8 15.6494 25.0540   9
  -7   6  -8-7.89484 25.6647  26
  -7  -6  -8 1.66795 28.0581  26
  -7  -6  -9 86.9701 30.0019   9
  -7   6  -9 73.2365 34.4308  26
  -7  -6  -9 83.8319 33.6413  26
  -7  -6 -10 93.5560 33.3837   9
  -7   6 -10 111.035 36.2846  26
  -7  -6 -10 78.6901 31.8092  26
  -7  -6 -11 2652.23 125.701  18
  -7   6 -11 2591.91 137.965  17
  -7   6 -11 2780.15 138.090  26
  -7  -6 -11 2831.22 139.240  26
  -7   6 -12 1041.47 78.0942  17
  -7   6 -12 984.314 68.7482  26
  -7  -6 -12 965.720 67.8999  26
   7  -7 -12 1471.17 82.9030   5
   7  -7 -12 1333.53 74.9805  14
   7   7 -12 1497.93 86.8422  24
   7  -7 -11 88.1213 28.6476   5
   7   7 -11 40.0883 27.7663  15
   7   7 -11 48.9653 32.5894  24
   7  -7 -10 3899.94 174.778   5
   7   7 -10 3857.08 179.169  15
   7  -7 -10 3581.41 166.646  25
   7  -7 -10 3647.74 162.651  14
   7   7 -10 3868.32 176.358  24
   7  -7  -9 3832.66 180.607   5
   7   7  -9 3717.84 181.550  15
   7  -7  -9 3593.06 173.947  25
   7   7  -9 4007.18 177.666  25
   7  -7  -9 4052.30 183.692  24
   7   7  -9 3571.09 175.078  24
   7  -7  -8 8966.22 297.901   5
   7  -7  -8 8664.31 286.826  19
   7   7  -8 8533.60 293.277  15
   7  -7  -8 8465.78 290.476  25
   7   7  -8 8935.57 288.970  25
   7  -7  -8 8215.16 282.767  24
   7   7  -8 8733.50 290.279  24
   7  -7  -7 3767.81 183.520   5
   7  -7  -7 4240.54 187.429  19
   7   7  -7 4029.62 189.399  15
   7  -7  -7 4081.94 190.179  25
   7   7  -7 4020.72 184.024  25
   7  -7  -7 4151.13 188.132  24
   7   7  -7 4092.64 187.706  24
   7  -7  -6 2754.25 145.181  19
   7   7  -6 2801.24 152.840  15
   7  -7  -6 3045.68 159.234  25
   7  -7  -6 2922.79 153.754  24
   7  -7  -6 2997.54 154.637  23
   7   7  -5 4612.49 194.389  16
   7  -7  -5 4468.14 192.893  25
   7  -7  -5 4220.79 185.797  24
   7  -7  -5 4219.68 187.838  23
   7   7  -4 4211.70 349.276  33
   7  -7  -4 4121.30 346.073   4
   7   7  -4 4325.91 363.285   4
   7  -7  -4 4058.53 335.520  28
  -7  -7   4 4033.65 352.828   3
   7   7  -3 2040.75 232.275  33
   7  -7  -3 2260.49 237.559  28
   7  -7  -3 1981.08 230.013   4
   7   7  -3 2219.64 247.245   4
  -7  -7   3 2054.74 243.149   3
  -7  -7   2 96.0012 41.7657   3
   7   7  -2 42.0710 42.0424  33
   7  -7  -2 94.3314 55.1282  28
   7  -7  -2 136.560 67.3213   4
   7   7  -2 44.8601 61.8908   4
  -7  -7   1 131.192 60.1579   3
   7   7  -1 40.7503 39.1191  33
   7  -7  -1-27.6462 62.4164   1
   7  -7  -1 39.6800 56.2401   4
   7   7  -1 43.3057 46.0173   4
   7  -7   0 19547.3 774.504   1
   7   7   0 15963.2 660.488  33
   7  -7   0 22473.1 798.378   4
   7   7   0 19692.0 769.711   4
  -7  -7   0 18530.6 728.162   3
   7  -7   1 3312.67 301.296   1
  -7  -7  -1 2702.68 254.131   2
   7  -7   1 3253.96 293.201   4
   7   7   1 2939.25 283.552   4
  -7  -7  -1 2908.29 264.047   3
  -7  -7  -2 641.952 119.308   3
   7  -7   2 463.737 119.879   1
  -7  -7  -2 518.650 117.615   2
  -7  -7  -3 1419.89 199.014   2
   7  -7   3 645.673 135.678   1
  -7  -7  -4 5915.90 428.424  29
  -7  -7  -4 5648.42 418.086   2
   7  -7   4 7096.42 456.698   1
  -7   7  -5 2019.11 136.038   8
  -7   7  -5 2035.51 128.120  26
  -7  -7  -5 1948.01 126.478  26
   7  -7   5 2095.31 133.246  22
  -7   7  -6 1961.06 134.954   8
  -7   7  -6 2211.76 136.341  26
  -7  -7  -6 2140.38 134.686  26
  -7   7  -7 1185.63 106.025   8
  -7   7  -7 1206.73 103.120  26
  -7  -7  -7 1455.37 111.187  26
  -7  -7  -8 140.282 41.5136   9
  -7   7  -8 87.3936 34.4565   8
  -7   7  -8 111.046 42.6148  26
  -7  -7  -8 117.753 39.5308  26
  -7  -7  -9 141.163 37.9885   9
  -7   7  -9 145.843 42.6184  26
  -7  -7  -9 131.613 42.4084  26
  -7  -7 -10 135.275 36.9202   9
  -7   7 -10 133.308 38.7497  17
  -7   7 -10 128.022 36.9911  26
  -7  -7 -10 170.388 41.8130  26
  -7  -7 -11 217.409 37.4983  18
  -7   7 -11 197.393 47.4729  17
  -7   7 -11 253.638 42.9271  26
  -7  -7 -11 215.122 43.1718  26
  -7   7 -12 28.5849 23.2437  17
  -7   7 -12 59.2806 23.4141  26
  -7  -7 -12 31.0561 16.4728  26
   7  -8 -12 357.466 42.0772   5
   7  -8 -12 331.112 37.6073  14
   7   8 -12 410.595 47.3466  24
   7  -8 -11 3060.44 141.589   5
   7  -8 -11 3182.00 137.202  14
   7   8 -11 3507.79 151.966  24
   7  -8 -10 134.983 38.8440   5
   7   8 -10 98.6344 36.8986  15
   7  -8 -10 220.398 54.9701  25
   7   8 -10 111.009 43.5909  24
   7  -8  -9 5382.68 220.202   5
   7   8  -9 5638.39 226.392  15
   7  -8  -9 5624.96 221.278  25
   7   8  -9 5870.38 219.970  25
   7  -8  -9 6222.48 231.147  24
   7   8  -9 5562.60 220.483  24
   7  -8  -8 250.131 48.7470  19
   7  -8  -8 197.443 46.9646   5
   7   8  -8 235.763 50.0047  15
   7  -8  -8 258.025 54.7000  25
   7   8  -8 255.584 48.3262  25
   7   8  -8 255.515 54.9210  24
   7  -8  -7-41.7569 31.1457  19
   7  -8  -7 26.4947 32.5063   5
   7   8  -7 32.9994 31.0499  15
   7  -8  -7-41.5471 36.7794  25
   7   8  -7-5.26279 27.9780  25
   7  -8  -7 20.7250 40.3698  24
   7   8  -6 9838.52 316.213  15
   7  -8  -6 10230.2 311.822  19
   7   8  -6 10462.1 322.297  16
   7  -8  -6 10127.8 319.101  25
   7  -8  -6 10050.0 313.589  24
   7  -8  -6 10176.6 317.989  23
   7   8  -5 723.948 74.1388  16
   7  -8  -5 662.069 73.8281  25
   7  -8  -5 728.847 76.0823  24
   7  -8  -5 754.551 78.0663  23
   7  -8  -4 7206.87 461.879   4
   7   8  -4 6961.28 466.291   4
   7  -8  -4 7013.97 452.818  28
   7  -8  -4 6918.16 243.453  25
   7  -8  -4 6567.62 236.367  24
   7  -8  -4 6860.68 245.599  23
   7   8  -3 1421.72 202.341  33
   7  -8  -3 1812.06 219.642   4
   7   8  -3 1827.09 225.356   4
   7  -8  -3 1889.83 222.104  28
  -7  -8   3 1814.10 232.968   3
   7   8  -2 3364.07 293.755  33
   7  -8  -2 3655.06 294.839  28
   7  -8  -2 3609.53 303.677   4
   7   8  -2 4018.36 331.536   4
  -7  -8   2 4147.24 341.330   3
   7  -8  -1 2086.06 241.239   1
   7   8  -1 2421.29 240.409  33
   7  -8  -1 2285.28 238.880   4
   7   8  -1 2027.07 234.074   4
  -7  -8   1 1674.30 210.626   3
   7  -8   0 5006.04 377.377   1
   7   8   0 4826.28 339.534  33
   7  -8   0 4865.36 356.102   4
   7   8   0 4765.10 362.236   4
  -7  -8   0 5073.28 364.907   3
  -7  -8  -1 121.969 60.2595   3
   7  -8   1 176.930 81.4929   1
  -7  -8  -1 169.408 76.3492   2
   7  -8   1 172.939 66.0003   4
   7   8   1 182.997 75.9461   4
   7  -8   2 139.125 64.7664   1
  -7  -8  -2 257.863 80.4922   3
  -7  -8  -2 171.513 62.4599   2
  -7  -8  -3 371.218 108.989   2
   7  -8   3 238.975 94.9856   1
  -7  -8  -4 1431.87 210.951   2
  -7   8  -4 1500.78 107.162  26
  -7  -8  -4 1537.27 108.703  26
   7  -8   4 1356.29 206.394   1
   7  -8   4 1563.92 113.840  22
  -7   8  -5 5296.77 230.498   8
  -7   8  -5 5594.16 223.215  26
  -7  -8  -5 5496.02 222.591  26
   7  -8   5 5940.42 233.388  22
  -7   8  -6 1667.75 124.777   8
  -7   8  -6 1837.34 125.838  26
  -7  -8  -6 1871.03 127.727  26
  -7   8  -7 269.638 51.6412   8
  -7   8  -7 262.623 50.5725  26
  -7  -8  -7 247.937 49.9595  26
  -7  -8  -8 707.669 80.9658   9
  -7   8  -8 724.226 82.8386   8
  -7   8  -8 641.135 77.8419  26
  -7  -8  -8 756.731 84.6560  26
  -7  -8  -9 103.604 36.3284   9
  -7   8  -9 88.5739 37.1146  26
  -7  -8  -9 81.1546 37.8512  26
  -7  -8 -10 807.047 76.2079   9
  -7  -8 -10 806.165 73.2859  18
  -7   8 -10 834.411 81.6092  17
  -7   8 -10 896.844 85.2352  26
  -7  -8 -10 924.734 85.5244  26
  -7  -8 -11 62.2245 23.0804  18
  -7   8 -11 116.793 37.0135  17
  -7   8 -11 101.902 32.2701  26
  -7  -8 -11 73.4953 27.7919  26
  -7   8 -12 323.644 42.8723  17
  -7  -8 -12 372.784 40.3297  26
   7  -9 -12 1654.16 85.7587   5
   7  -9 -12 1408.08 75.4029  14
   7   9 -12 1674.11 88.8291  24
   7  -9 -11 1715.47 101.223   5
   7  -9 -11 1482.96 89.6087  14
   7   9 -11 1568.53 97.8328  24
   7  -9 -10 432.065 59.6974   5
   7   9 -10 266.886 50.0554  24
   7  -9  -9 1139.11 97.4998   5
   7   9  -9 1243.44 102.098  15
   7  -9  -9 1075.73 92.4238  25
   7   9  -9 1271.60 95.2997  25
   7   9  -9 1187.28 97.9675  24
   7  -9  -8 2048.34 133.350   5
   7  -9  -8 2105.23 131.231  19
   7   9  -8 2108.15 136.281  15
   7  -9  -8 2065.11 133.040  25
   7   9  -8 2267.80 132.042  25
   7   9  -8 2156.62 134.483  24
   7  -9  -7 1711.60 122.764   5
   7  -9  -7 1925.40 123.651  19
   7   9  -7 1930.58 128.510  15
   7  -9  -7 1869.34 126.570  25
   7   9  -7 1996.01 125.567  25
   7  -9  -6 9387.36 298.546  19
   7   9  -6 9540.65 310.198  16
   7  -9  -6 9510.78 306.782  25
   7  -9  -6 9058.22 301.362  24
   7  -9  -6 9506.87 305.673  23
   7  -9  -5 1025.78 85.9356  19
   7   9  -5 1184.65 98.9904  16
   7  -9  -5 1161.20 95.7951  25
   7  -9  -5 1198.26 98.5371  23
   7   9  -4 1553.93 111.189  16
   7  -9  -4 1442.66 104.150  25
   7  -9  -4 1888.60 127.684  24
   7   9  -4 1564.22 107.298  12
   7  -9  -4 1564.34 111.122  23
   7   9  -3 1951.91 233.244  33
   7  -9  -3 1397.48 195.265  28
  -7  -9   3 1345.34 201.115   3
   7   9  -2 4090.55 333.185  33
   7  -9  -2 4124.40 323.965   4
   7   9  -2 4018.35 329.277   4
  -7  -9   2 3816.05 338.095   3
   7  -9  -2 4354.92 331.592  28
  -7  -9   1 733.280 149.732   3
   7   9  -1 680.839 127.582  33
   7  -9  -1 912.509 168.252   1
   7  -9  -1 743.834 138.021   4
   7   9  -1 927.495 152.960   4
   7  -9   0 1584.06 216.536   1
   7  -9   0 1638.45 200.499   4
   7   9   0 1639.17 205.869   4
  -7  -9   0 1438.80 196.716   3
   7  -9   1 3020.33 281.521   4
   7   9   1 2647.62 268.321   4
  -7  -9  -1 2672.18 259.870   3
   7  -9   1 2449.17 270.051   1
  -7  -9  -2 1331.31 192.605   2
   7  -9   2 1268.86 192.329   1
  -7  -9  -3 4045.55 350.382   2
   7  -9   3 4228.68 361.501   1
  -7   9  -4 362.882 54.2318  26
  -7   9  -4 324.282 55.6646   8
  -7  -9  -4 307.998 51.2474  26
   7  -9   4 364.967 56.5873  22
  -7   9  -5 568.914 70.1451  26
  -7  -9  -5 507.457 67.7700  26
  -7   9  -5 557.715 73.5717   8
  -7   9  -6 556.797 70.2405  26
  -7   9  -6 595.347 76.8789   8
  -7  -9  -6 451.477 67.4237  26
  -7   9  -7 3187.90 175.520   8
  -7   9  -7 3187.80 170.470  26
  -7  -9  -7 2961.89 165.333  26
  -7  -9  -8 2600.16 152.592   9
  -7   9  -8 2804.30 161.379   8
  -7   9  -8 2825.45 157.246  17
  -7   9  -8 2924.91 162.245  26
  -7  -9  -8 2828.10 158.794  26
  -7  -9  -9 1047.15 90.6269   9
  -7   9  -9 1061.49 94.6122  17
  -7   9  -9 1017.29 92.9282  26
  -7  -9  -9 1084.84 95.0422  26
  -7  -9 -10 1207.76 90.1202   9
  -7  -9 -10 1128.53 85.2197  18
  -7   9 -10 1202.06 96.2960  17
  -7   9 -10 1285.06 98.5133  26
  -7  -9 -10 1168.64 93.3552  26
  -7  -9 -11 99.4976 27.1503  18
  -7   9 -11 74.3350 30.5889  17
  -7   9 -11 112.439 31.6554  26
  -7  -9 -11 85.7991 29.4086  26
  -7   9 -12 69.0680 26.7548  17
  -7  -9 -12 74.0466 21.3892  26
   7 -10 -12 7772.23 206.705   5
   7 -10 -12 7308.84 193.910  14
   7  10 -12 7886.35 210.588  24
   7 -10 -11 1061.10 78.5243   5
   7 -10 -11 968.251 69.7797  14
   7  10 -11 1101.37 81.3243  24
   7 -10 -10 546.438 65.7484   5
   7  10 -10 406.059 57.5003  24
   7 -10  -9 2208.09 134.504   5
   7 -10  -9 2270.60 132.511  19
   7 -10  -9 2675.12 144.696  25
   7  10  -9 2400.13 129.517  25
   7  10  -9 2267.39 132.908  24
   7 -10  -8 165.705 42.6909  19
   7 -10  -8 223.340 49.2352   5
   7 -10  -8 127.419 34.5872  25
   7  10  -8 275.035 48.2118  25
   7  10  -8 198.591 46.4011  24
   7 -10  -7 4543.95 204.519   5
   7 -10  -7 4517.52 196.707  19
   7  10  -7 4856.20 208.610  16
   7 -10  -7 4276.68 197.104  25
   7 -10  -6 1863.72 122.651  19
   7  10  -6 1903.94 129.243  16
   7 -10  -6 1827.95 123.366  25
   7 -10  -6 2149.07 132.978  23
   7 -10  -5 5934.32 222.917  19
   7  10  -5 5882.02 234.731  16
   7 -10  -5 5691.71 226.091  25
   7 -10  -5 5780.46 230.143  23
   7  10  -4 1.20018 20.9485  16
   7 -10  -4 23.6781 26.9014  25
   7  10  -4-0.66193 22.3097  12
   7 -10  -4 31.2313 21.1399  23
   7  10  -3 1397.34 106.209  16
   7 -10  -3 1408.47 196.975  28
   7  10  -3 1524.91 106.544  12
   7 -10  -3 1558.19 110.428  23
  -7 -10   2 510.911 127.331   3
   7  10  -2 590.823 132.402  33
   7 -10  -2 659.591 135.506  28
   7 -10  -2 446.888 120.083   1
  -7 -10   1 445.212 116.718   3
   7 -10  -1 333.808 104.178   1
   7  10  -1 240.871 80.7007  33
  -7 -10   0 127.832 61.1363   3
   7 -10   0 197.363 87.7386   1
   7 -10   1 344.766 102.315   1
  -7 -10  -1 371.555 102.486   3
   7 -10   2 12434.5 637.808   1
  -7 -10  -2 10904.0 585.102   2
  -7 -10  -3 40.7486 63.3664   2
  -7  10  -3 18.9821 21.7309  26
  -7  10  -3 26.5205 29.3456   8
  -7 -10  -3-6.60868 21.5434  26
   7  10   3 18.0867 23.5172  12
   7 -10   3 8.24820 25.0424  22
  -7  10  -4 1818.78 130.397   8
  -7  10  -4 1880.95 124.233  26
  -7 -10  -4 1858.70 123.451  26
   7  10   4 1944.13 121.633  12
  -7  10  -5 11472.7 336.187  17
  -7  10  -5 11419.8 362.444   8
  -7  10  -5 11596.3 348.964  26
  -7 -10  -5 11590.2 351.898  26
  -7  10  -6 17544.4 449.617  17
  -7  10  -6 16167.1 462.454   8
  -7  10  -6 16340.9 448.986  26
  -7 -10  -6 17893.9 463.047  26
  -7  10  -7 4369.79 209.804   8
  -7  10  -7 4738.57 205.117  17
  -7  10  -7 4580.94 208.198  26
  -7 -10  -7 4221.08 199.895  26
  -7 -10  -8 2.21266 24.6077   9
  -7  10  -8 11.8117 25.7597  17
  -7  10  -8 6.33602 27.3907   8
  -7  10  -8 25.0922 30.6665  26
  -7 -10  -8-8.19001 28.3290  26
  -7 -10  -9 150.890 37.5262   9
  -7  10  -9 205.507 45.6392  17
  -7  10  -9 170.512 44.0491   8
  -7  10  -9 253.952 49.4490  26
  -7 -10  -9 169.584 45.0836  26
  -7 -10 -10 110.159 33.6079   9
  -7 -10 -10 128.166 31.1284  18
  -7  10 -10 55.8957 30.0842  17
  -7  10 -10 135.550 38.1022  26
  -7 -10 -10 110.228 34.8304  26
  -7 -10 -11 16.7159 17.5051  18
  -7  10 -11 21.3982 23.6374  17
  -7  10 -11 63.5279 25.9247  26
  -7 -10 -11 46.2807 24.8415  26
  -7  10 -12 1984.31 97.3230  17
   7 -11 -12 191.325 25.7564  14
   7  11 -12 149.375 28.8759  24
   7 -11 -11 253.882 40.2017   5
   7 -11 -11 194.024 34.3895  14
   7  11 -11 298.992 46.9594  24
   7 -11 -10 221.998 46.3323   5
   7  11 -10 170.785 39.9461  24
   7 -11  -9 242.305 49.3128  19
   7 -11  -9 289.622 52.9065   5
   7  11  -9 259.850 49.3700  24
   7 -11  -8 454.454 62.4455  19
   7 -11  -8 512.414 68.0175   5
   7  11  -8 416.146 58.1241  16
   7 -11  -8 537.218 76.8799  25
   7  11  -8 510.566 63.9758  25
   7 -11  -7 297.661 50.7968  19
   7 -11  -7 346.303 58.2826   5
   7  11  -7 465.945 64.6609  16
   7 -11  -7 289.343 52.9393  25
   7 -11  -6 1661.48 115.319  19
   7  11  -6 1716.85 122.907  16
   7 -11  -6 1761.99 122.142  25
   7 -11  -6 1756.13 121.035  23
   7 -11  -5 8291.20 275.327  19
   7  11  -5 8133.09 286.211  16
   7 -11  -5 7857.20 275.184  25
   7 -11  -5 7914.16 279.796  23
   7  11  -4 773.028 81.0137  16
   7 -11  -4 778.346 79.5573  25
   7  11  -4 815.840 78.7328  12
   7 -11  -4 701.056 77.0987  23
   7  11  -3 620.796 71.8034  16
   7 -11  -3 690.040 74.2962  27
   7 -11  -3 721.193 73.9895  25
   7  11  -3 717.277 76.4814  12
   7 -11  -3 625.058 71.7508  23
   7  11  -2 1503.95 110.455  16
   7 -11  -2 1240.61 178.619  28
   7  11  -2 1437.59 104.609  12
   7 -11  -2 1483.73 108.715  23
   7 -11  -1 1708.34 227.444   1
   7  11  -1 1318.07 197.902  33
   7  11  -1 1638.71 113.859  16
   7  11  -1 1493.92 107.770  12
  -7 -11   1 1529.41 218.442   3
   7 -11  -1 1568.43 111.618  23
  -7 -11   0 3241.83 307.269   3
   7 -11   0 2482.07 280.331   1
   7 -11   1 7372.10 488.506   1
   7  11   1 7225.86 253.298  12
   7  11   2 4196.42 190.371  16
  -7  11  -2 4348.26 198.249   8
  -7 -11  -2 4419.27 367.752   2
   7  11   2 4397.25 191.745  12
  -7  11  -3 110.839 36.1541  26
  -7  11  -3 95.5695 36.1428   8
  -7 -11  -3 111.524 29.8881  26
   7  11   3 133.275 36.8622  12
  -7  11  -4 3986.33 197.937   8
  -7 -11  -4 4124.50 191.675  26
   7  11   4 4369.35 190.864  12
  -7  11  -4 4455.87 196.628  26
  -7  11  -5 3130.73 157.242  17
  -7  11  -5 2786.21 165.237   8
  -7  11  -5 2695.05 153.934  26
  -7 -11  -5 2781.09 157.045  26
  -7  11  -6 2525.30 144.143  17
  -7  11  -6 2275.75 149.810   8
  -7  11  -6 2252.41 143.192  26
  -7 -11  -6 2391.77 146.509  26
  -7  11  -7 2885.09 167.335   8
  -7  11  -7 2960.72 159.117  17
  -7  11  -7 2629.06 156.135  26
  -7 -11  -7 2945.88 161.759  26
  -7 -11  -8 135.278 41.6713   9
  -7  11  -8 46.9032 26.7126  17
  -7  11  -8 190.022 48.5831   8
  -7  11  -8 137.442 40.2912  26
  -7 -11  -8 202.807 48.9726  26
  -7 -11  -9 2588.79 139.904   9
  -7 -11  -9 2437.16 129.854  18
  -7  11  -9 2685.77 146.689   8
  -7  11  -9 2449.97 139.913  17
  -7  11  -9 2491.48 143.838  26
  -7 -11  -9 2214.41 134.221  26
  -7 -11 -10 32.9971 22.2612   9
  -7 -11 -10 20.3646 21.9957  18
  -7  11 -10 74.7969 31.9339  17
  -7  11 -10 40.4682 27.1559  26
  -7 -11 -10 43.5814 26.4890  26
  -7 -11 -11 62.3374 21.0215  18
  -7  11 -11 30.6881 23.6396  17
  -7 -11 -11 85.6712 29.9118  26
  -7  11 -12 239.070 34.8493  21
  -7  11 -12 296.922 36.4735  17
   7 -12 -11 5115.48 173.077   5
   7 -12 -11 4855.87 159.597  14
   7  12 -11 4986.19 171.402  24
   7 -12 -10 1654.10 105.238   5
   7  12 -10 1835.40 107.121  24
   7 -12  -9 1537.07 109.287   5
   7 -12  -9 1473.76 104.077  19
   7  12  -9 1509.18 105.917  24
   7 -12  -8 3440.36 173.186   5
   7 -12  -8 3492.70 169.454  19
   7  12  -8 3851.87 177.215  16
   7 -12  -8 4076.95 185.927  25
   7  12  -8 3683.65 168.823  25
   7 -12  -7 3451.30 175.492   5
   7 -12  -7 3645.41 174.128  19
   7  12  -7 3487.91 177.010  16
   7 -12  -7 3516.59 177.890  25
   7 -12  -6 3749.71 176.858  19
   7  12  -6 3619.11 183.068  16
   7 -12  -6 3429.20 173.014  25
   7 -12  -6 3736.70 181.220  23
   7 -12  -5 72.0186 27.9504  19
   7  12  -5 52.4308 29.7020  16
   7 -12  -5 15.2812 28.3458  25
   7  12  -4 245.158 53.0115  16
   7 -12  -4 297.788 51.2627  25
   7  12  -4 226.443 44.5754  12
   7 -12  -4 161.769 38.5651  23
   7  12  -3 1088.80 97.1164  16
   7 -12  -3 1109.26 95.9291  27
   7 -12  -3 1160.43 97.0591  25
   7  12  -3 1103.59 95.0694  12
   7 -12  -3 1054.31 95.7808  23
   7  12  -2 5036.47 217.445  16
   7 -12  -2 5678.94 214.112  25
   7 -12  -2 5909.12 231.434  27
   7  12  -2 5782.42 225.594  12
   7 -12  -2 5268.85 221.728  23
   7  12  -1 1310.72 103.534  16
   7  12  -1 1602.79 113.510  12
   7 -12  -1 1484.76 110.777  23
  -7 -12   0 443.819 114.237   3
   7  12   0 350.168 53.9105  16
  -7  12   0 435.380 62.1973   8
   7 -12   0 425.374 61.4477  23
   7  12   0 419.383 57.0166  12
  -7  12  -1 33548.1 723.796   8
   7  12   1 32352.9 713.052  16
  -7  12  -1 32146.6 695.870  26
   7  12   1 35102.4 726.809  12
   7 -12   1 33144.8 716.429  23
   7  12   2 1482.94 111.352  16
  -7  12  -2 1564.41 117.653   8
  -7  12  -2 1346.25 102.597  26
   7  12   2 1568.93 113.460  12
   7 -12   2 1438.16 108.763  23
  -7  12  -3 346.028 53.7773  26
  -7  12  -3 234.097 51.8488   8
   7  12   3 254.070 47.3615  12
  -7  12  -4 125.965 38.3178  26
  -7  12  -4 87.9401 41.0487   8
  -7 -12  -4 58.6810 30.1846  26
   7  12   4 125.343 36.9589  12
  -7  12  -5 9690.97 306.107  17
  -7  12  -5 9288.65 326.024   8
  -7  12  -5 10017.1 322.677  26
  -7 -12  -5 9963.41 320.761  26
  -7  12  -6 1798.82 121.534  17
  -7  12  -6 1520.18 123.343   8
  -7  12  -6 1594.81 120.190  26
  -7 -12  -6 1776.61 125.893  26
  -7  12  -7 49.9764 36.0810  17
  -7  12  -7 52.9313 35.8873   8
  -7  12  -7 9.23857 33.6826  26
  -7 -12  -7 31.9344 32.4917  26
  -7  12  -8 1085.52 98.9559   8
  -7  12  -8 952.433 87.7811  17
  -7  12  -8 936.954 91.1791  26
  -7 -12  -8 977.095 91.2848  26
  -7 -12  -9 75.5884 29.4486   9
  -7 -12  -9 158.921 37.8637  18
  -7  12  -9 109.711 36.2896  17
  -7  12  -9 113.315 32.7734   8
  -7  12  -9 162.561 42.4757  26
  -7 -12  -9 148.781 42.5097  26
  -7 -12 -10 2478.90 118.824  18
  -7  12 -10 2482.49 132.286  17
  -7  12 -10 2549.39 132.038  26
  -7 -12 -10 2464.93 128.722  26
  -7 -12 -11 224.876 32.0483  18
  -7  12 -11 275.569 42.6153  17
  -7 -12 -11 258.410 37.5128  26
   7 -13 -11-4.67663 17.8999   5
   7 -13 -11-5.64640 21.0956  14
   7  13 -11 27.4643 24.8630  24
   7 -13 -10 252.115 45.5313   5
   7  13 -10 271.897 45.7359  24
   7 -13  -9 586.470 69.5527   5
   7 -13  -9 616.348 66.9451  19
   7  13  -9 605.801 67.5694  24
   7 -13  -8 2588.97 148.283   5
   7 -13  -8 2540.38 141.938  19
   7  13  -8 2690.45 146.453  16
   7  13  -8 2647.75 138.834  25
   7 -13  -7 297.895 53.2219  19
   7 -13  -7 304.557 55.4399   5
   7  13  -7 318.135 56.0459  16
   7 -13  -6 1425.55 106.727  19
   7  13  -6 1309.36 109.966  16
   7 -13  -6 1364.34 112.547  25
   7 -13  -6 1397.75 108.077  23
   7 -13  -5 994.342 88.9069  19
   7  13  -5 880.098 91.0301  16
   7 -13  -5 944.696 88.4073  25
   7 -13  -5 846.877 88.3740  23
   7  13  -4 5366.33 230.089  16
   7 -13  -4 5669.61 224.751  25
   7  13  -4 6284.70 235.284  12
   7 -13  -4 5636.99 232.604  23
   7  13  -3 47.6992 27.3364  16
   7 -13  -3 41.7545 24.5760  27
   7 -13  -3 15.9533 27.9816  25
   7  13  -3 53.4329 32.7991  12
   7 -13  -3 89.4880 34.8028  23
   7  13  -2 25102.1 601.817  16
   7 -13  -2 26345.0 609.801  27
   7  13  -2 26101.5 600.453  12
   7 -13  -2 24750.9 598.809  23
   7  13  -1 63.7695 27.6074  16
   7 -13  -1 83.7434 34.7174  27
   7 -13  -1 32.1637 27.9044  23
   7  13  -1 109.796 30.5675  12
  -7  13   0 972.336 89.9151   8
   7  13   0 955.082 90.5487  16
   7  13   0 935.482 88.1049  12
   7 -13   0 1060.71 94.9758  23
   7  13   1 10355.8 329.358  16
   7  13   1 9802.33 320.962  12
   7 -13   1 9601.96 319.922  23
  -7  13  -2 5461.67 230.740   8
   7  13   2 5692.16 227.876  16
  -7  13  -2 5352.73 218.438  26
   7  13   2 5321.98 220.329  12
   7 -13   2 5489.47 224.341  23
  -7  13  -3 3426.89 181.749   8
  -7  13  -3 3415.35 172.359  26
   7  13   3 3744.50 180.096  12
  -7  13  -4 469.992 69.7041   8
  -7  13  -4 431.071 62.4842  26
  -7 -13  -4 440.407 62.5296  26
   7  13   4 313.150 53.2268  12
  -7  13  -5 2755.22 149.160  17
  -7  13  -5 2480.78 156.388   8
  -7  13  -5 2530.63 151.160  26
  -7 -13  -5 2511.42 150.745  26
  -7  13  -6 1024.83 95.4718  17
  -7  13  -6 909.280 95.4062   8
  -7  13  -6 846.807 88.5810  26
  -7 -13  -6 813.677 85.7157  26
  -7  13  -7 20.1640 24.9260  17
  -7  13  -7 25.8789 29.9938   8
  -7  13  -7-18.9420 35.9362  26
  -7 -13  -7 48.8998 29.7576  26
  -7  13  -8 3112.48 167.118   8
  -7  13  -8 2903.19 158.730  26
  -7 -13  -8 2846.84 157.818  26
  -7 -13  -9 66.1953 29.1398   9
  -7 -13  -9 58.4236 26.4102  18
  -7  13  -9 31.2260 26.8769  17
  -7  13  -9 55.6872 32.1658  26
  -7  13  -9 31.8198 26.2617   8
  -7 -13  -9 47.1854 29.7885  26
  -7 -13 -10 70.9636 24.4853  18
  -7  13 -10 72.4819 30.3000  17
  -7 -13 -10 81.9780 29.8980  26
  -7  13 -11 18.2443 18.3374  21
  -7  13 -11 47.2408 22.0658  17
  -7 -13 -11 63.7976 22.8898  26
   7 -14 -11 713.177 55.9695   5
   7 -14 -11 595.798 46.9681  14
   7  14 -11 686.258 54.3002  24
   7 -14 -10 3566.04 149.890   5
   7  14 -10 3750.95 150.404  24
   7 -14  -9-5.50196 25.8875  19
   7 -14  -9-8.87465 30.6399   5
   7  14  -9 5.26903 21.4354  16
   7  14  -9 55.0623 31.0602  24
   7 -14  -8 1650.73 116.291   5
   7 -14  -8 1627.89 110.793  19
   7  14  -8 1852.53 119.764  16
   7  14  -8 2017.45 115.326  25
   7 -14  -7 775.820 80.6314   5
   7 -14  -7 638.573 73.0298  19
   7  14  -7 607.160 73.1286  16
   7 -14  -6 2205.74 134.881  19
   7  14  -6 2201.76 142.197  16
   7 -14  -6 2423.24 141.925  23
   7 -14  -5 16582.6 434.900  19
   7  14  -5 15937.7 448.581  16
   7 -14  -5 17253.9 441.362  25
   7 -14  -5 16114.3 442.788  23
   7  14  -4 5518.71 236.089  16
   7 -14  -4 5844.82 229.101  25
   7  14  -4 6382.06 239.774  12
   7 -14  -4 5704.55 236.742  23
   7 -14  -4 6152.95 238.830  27
   7  14  -3 3881.42 192.226  16
   7 -14  -3 4360.82 201.276  27
   7 -14  -3 4504.53 192.663  25
   7  14  -3 4382.54 197.055  12
   7 -14  -3 4267.03 200.978  23
   7  14  -2 8098.93 286.928  16
   7 -14  -2 7441.86 278.020  27
   7  14  -2 8436.85 286.601  12
   7 -14  -2 7604.15 280.655  23
   7  14  -1 37.0421 24.5007  16
   7 -14  -1 13.8821 31.8276  27
   7 -14  -1 108.308 42.9019  23
   7  14  -1 23.5301 26.6489  12
  -7  14   0 3243.50 167.685   8
   7  14   0 3438.10 172.918  16
   7 -14   0 3195.50 173.783  27
   7  14   0 3191.23 167.367  12
   7 -14   0 3448.34 176.628  23
   7  14   1-10.0513 26.9669  16
   7 -14   1 3.57000 26.4298  27
  -7  14  -1 59.8400 38.1622   8
   7 -14   1 41.5259 24.2839  23
   7  14   1 25.7899 30.9770  12
  -7  14  -2 16786.4 452.731   8
   7  14   2 16558.1 442.121  16
   7  14   2 15877.8 437.534  12
   7 -14   2 15990.9 438.385  23
  -7  14  -3 3776.10 191.362   8
  -7  14  -3 3653.97 179.483  26
   7  14   3 3748.84 183.638  12
   7 -14   4 407.831 64.0296  27
  -7  14  -4 410.987 67.9007   8
  -7  14  -4 436.614 62.6115  26
  -7 -14  -4 388.026 57.8963  26
   7  14   4 462.085 63.1874  12
  -7  14  -5 1311.76 100.134  17
  -7  14  -5 1151.40 105.067   8
   7 -14   5 1184.08 105.800  27
  -7  14  -5 959.959 93.9087  26
  -7 -14  -5 1197.79 101.979  26
  -7  14  -6 224.972 48.1063  17
  -7  14  -6 230.316 52.6354   8
  -7  14  -6 169.848 41.9211  26
  -7 -14  -6 211.843 48.3048  26
  -7  14  -7 721.530 75.1343  17
  -7  14  -7 707.450 79.1140  26
  -7  14  -7 600.247 77.2485   8
  -7 -14  -7 643.900 75.9845  26
  -7  14  -8 1034.80 95.2927   8
  -7  14  -8 1081.66 92.3415  17
  -7  14  -8 1186.23 97.1861  26
  -7 -14  -8 1023.97 91.1144  26
  -7 -14  -9 122.428 32.2520   9
  -7 -14  -9 128.328 35.6821  18
  -7  14  -9 92.1439 32.7482  17
  -7  14  -9 101.797 35.3672   8
  -7 -14  -9 88.4983 32.2732  26
  -7 -14 -10 1121.74 73.4395  18
  -7  14 -10 1145.87 83.7406  17
  -7 -14 -10 1194.93 83.1742  26
  -7  14 -11 1505.58 82.8308  21
  -7 -14 -11 1490.80 77.0457  26
   7 -15 -11-12.2121 15.7553   5
   7 -15 -11-40.0786 20.6762  14
   7 -15 -10 4393.81 161.443   5
   7  15 -10 4409.08 159.098  24
   7 -15  -9 1535.39 101.126   5
   7 -15  -9 1436.29 94.8960  19
   7  15  -9 1483.42 95.5374  16
   7  15  -9 1465.15 95.2905  24
   7 -15  -8 158.072 40.0232  19
   7 -15  -8 115.065 37.3397   5
   7  15  -8 76.8809 33.0096  16
   7  15  -8 132.323 32.6123  25
   7 -15  -7 214.075 43.9502  19
   7 -15  -7 302.687 53.5323   5
   7  15  -7 258.791 49.6872  16
   7 -15  -6 2485.65 142.559  19
   7  15  -6 2545.42 152.192  16
   7 -15  -6 2692.62 148.990  23
   7 -15  -5 455.755 62.7258  19
   7  15  -5 414.204 64.4807  16
   7 -15  -5 558.445 72.9545  23
   7  15  -4 12.8897 28.0955  16
   7 -15  -4 1.60915 25.9187  27
   7 -15  -4 40.3985 34.5577  23
   7  15  -4 20.4244 25.1500  12
   7  15  -3 308.729 57.7640  16
   7 -15  -3 271.637 51.8647  27
   7 -15  -3 263.520 54.3231  23
   7  15  -3 439.883 63.7421  12
   7  15  -2 1346.90 109.621  16
   7 -15  -2 1297.51 107.590  27
   7  15  -2 1299.13 106.550  12
   7 -15  -2 1336.15 110.832  23
   7  15  -1 17849.7 470.723  16
   7 -15  -1 18588.8 482.658  27
   7  15  -1 16736.2 461.082  12
   7 -15  -1 17472.5 469.960  23
  -7  15   0 5424.28 219.329   8
   7  15   0 5088.02 215.866  16
   7  15   0 4655.64 209.716  12
   7 -15   0 4918.84 217.164  23
  -7  15  -1 763.780 83.6883   8
   7  15   1 832.289 84.6990  16
   7 -15   1 863.337 90.2138  27
   7  15   1 837.961 87.9003  12
   7 -15   1 817.470 84.8773  23
   7  15   2 91.8384 36.1496  16
   7 -15   2 119.013 48.7147  27
  -7  15  -2 37.3310 28.5604   8
   7 -15   2 36.4928 26.1487  23
   7  15   2 144.093 41.9311  12
  -7  15  -3 872.200 93.1511   8
   7 -15   3 1131.74 104.709  27
   7  15   3 866.729 87.7835  12
   7 -15   4 260.236 54.6140  27
  -7  15  -4 185.615 47.1011  26
  -7  15  -4 203.197 50.7720   8
  -7 -15  -4 127.677 35.7838  26
   7  15   4 150.167 41.9992  12
  -7  15  -5 1349.69 102.005  17
  -7  15  -5 1490.31 120.262   8
   7 -15   5 1510.09 117.549  27
  -7  15  -5 1421.15 113.438  26
  -7 -15  -5 1444.46 109.912  26
  -7  15  -6 506.635 65.2381  17
  -7  15  -6 459.039 68.8676  26
  -7  15  -6 437.167 69.2763   8
  -7 -15  -6 416.742 63.8594  26
  -7  15  -7 9.36041 27.0548  17
  -7  15  -7-9.79836 32.3649   8
  -7 -15  -7-7.45006 27.1753  26
  -7  15  -8 167.281 39.0904  17
  -7  15  -8 93.4027 34.9196   8
  -7 -15  -8 147.727 40.2599  26
  -7 -15  -9 4804.01 175.339   9
  -7 -15  -9 4651.84 171.274  18
  -7  15  -9 4710.16 186.671   8
  -7  15  -9 4956.01 188.281  17
  -7 -15  -9 5025.56 190.484  26
  -7  15 -10 545.350 54.7262  21
  -7 -15 -10 572.325 49.2374  18
  -7  15 -10 684.137 57.1410   8
  -7 -15 -10 592.041 56.7213  26
   7 -16 -10 36.4795 20.5353   5
   7  16 -10 31.4614 22.8075  24
   7 -16  -9 2332.58 119.795   5
   7 -16  -9 2214.47 114.738  19
   7  16  -9 2205.05 114.086  16
   7  16  -9 2159.55 113.833  24
   7 -16  -8 69.0745 31.9927  19
   7 -16  -8 5.65077 27.6280   5
   7  16  -8-16.7564 24.1029  16
   7 -16  -7 389.203 57.5560  19
   7 -16  -7 329.218 54.7501   5
   7  16  -7 404.490 61.1878  16
   7 -16  -6 5360.51 217.444   5
   7 -16  -6 5039.17 206.231  19
   7  16  -6 4889.94 216.915  16
   7 -16  -6 5392.47 214.430  23
   7 -16  -5 2677.36 148.738  19
   7  16  -5 2695.48 158.803  16
   7 -16  -5 2835.14 156.781  23
   7  16  -4 2908.91 165.487  16
   7 -16  -4 3374.66 169.635  27
   7  16  -4 3346.72 169.156  12
   7 -16  -4 2912.35 164.551  23
   7  16  -3 2053.05 137.239  16
   7 -16  -3 1831.90 129.559  27
   7  16  -3 1851.90 128.026  12
   7 -16  -3 1772.54 130.062  23
   7  16  -2 708.638 81.2892  16
   7 -16  -2 758.443 85.8397  27
   7  16  -2 801.811 85.6845  12
   7 -16  -2 808.321 88.5595  23
   7  16  -1 3080.45 167.638  16
   7 -16  -1 2592.74 158.383  27
   7  16  -1 3106.48 168.694  12
   7 -16  -1 3161.64 170.669  23
   7 -16   0 437.577 66.6323  27
   7  16   0 493.017 66.6963  16
   7 -16   0 593.195 77.7624  23
   7  16   0 418.485 62.0241  12
  -7  16  -1 6223.65 246.457   8
   7  16   1 6462.88 246.864  16
   7 -16   1 6230.63 252.498  27
   7 -16   1 6100.39 246.377  23
   7  16   1 5621.49 235.817  12
  -7  16  -2 2629.43 156.328   8
   7  16   2 2634.32 151.821  16
   7 -16   2 2452.98 154.921  27
   7 -16   2 2574.84 151.878  23
   7  16   2 2451.15 148.659  12
  -7  16  -3 17438.2 470.339   8
   7 -16   3 17601.0 473.251  27
   7  16   3 16329.2 450.083  12
  -7  16  -4 3014.82 172.223   8
   7 -16   4 3366.69 177.542  27
  -7 -16  -4 2929.69 161.218  26
   7  16   4 3012.19 161.055  12
  -7  16  -5 1475.44 121.259   8
  -7 -16  -5 1671.27 120.359  26
   7 -16   5 1819.93 126.616  27
  -7  16  -6 254.945 49.0490  17
  -7  16  -6 235.244 54.3016   8
  -7 -16  -6 216.029 48.3561  26
  -7  16  -7 2276.85 142.604   8
  -7  16  -7 2631.93 140.048  17
  -7 -16  -7 2392.54 139.750  26
  -7  16  -8 393.957 58.3424   8
  -7 -16  -8 308.393 51.6747  26
  -7  16  -9 393.218 49.3620  21
  -7 -16  -9 425.313 47.8303   9
  -7 -16  -9 372.546 44.6218  18
  -7  16  -9 377.303 50.1450   8
  -7 -16  -9 447.507 54.5509  26
  -7  16 -10 845.093 61.6135  21
  -7  16 -10 831.558 59.4298   8
  -7 -16 -10 909.045 65.5617  26
   7 -17 -10 175.170 30.0312   5
   7  17 -10 185.079 31.8721  24
   7 -17  -9 3145.50 135.174   5
   7 -17  -9 3143.40 132.638  19
   7  17  -9 3260.31 135.830  16
   7  17  -9 3041.28 130.891  24
   7 -17  -8 193.807 41.0634  19
   7 -17  -8 145.221 37.4667   5
   7  17  -8 141.635 36.7015  16
   7 -17  -7 2272.32 130.778   5
   7 -17  -7 2394.89 131.019  19
   7  17  -7 2139.75 131.365  16
   7 -17  -6 80.1065 31.6482   5
   7  17  -6 63.2782 34.5064  16
   7 -17  -6 72.5765 32.6305  23
   7 -17  -5 38.5685 30.9213  19
   7  17  -5 54.5564 34.1794  16
   7 -17  -5 95.5285 39.4887  23
   7  17  -4 2248.02 144.544  16
   7 -17  -4 2303.76 138.879  27
   7  17  -4 2487.11 143.165  12
   7 -17  -4 2219.14 141.091  23
   7  17  -3 210.815 47.7314  16
   7 -17  -3 176.461 44.7720  27
   7 -17  -3 194.064 47.8430  23
   7  17  -3 241.810 50.1146  12
   7  17  -2 3211.48 171.659  16
   7 -17  -2 3027.20 169.250  27
   7  17  -2 3129.94 169.515  12
   7 -17  -2 2912.30 166.472  23
   7  17  -1 1491.19 116.198  16
   7 -17  -1 1311.57 109.605  27
   7 -17  -1 1349.10 111.133  23
   7  17  -1 1268.11 106.993  12
   7  17   0 5942.80 239.204  16
   7 -17   0 5823.53 245.439  27
   7 -17   0 6010.27 245.203  23
   7  17   0 5966.53 242.559  12
  -7  17  -1 1649.31 118.949   8
   7  17   1 1583.28 117.230  16
   7 -17   1 1376.50 116.618  27
   7 -17   1 1403.90 113.160  23
   7  17   1 1505.23 116.523  12
  -7  17  -2 651.562 79.7421   8
   7  17   2 647.760 74.6712  16
   7 -17   2 645.298 80.4853  27
   7 -17   2 686.303 77.7607  23
   7  17   2 645.410 77.8331  12
  -7  17  -3 2265.92 146.335   8
   7 -17   3 2638.29 157.260  27
   7  17   3 2234.41 141.897  12
  -7  17  -4 878.173 94.2433   8
   7 -17   4 996.683 97.8381  27
  -7 -17  -4 961.086 91.2362  26
   7  17   4 971.490 90.5295  12
  -7  17  -5 1194.40 108.136   8
   7 -17   5 1294.85 105.768  27
  -7 -17  -5 1538.92 115.746  26
  -7  17  -6 240.324 52.5164   8
  -7 -17  -6 262.193 51.6950  26
  -7  17  -7 1112.63 97.8473   8
  -7 -17  -7 1206.39 95.9537  26
  -7 -17  -8 1556.64 97.0540   9
  -7  17  -8 1355.18 101.430   8
  -7 -17  -8 1374.83 97.3973  26
  -7  17  -9 820.038 63.1885  21
  -7 -17  -9 942.766 65.0456  18
  -7  17  -9 909.672 72.7794   8
  -7 -17  -9 783.670 66.5787  26
  -7 -17 -10 175.042 28.4364  26
   7 -18  -9 1671.99 90.4568   5
   7 -18  -9 1646.43 88.5900  19
   7  18  -9 1682.38 90.9007  16
   7  18  -9 1632.72 87.7385  24
   7 -18  -8 1243.25 86.4093   5
   7 -18  -8 1370.36 89.8304  19
   7  18  -8 1426.20 94.7248  16
   7  18  -8 1382.81 88.3832  24
   7 -18  -7 1648.38 106.815   5
   7 -18  -7 1646.41 105.736  19
   7  18  -7 1642.03 111.574  16
   7 -18  -6 5759.97 220.737   5
   7 -18  -6 6342.56 226.103  19
   7  18  -6 5993.29 235.238  16
   7 -18  -5 117.692 35.5926  19
   7  18  -5 44.3974 33.8979  16
   7 -18  -5 16.5633 26.0498  23
   7  18  -4 242.024 51.6474  16
   7 -18  -4 291.883 50.7847  27
   7 -18  -4 324.363 57.3824  23
   7  18  -4 198.962 41.9809  12
   7  18  -3 3845.13 188.548  16
   7 -18  -3 3737.59 183.890  27
   7  18  -3 3641.42 179.538  12
   7 -18  -3 3430.87 179.627  23
   7  18  -2 1678.46 121.611  16
   7 -18  -2 1656.95 123.781  27
   7 -18  -2 1509.86 120.553  23
   7  18  -2 1701.68 122.711  12
   7  18  -1 5683.38 232.902  16
   7 -18  -1 5074.62 226.730  27
   7 -18  -1 5912.09 240.180  23
   7  18  -1 5401.77 231.010  12
   7  18   0 204.496 48.8490  16
   7 -18   0 218.813 49.8129  27
   7 -18   0 142.002 46.8038  23
   7  18   0 206.048 50.6177  12
  -7  18  -1 1231.03 102.186   8
   7  18   1 1132.51 99.2443  16
   7 -18   1 1025.34 100.366  27
   7 -18   1 1204.43 103.866  23
   7  18   1 931.898 95.1474  12
  -7  18  -2 2443.11 147.856   8
   7  18   2 2729.61 149.100  16
   7 -18   2 2270.51 147.950  27
   7 -18   2 2359.10 145.604  23
   7  18   2 2111.49 138.390  12
  -7  18  -3 1960.76 131.747   8
   7 -18   3 1773.67 129.452  27
   7  18   3 1908.52 129.184  12
  -7  18  -4 3084.81 170.007   8
   7 -18   4 3219.26 171.057  27
  -7 -18  -4 3192.20 166.655  26
   7  18   4 3105.27 161.758  12
  -7  18  -5 5360.27 226.188   8
  -7 -18  -5 4801.69 208.371  26
   7 -18   5 5092.07 211.699  27
  -7  18  -6-55.3651 37.4748   8
  -7 -18  -6 46.2943 33.9238  26
  -7  18  -7 45.2626 36.9044   8
  -7 -18  -7 3.06423 30.4276  26
  -7 -18  -8 236.235 38.2402   9
  -7  18  -8 257.232 46.4597   8
  -7 -18  -8 228.739 44.7077  26
  -7  18  -9 1254.53 80.6748   8
  -7 -18  -9 1370.48 82.9957  26
   7 -19  -9 48.8389 20.2532   5
   7  19  -9 53.4793 21.2448  16
   7  19  -9 42.1137 20.4980  24
   7 -19  -8 285.019 41.5965  19
   7 -19  -8 275.513 41.2825   5
   7  19  -8 263.902 42.6410  16
   7  19  -8 298.738 41.1249  24
   7 -19  -7 465.653 56.1499   5
   7 -19  -7 407.568 52.3335  19
   7  19  -7 504.085 63.4036  16
   7  19  -7 474.969 50.6099  25
   7 -19  -6-8.68185 26.2394  19
   7 -19  -6 34.8426 27.5807   5
   7  19  -6 68.4965 38.7549  16
   7 -19  -5 97.4105 32.5504  19
   7  19  -5 232.499 49.7688  16
   7  19  -4 382.399 60.9633  16
   7 -19  -4 421.675 57.7270  27
   7  19  -4 510.383 64.7830  12
   7 -19  -4 430.359 63.6411  23
   7  19  -3 47.1322 36.8957  16
   7 -19  -3-5.82670 29.4528  27
   7 -19  -3 18.5622 36.4177  23
   7  19  -3 17.6074 26.2116  12
   7  19  -2-6.92282 28.3094  16
   7 -19  -2 42.4179 32.7348  27
   7 -19  -2 56.1441 39.7181  23
   7  19  -2-32.3612 31.6163  12
   7  19  -1 389.837 61.3736  16
   7 -19  -1 332.623 62.4979  27
   7 -19  -1 433.064 68.1614  23
   7  19  -1 351.239 61.9802  12
   7  19   0 10272.8 322.756  16
   7 -19   0 10250.8 331.964  23
   7  19   0 9576.55 320.752  12
   7 -19   0 9438.98 324.446  27
  -7  19  -1 1105.33 95.0078   8
   7  19   1 1230.67 102.149  16
   7 -19   1 873.336 94.4589  27
   7 -19   1 917.616 93.5106  23
   7  19   1 1004.59 96.0367  12
   7 -19   2 28.2594 33.9240  27
  -7  19  -2 122.945 39.4158   8
   7  19   2 80.5684 37.8956  12
  -7  19  -3 892.454 89.7601   8
   7 -19   3 672.454 82.5436  27
   7  19   3 824.338 83.3803  12
  -7  19  -4 4613.02 210.742   8
  -7 -19  -4 4940.66 209.208  26
   7  19   4 4998.94 205.211  12
   7 -19   5 220.575 46.0334  27
  -7  19  -5 170.881 47.1472   8
  -7 -19  -5 200.346 47.4863  26
  -7  19  -6 93.3859 43.2889   8
  -7 -19  -6 130.828 41.6933  26
  -7  19  -7 880.352 81.0641   8
  -7 -19  -7 998.705 81.9404  26
  -7 -19  -8 127.233 28.9340   9
  -7  19  -8 148.973 34.5210   8
  -7 -19  -8 130.762 33.7353  26
  -7  19  -9 1408.84 79.8918   8
  -7 -19  -9 1377.08 78.0936  26
   7 -20  -8 352.438 40.8785   5
   7 -20  -8 403.938 44.8552  19
   7  20  -8 394.651 46.6434  16
   7  20  -8 333.376 38.9084  24
   7 -20  -7-6.35568 24.5484  19
   7 -20  -7 5.42293 19.8422   5
   7  20  -7 48.5235 28.7253  16
   7 -20  -6 28.7065 22.7717  19
   7 -20  -6-0.24209 24.2207   5
   7  20  -6 38.4592 31.2302  16
   7 -20  -5 190.844 41.7262  19
   7 -20  -5 266.358 44.7100   5
   7  20  -5 235.615 51.7479  16
   7  20  -4 991.699 93.2695  16
   7 -20  -4 1176.59 91.6991  27
   7  20  -4 983.643 84.5574  12
   7  20  -3 1666.60 118.942  16
   7 -20  -3 1679.61 116.384  27
   7 -20  -3 1587.73 116.814  23
   7  20  -3 1609.14 113.994  12
   7  20  -2 1272.29 103.172  16
   7 -20  -2 1234.38 103.493  27
   7 -20  -2 1233.26 105.338  23
   7  20  -2 1050.90 94.4473  12
   7  20  -1 1500.11 111.882  16
   7 -20  -1 1203.85 103.348  27
   7 -20  -1 1387.76 110.167  23
   7  20  -1 1324.34 107.811  12
   7 -20   0 5359.43 229.529  27
   7  20   0 5304.33 226.181  12
   7 -20   1 147.746 46.0451  27
  -7  20  -1 123.831 36.9603   8
   7  20   1 258.698 47.5569  16
   7  20   1 117.315 42.4183  12
   7 -20   2 253.617 52.3748  27
  -7  20  -2 195.179 44.3427   8
   7  20   2 109.450 38.4434  12
   7 -20   3 333.420 56.7971  27
  -7  20  -3 300.245 55.5842   8
   7  20   3 275.893 51.2828  12
  -7  20  -4 2513.32 147.100   8
   7 -20   4 2944.08 154.326  27
  -7 -20  -4 2813.37 149.129  26
   7  20   4 2563.66 141.660  12
  -7  20  -5 5575.99 223.392   8
   7 -20   5 6080.87 216.972  27
  -7 -20  -5 5373.41 212.971  26
  -7  20  -6 7969.95 266.058   8
  -7 -20  -6 8035.41 257.353  26
  -7  20  -7 1737.29 109.231   8
  -7 -20  -7 1675.00 101.946  26
  -7  20  -8 92.4795 28.8385   8
  -7 -20  -8 97.2128 28.5199  26
   7 -21  -8 1135.29 64.8991   5
   7 -21  -8 1222.33 69.6986  19
   7  21  -8 1122.51 70.6260  16
   7 -21  -7 546.676 51.6708   5
   7 -21  -7 524.354 51.5515  19
   7  21  -7 590.053 59.3325  16
   7  21  -7 488.751 46.7509  24
   7 -21  -6 512.958 54.7095   5
   7 -21  -6 561.840 57.5192  19
   7  21  -6 579.721 64.3194  16
   7 -21  -5 146.202 36.3744  19
   7 -21  -5 157.181 36.9015   5
   7  21  -5 142.938 39.8796  16
   7  21  -4 2127.05 128.729  16
   7 -21  -4 2047.75 119.424  27
   7  21  -4 2323.11 127.570  12
   7  21  -3 56.2601 29.7010  16
   7 -21  -3 83.3771 35.7266  27
   7  21  -3 34.7038 25.5740  12
   7  21  -2 353.552 55.6866  16
   7 -21  -2 343.085 60.2479  27
   7  21  -2 358.842 57.7698  12
   7  21  -1 185.200 45.1642  16
   7 -21  -1 204.637 49.2459  27
   7  21  -1 151.218 42.7778  12
   7 -21   0 96.9988 42.0309  27
   7  21   0 149.662 45.6319  16
   7  21   0 39.8096 42.0845  12
   7  21   1 196.875 40.2173  16
   7 -21   1 250.743 54.7852  27
   7  21   1 199.536 50.1725  12
  -7  21  -2 702.768 74.4565   8
   7 -21   2 611.532 73.6706  27
   7  21   2 617.509 75.1810  12
  -7  21  -3 10603.2 322.995   8
   7 -21   3 10412.0 323.676  27
   7  21   3 11186.1 325.350  12
   7 -21   4-6.73614 25.4360  27
  -7  21  -4-3.44891 26.2194   8
  -7 -21  -4 36.7881 30.9981  26
   7  21   4 24.1261 25.7354  12
  -7  21  -5 1391.63 103.076   8
   7 -21   5 1433.21 94.5174  27
  -7 -21  -5 1423.13 99.7079  26
  -7  21  -6 811.083 76.0188   8
  -7 -21  -6 816.731 72.8479  26
  -7  21  -7 1136.78 82.2116   8
  -7 -21  -7 1138.93 79.1413  26
  -7  21  -8 128.165 27.9135   8
  -7 -21  -8 188.245 31.9973  26
   7 -22  -7 2569.61 102.467   5
   7 -22  -7 2790.64 112.270  19
   7  22  -7 2745.94 119.482  16
   7 -22  -6 75.8377 25.5239  19
   7 -22  -6 127.759 28.2500   5
   7  22  -6 140.105 34.3602  16
   7 -22  -5 2964.60 127.886   5
   7 -22  -5 2784.78 130.342  19
   7  22  -5 2952.74 142.980  16
  -7  22   5 2839.10 126.060  11
   7 -22  -4 2519.83 123.183   5
   7 -22  -4 2244.85 121.056  19
   7  22  -4 2626.60 137.271  16
   7 -22  -4 2349.30 123.807  27
   7  22  -4 2631.43 129.299  12
   7  22  -3 277.705 48.4096  16
   7 -22  -3 417.823 55.5371  27
   7  22  -3 263.194 46.1537  12
   7  22  -2 93.4825 34.4483  16
   7 -22  -2 87.2733 34.5200  27
   7  22  -2 135.355 40.7059  12
   7  22  -1 713.825 73.0353  16
   7 -22  -1 610.160 71.7989  27
   7  22  -1 744.529 80.6819  12
   7  22   0 28.1574 23.1198  16
   7 -22   0 14.4818 33.1643  27
   7  22   0 8.09580 35.0676  12
   7 -22   1 662.751 76.6112  27
   7  22   1 535.731 68.5723  12
  -7  22  -2 1862.23 114.780   8
   7 -22   2 2013.04 126.586  27
   7  22   2 1935.86 122.662  12
   7 -22   3 276.184 49.4229  27
  -7  22  -3 355.251 54.1505   8
  -7 -22  -3 314.202 51.1495  26
   7  22   3 275.617 49.0887  12
  -7  22  -4 1024.41 86.2729   8
   7 -22   4 1068.98 84.4176  27
  -7 -22  -4 1048.33 83.4224  26
   7  22   4 988.718 78.4692  12
  -7  22  -5 6220.47 216.403   8
  -7 -22  -5 6144.80 210.231  26
  -7  22  -6 226.475 42.3334   8
  -7 -22  -6 286.586 42.9096  26
  -7  22  -7 1826.70 96.3975   8
  -7 -22  -7 1637.34 89.1981  26
   7 -23  -7 3049.19 109.083  19
   7  23  -7 3364.88 122.092  16
   7 -23  -6-13.5117 18.1019  19
   7 -23  -6 25.7358 15.0153   5
   7  23  -6 19.6390 23.5817  16
   7 -23  -5 3399.25 128.623   5
   7 -23  -5 3694.07 141.950  19
   7  23  -5 3717.67 151.254  16
  -7  23   5 3525.27 132.712  11
  -7  23   4 49.7081 21.8104  11
   7 -23  -4 152.929 34.7092  19
   7 -23  -4 127.590 29.0724   5
   7  23  -4 115.125 35.6803  16
   7  23  -4 119.706 31.7012  12
   7  23  -3 598.621 63.0850  16
   7 -23  -3 595.891 63.3868  27
   7  23  -3 583.662 60.7719  12
   7  23  -2-13.1274 25.5499  16
   7 -23  -2-5.22979 26.6516  27
   7  23  -2 23.4702 27.1862  12
   7  23  -1 4027.69 167.332  16
   7 -23  -1 3997.94 176.257  27
   7  23  -1 3791.32 172.184  12
   7  23   0 372.058 50.6339  16
   7 -23   0 284.531 53.6772  27
   7  23   0 226.793 48.3029  12
   7 -23   1 859.946 81.5309  27
   7  23   1 858.207 83.8402  12
  -7  23  -2 1324.48 91.2618   8
   7 -23   2 1324.27 98.1649  27
  -7 -23  -2 1521.11 97.9065  26
   7  23   2 1262.29 96.3743  12
   7 -23   3 401.752 54.3999  27
  -7  23  -3 393.587 51.1615   8
  -7 -23  -3 395.194 52.2181  26
   7  23   3 372.895 52.8561  12
   7 -23   4 70.0748 27.5075  27
  -7  23  -4 75.8550 30.9961   8
  -7 -23  -4 93.6251 32.3758  26
   7  23   4 63.2502 27.8890  12
  -7  23  -5 17.3796 23.3310   8
  -7 -23  -5 15.5078 24.0326  26
  -7  23  -6 361.170 45.1833   8
  -7 -23  -6 331.888 41.4596  26
  -7  23  -7-5.66766 16.0945   8
  -7 -23  -7-13.9930 16.2413  26
   7 -24  -6 55.4753 19.1736  19
   7  24  -6 57.5788 20.8601  16
   7 -24  -5-11.4433 18.9495  19
   7  24  -5-10.0144 19.3369  16
  -7  24   4 52.6352 22.9529  11
   7 -24  -4 49.9331 23.2877  19
   7  24  -4 63.2721 21.6499  16
   7  24  -4 73.0899 23.2526  12
  -7  24   3 22.5504 21.1373  11
   7  24  -3 37.0463 24.1666  16
   7  24  -3 51.5654 23.7120  12
   7  24  -2 47.8632 23.0484  16
   7 -24  -2 33.6031 30.3902  27
   7  24  -2 17.5810 25.5132  12
   7  24  -1 604.209 58.6967  16
   7 -24  -1 616.360 65.3006  27
   7  24  -1 629.499 67.1315  12
   7 -24   0 16.7540 28.5542  27
   7  24   0 24.5920 30.6215  12
   7 -24   1 1564.65 104.212  27
  -7 -24  -1 1676.12 95.2151  26
   7  24   1 1853.27 111.456  12
   7 -24   2 6062.02 209.981  27
  -7 -24  -2 6371.98 203.732  26
   7  24   2 5777.83 205.001  12
  -7  24  -2 6276.78 209.347  11
  -7  24  -3 1090.33 75.9567   8
   7 -24   3 1169.99 81.9113  27
  -7 -24  -3 1206.00 81.2315  26
   7  24   3 1121.61 80.4999  12
  -7  24  -3 1194.79 81.5394  11
  -7  24  -4 1120.28 77.1150   8
   7 -24   4 1158.13 74.1929  27
  -7 -24  -4 1265.03 80.4697  26
   7  24   4 1093.18 72.2171  12
  -7  24  -5 1917.91 97.2698   8
  -7 -24  -5 1862.41 95.3655  26
  -7  24  -6 1890.51 90.9421   8
  -7 -24  -6 1987.39 89.9912  26
   7  25  -5 124.440 25.9010  16
   7 -25  -4 682.870 52.4487  19
   7  25  -4 671.806 56.0047  16
  -7  25   4 596.549 49.1102  11
  -7  25   3 5.17673 18.1879  11
   7 -25  -3 45.4793 19.3029  19
   7  25  -3 35.3225 17.4059  16
   7  25  -3 36.9160 18.8049  12
   7  25  -2 728.254 58.7241  16
   7  25  -2 669.055 61.1954  12
  -7  25   2 698.933 61.6749  11
  -7  25   1-19.5299 32.0853  11
   7  25  -1-19.9532 26.6698  12
  -7  25   0 272.606 45.3852  11
   7 -25   0 326.410 47.9248  27
   7  25   0 336.766 47.2875  12
   7 -25   1 695.830 64.4043  27
   7  25   1 807.886 69.2534  12
  -7  25  -1 826.554 69.3491  11
  -7  25  -2 152.159 33.1235  11
   7 -25   2 180.895 35.3788  27
  -7 -25  -2 211.257 33.7781  26
   7  25   2 188.000 37.3690  12
  -7  25  -3 84.2541 23.6283  11
   7 -25   3 136.792 29.5124  27
  -7  25  -3 137.799 27.5623   8
  -7 -25  -3 101.124 26.1311  26
   7  25   3 118.536 30.2726  12
  -7  25  -4 143.188 27.7833   8
  -7 -25  -4 173.573 29.9986  26
   7  25   4 156.608 27.2966  12
  -7 -25  -5 181.399 27.6802  26
  -7  26   3 141.286 26.6294  11
   7 -26  -3 162.233 26.6924  19
   7 -26  -2 631.700 50.2714  19
   7  26  -2 593.075 51.9445  12
  -7  26   2 657.593 55.2677  11
  -7  26   1 150.025 32.0249  11
   7  26  -1 104.921 29.3740  12
   7  26   0 1463.66 86.9606  12
  -7  26   0 1571.78 88.9514  11
   7  26   1 1212.15 78.3471  12
  -7  26  -1 1279.72 79.3304  11
   7  26   2 1227.03 75.8797  12
  -7  26  -2 1297.31 74.8056  11
   7  26   3 385.210 39.1674  12
   7  27  -1 597.026 49.2867  12
  -7  27   1 534.155 47.1067  11
   7  27   0 1749.08 87.0813  12
  -7  27   0 2038.16 91.2438  11
  -7  27  -1 124.720 25.0488  11
   7  27   1 138.330 25.8829  12
   8   0 -12 4408.12 151.717  24
   8   0 -11 34.1765 26.5405  25
   8   0 -11 12.7050 28.9978  24
   8   0 -10 1053.14 87.1866  25
   8   0 -10 995.977 84.9862  24
   8   0  -9-14.4808 25.7028  25
   8   0  -9-18.3431 38.1373  24
   8   0  -8 1748.22 121.119  25
   8   0  -8 1854.83 125.151  24
   8   0  -7-44.8250 38.4994  25
   8   0  -7-29.3221 34.2516  24
   8   0  -6 950.313 87.5722  25
   8   0  -6 928.349 86.4416  24
   8   0  -5 0.49263 28.3371  25
   8   0  -5-6.83978 27.4419  24
   8   0  -4 1681.69 111.197  25
   8   0  -3 55.5845 62.7639   4
   8   0  -2 26021.1 964.225   4
   8   0  -1 24.3162 50.8881   4
   8   0   0 6716.53 462.139   4
   8   0   1-28.3285 62.8201   4
  -8   0  -2 4200.54 338.235   2
  -8   0  -3-32.0127 58.7640   2
  -8   0  -4 611.595 68.5023   9
  -8   0  -4 509.076 61.3848  26
   8   0   4 551.050 68.3106  22
   8   0   5-11.8760 25.1955  22
  -8   0  -5-8.83336 21.5594   9
  -8   0  -5 33.5220 26.9172  26
   8   0   6 114.229 36.7953  22
  -8   0  -6 121.680 39.4501   9
  -8   0  -6 60.3126 25.4117  26
  -8   0  -7-14.9749 32.5652   9
  -8   0  -7-3.83034 33.4771  26
  -8   0  -8 134.472 43.4129   9
  -8   0  -8 70.5323 35.1672  26
  -8   0  -9-45.2620 43.5510  26
  -8   0 -10 123.793 37.4958  26
  -8   0 -11-46.5812 28.6307  26
  -8   0 -12 0.92901 19.4932  26
   8  -1 -12 623.751 61.1541  24
   8   1 -12 238.183 37.1308  24
   8  -1 -11 4361.46 146.561  14
   8  -1 -11 4053.80 157.070  25
   8   1 -11 4107.47 156.513  25
   8  -1 -11 3935.23 161.286  24
   8   1 -11 3967.20 164.462  24
   8  -1 -10 1369.02 86.0024  14
   8  -1 -10 1429.89 101.619  25
   8   1 -10 1450.49 101.685  25
   8  -1 -10 1478.90 102.820  24
   8   1 -10 1405.79 99.7618  24
   8   1  -9 60.2366 28.2372  15
   8  -1  -9 3.56807 32.1298  25
   8   1  -9 47.8033 32.5806  25
   8  -1  -9 55.2653 32.5461  24
   8   1  -9-30.6951 40.4704  24
   8  -1  -8 124.495 36.9892  25
   8   1  -8 95.4091 38.7832  25
   8  -1  -8 6.25849 43.8567  24
   8   1  -8 99.6618 32.7557  24
   8  -1  -7 4382.03 196.508  25
   8   1  -7 4335.15 195.139  25
   8  -1  -7 4818.43 205.419  24
   8   1  -7 4683.28 201.610  24
   8  -1  -6 551.711 67.1867  25
   8   1  -6 483.591 63.3153  25
   8  -1  -6 501.478 66.4718  24
   8   1  -6 514.820 63.3585  24
   8  -1  -5 178.341 40.6346  25
   8   1  -5 113.960 35.1098  25
   8  -1  -5 230.110 48.5663  24
   8   1  -5 142.651 33.9358  24
   8  -1  -4 55.5888 22.6174  25
   8   1  -4 21.6365 27.2512  25
   8  -1  -3 1791.58 236.401   4
   8   1  -3 1559.04 224.558   4
   8  -1  -2 364.206 111.135   4
   8   1  -2 459.250 122.502   4
   8  -1  -1 283.626 89.6560   4
   8   1  -1 476.722 125.676   4
   8  -1   0 84.4539 55.5443   4
   8   1   0 39.3577 57.6990   4
   8  -1   1 228.071 87.7976   4
   8   1   1 78.1342 51.3627   4
  -8   1  -2 1010.83 167.410   2
  -8  -1  -2 960.655 161.931   2
  -8   1  -3 532.812 125.716   2
  -8  -1  -3 681.162 138.254   2
   8  -1   4 12.7173 22.6208  22
   8   1   4-18.1273 27.7081  22
  -8   1  -4 10.7329 22.6686   9
  -8  -1  -4 18.1975 21.4344   9
  -8   1  -4 16.9613 18.4998  26
  -8  -1  -4 29.1386 18.0960  26
  -8   1  -5 1347.65 105.677   9
  -8  -1  -5 1308.15 104.233   9
  -8   1  -5 1300.48 103.220  26
  -8  -1  -5 1298.03 102.926  26
   8  -1   5 1334.82 105.150  22
   8   1   5 1413.44 108.298  22
  -8   1  -6 1062.12 97.0034   9
  -8  -1  -6 996.754 93.6134   9
  -8   1  -6 1021.40 93.0608  26
  -8  -1  -6 999.453 91.9658  26
   8  -1   6 1257.76 101.983  22
  -8   1  -7 186.017 43.9035   9
  -8  -1  -7 180.185 45.5051   9
  -8   1  -7 110.614 37.0434  26
  -8  -1  -7 157.018 41.3331  26
  -8   1  -8 374.508 61.1921   9
  -8  -1  -8 323.461 56.8631   9
  -8   1  -8 368.077 61.4169  26
  -8  -1  -8 279.361 51.5805  26
  -8   1  -9 0.86662 33.1767  26
  -8  -1  -9-24.9596 33.1871  26
  -8   1 -10 112.224 37.1311  26
  -8  -1 -10 150.337 39.2714  26
  -8   1 -11-31.4599 24.9560  26
  -8  -1 -11-44.1719 25.5699  26
  -8   1 -12 144.273 28.4514  17
  -8   1 -12 135.533 26.3344  26
  -8  -1 -12 149.217 28.3214  26
   8  -2 -12 869.533 71.9254  24
   8   2 -12 251.275 38.2652  24
   8  -2 -11 1908.27 94.9702  14
   8  -2 -11 1612.67 95.6190  25
   8   2 -11 1673.37 94.9883  25
   8  -2 -11 1802.97 105.411  24
   8   2 -11 1644.51 102.864  24
   8  -2 -10 100.842 24.6245  14
   8  -2 -10 80.7991 34.0135  25
   8   2 -10 87.7015 32.3029  25
   8  -2 -10 101.897 37.8903  24
   8   2 -10 95.4329 34.1094  24
   8   2  -9 907.062 82.2085  15
   8  -2  -9 1033.75 91.0818  25
   8   2  -9 921.611 85.3598  25
   8  -2  -9 805.735 80.8228  24
   8   2  -9 969.682 89.7729  24
   8   2  -8 11834.0 346.270  15
   8  -2  -8 11571.2 350.044  25
   8   2  -8 11884.6 351.504  25
   8  -2  -8 11659.4 351.039  24
   8   2  -8 12085.2 354.835  24
   8   2  -7 23.3036 21.7907  15
   8  -2  -7-3.44384 29.5289  25
   8   2  -7 16.8604 32.0638  25
   8  -2  -7-81.8211 48.8216  24
   8   2  -7 14.7365 31.4259  24
   8  -2  -6 7809.20 269.989  25
   8   2  -6 7560.90 266.355  25
   8  -2  -6 7624.77 267.582  24
   8   2  -6 7855.99 269.817  24
   8  -2  -5 2.35385 27.0870  25
   8   2  -5-3.08263 22.8543  25
   8  -2  -5-73.3164 49.8168  24
   8  -2  -4 7460.35 254.997  25
   8   2  -4 7494.36 255.509  25
   8  -2  -4 7247.01 249.325  24
   8  -2  -3 958.241 173.001   4
   8   2  -3 949.415 170.126   4
   8   2  -2 2150.10 233.226  33
   8  -2  -2 1892.90 238.801   4
   8   2  -2 1946.01 244.450   4
   8  -2  -1 5911.62 423.846   4
   8   2  -1 6117.88 436.011   4
   8  -2   0 760.237 153.007   4
   8   2   0 660.045 148.295   4
   8  -2   1 4502.77 378.117   4
   8   2   1 4687.49 387.871   4
  -8   2  -2 390.290 100.626   2
  -8  -2  -2 350.787 99.0336   2
  -8   2  -3 7953.17 488.000   2
  -8  -2  -3 7595.75 480.260   2
  -8   2  -4 627.147 72.4691   9
  -8  -2  -4 730.571 76.3443   9
  -8   2  -4 742.234 75.3086  26
  -8  -2  -4 763.463 75.7354  26
   8  -2   4 674.792 74.5185  22
   8   2   4 701.292 75.1695  22
  -8   2  -5 1962.70 128.355   9
  -8  -2  -5 1711.43 120.770   9
  -8   2  -5 1901.92 125.183  26
  -8  -2  -5 1999.90 127.310  26
   8  -2   5 1794.35 123.704  22
   8   2   5 2071.25 129.366  22
  -8   2  -6 2643.05 154.176   9
  -8  -2  -6 2552.52 150.994   9
  -8   2  -6 2557.68 148.998  26
  -8  -2  -6 2630.21 151.770  26
   8  -2   6 2563.76 149.910  22
  -8   2  -7 1048.79 97.8134   9
  -8  -2  -7 818.060 86.2379   9
  -8   2  -7 1000.07 94.0847  26
  -8  -2  -7 925.492 89.4311  26
  -8  -2  -8 51.6201 33.5953   9
  -8   2  -8 53.3075 30.6007  26
  -8  -2  -8 42.1506 30.6600  26
  -8  -2  -9 252.137 48.9133   9
  -8   2  -9 212.401 45.8842  26
  -8  -2  -9 216.455 48.1975  26
  -8   2 -10 1310.11 100.752  26
  -8  -2 -10 1425.67 105.523  26
  -8   2 -11 127.403 31.9884  26
  -8  -2 -11 142.815 35.9415  26
  -8   2 -12 9.74180 19.1672  17
  -8   2 -12-17.2262 18.4176  26
  -8  -2 -12-4.89544 15.6155  26
   8   3 -12-2.17512 21.4365  24
   8  -3 -11 3589.76 134.459  14
   8  -3 -11 3767.77 148.927  25
   8  -3 -11 3919.57 158.799  24
   8   3 -11 3811.11 157.808  24
   8  -3 -10 58.7918 20.6741  14
   8  -3 -10 140.869 36.9922  25
   8   3 -10 150.172 39.5889  25
   8  -3 -10 154.543 39.8436  24
   8   3 -10 176.721 43.1516  24
   8   3  -9 848.125 80.0073  15
   8  -3  -9 769.550 80.5738  25
   8   3  -9 747.170 76.7150  25
   8   3  -9 822.566 81.3709  24
   8  -3  -9 664.285 71.5847  24
   8   3  -8 484.019 63.6694  15
   8  -3  -8 616.738 72.8824  25
   8   3  -8 543.652 70.9029  25
   8   3  -8 622.605 74.8460  24
   8  -3  -8 408.022 60.7527  24
   8   3  -7 3330.34 165.499  15
   8  -3  -7 2969.39 160.646  25
   8   3  -7 2968.98 159.550  25
   8  -3  -7 3128.27 164.933  24
   8   3  -7 2976.97 159.344  24
   8  -3  -6 857.746 85.5957  25
   8   3  -6 788.061 85.2747  25
   8   3  -6 778.655 78.9318  24
   8  -3  -6 688.291 71.7271  24
   8  -3  -6 850.575 84.0370  23
   8  -3  -5 2767.84 147.928  25
   8   3  -5 2656.22 145.360  25
   8  -3  -5 2418.57 139.906  24
   8   3  -5 2496.71 139.905  24
   8  -3  -4 6943.42 246.077  25
   8   3  -4 7419.48 253.008  25
   8  -3  -4 6843.30 241.908  24
   8   3  -4 7019.81 240.296  24
   8   3  -3 18599.7 767.173  33
   8  -3  -3 19023.9 806.831   4
   8   3  -3 19463.0 823.608   4
   8   3  -2 12032.2 576.086  33
   8  -3  -2 11510.2 606.107   4
   8   3  -2 11557.5 613.705   4
   8   3  -1 2759.73 255.781  33
   8  -3  -1 2927.50 298.001   4
   8   3  -1 3117.28 310.754   4
   8  -3   0-41.7771 67.6061   4
   8   3   0-36.5300 74.4971   4
   8  -3   1 119.973 67.8057   4
   8   3   1 110.102 53.6805   4
  -8   3  -2 8122.67 475.305   2
  -8  -3  -2 6483.06 426.227   2
  -8   3  -3 2238.88 258.891   2
  -8  -3  -3 2378.18 262.807   2
   8  -3   4 23.5737 25.9487  22
   8   3   4 31.7266 24.8363  22
  -8   3  -4 3.17222 19.1302   9
  -8  -3  -4-11.4372 52.6474  29
  -8   3  -4 8.95766 17.1741  26
  -8  -3  -4 42.8191 26.3237  26
   8  -3   5 199.653 44.0812  22
   8   3   5 271.945 51.6880  22
  -8   3  -5 392.160 60.3494   9
  -8  -3  -5 344.915 55.7108   9
  -8   3  -5 246.211 46.9786  26
  -8  -3  -5 328.563 52.0093  26
  -8   3  -6 1951.06 130.901   9
  -8  -3  -6 1791.54 126.714   9
  -8   3  -6 2076.84 133.646  26
  -8  -3  -6 2145.82 137.427  26
   8  -3   6 2085.55 134.236  22
  -8  -3  -7 2317.01 145.282   9
  -8   3  -7 2433.65 150.146   8
  -8   3  -7 2322.48 142.985  26
  -8  -3  -7 2253.10 142.151  26
  -8  -3  -8 14.4521 28.8955   9
  -8   3  -8 22.8668 29.1745  26
  -8  -3  -8-2.70719 27.6539  26
  -8  -3  -9 1585.24 116.000   9
  -8   3  -9 1779.45 123.150  26
  -8  -3  -9 1583.84 115.828  26
  -8   3 -10 1403.87 104.291  26
  -8  -3 -10 1473.32 105.814  26
  -8   3 -11 88.7740 29.9355  26
  -8  -3 -11 76.1578 32.1169  26
  -8   3 -12 9.92593 19.3969  17
  -8   3 -12 15.5893 13.8894  26
  -8  -3 -12 46.5252 18.1570  26
   8  -4 -12 768.431 51.2160  14
   8   4 -12 172.424 32.7064  24
   8  -4 -11 443.178 46.0806  14
   8  -4 -11 411.719 49.9914  25
   8   4 -11 382.310 52.1995  24
   8  -4 -10 365.455 44.4165  14
   8  -4 -10 383.094 52.5051  25
   8   4 -10 414.461 52.8382  25
   8  -4 -10 474.769 61.5908  24
   8   4 -10 423.146 58.6231  24
   8  -4  -9 3162.90 153.291   5
   8  -4  -9 2688.05 133.704  14
   8  -4  -9 2835.69 151.263  25
   8   4  -9 2893.75 148.999  25
   8  -4  -9 2887.37 149.674  24
   8   4  -9 2957.57 152.205  24
   8  -4  -8 326.153 52.3323   5
   8   4  -8 378.713 58.4429  15
   8  -4  -8 353.081 56.4792  25
   8   4  -8 373.130 58.2623  25
   8  -4  -8 356.059 56.1003  24
   8   4  -8 497.034 68.7986  24
   8  -4  -7 28360.6 633.737   5
   8  -4  -7 26988.7 631.646  25
   8   4  -7 27604.6 630.768  25
   8  -4  -7 28384.9 637.139  24
   8   4  -7 28219.7 631.395  24
   8  -4  -6 66.4371 33.6886  25
   8   4  -6 80.3204 33.0595  25
   8  -4  -6 56.6008 27.6842  24
   8   4  -6 114.919 36.6340  24
   8  -4  -6 75.9535 25.6262  23
   8  -4  -5 22468.6 530.380  25
   8   4  -5 21371.2 522.828  25
   8  -4  -5 21651.7 526.670  24
   8   4  -5 22544.6 523.680  24
   8  -4  -5 21943.6 529.727  23
   8  -4  -4 395.457 56.5291  25
   8  -4  -4 275.114 47.6423  24
   8   4  -4 346.056 53.1737  24
   8   4  -3 9592.69 532.177  33
   8  -4  -3 8572.83 525.491   4
   8   4  -3 9057.15 547.680   4
   8   4  -2 6223.25 413.027  33
   8  -4  -2 6873.01 459.528   4
   8   4  -2 6719.88 458.742   4
   8   4  -1 1333.30 179.203  33
   8  -4  -1 1370.49 206.934   4
   8   4  -1 1347.77 201.334   4
   8  -4   0-13.4360 59.5621   4
   8   4   0 20.4366 42.1331   4
   8  -4   1 17.7998 59.1070   4
   8   4   1-27.9015 76.6494   4
  -8   4  -2 18882.2 759.882   2
  -8  -4  -2 17436.6 734.359   2
  -8   4  -3 3230.87 306.378   2
   8  -4   3 2667.14 276.542   1
  -8  -4  -3 2418.35 270.999   2
   8  -4   3 2871.16 152.611  22
   8  -4   4 147.724 40.4584  22
   8   4   4 255.028 49.2396  22
  -8   4  -4 300.605 50.8761   9
  -8   4  -4 278.585 48.2261  26
  -8  -4  -4 188.510 38.2929  26
  -8   4  -5 1730.98 120.098   9
  -8   4  -5 1672.98 117.668  26
  -8  -4  -5 1792.93 120.699  26
   8  -4   5 1739.99 123.579  22
   8   4   5 1673.71 117.668  22
  -8   4  -6 793.321 85.6831   9
  -8  -4  -6 660.641 78.6039   9
  -8   4  -6 773.949 81.7516  26
  -8  -4  -6 724.206 78.2445  26
   8  -4   6 907.832 89.7698  22
  -8  -4  -7 1714.87 125.679   9
  -8   4  -7 1881.82 132.268   8
  -8   4  -7 2143.75 137.981  26
  -8  -4  -7 1732.81 125.609  26
  -8  -4  -8 632.546 76.5020   9
  -8   4  -8 576.247 73.7678  26
  -8  -4  -8 567.345 74.2112  26
  -8  -4  -9 3339.83 171.521   9
  -8   4  -9 3628.94 178.092  26
  -8  -4  -9 3528.86 177.152  26
  -8   4 -10 17.3377 27.7810  26
  -8  -4 -10-21.7790 28.7517  26
  -8   4 -11 883.239 76.1784  17
  -8   4 -11 842.770 72.0572  26
  -8  -4 -11 805.216 70.8054  26
  -8   4 -12 357.971 42.8831  17
  -8   4 -12 361.856 39.0067  26
  -8  -4 -12 361.761 39.7195  26
   8   5 -12-32.1790 25.0663  24
   8  -5 -11 763.956 58.0579  14
   8   5 -11 873.676 71.9565  24
   8  -5 -10 51.4156 24.5610   5
   8  -5 -10 6.92910 27.7013  14
   8  -5 -10 4.56074 26.8734  25
   8   5 -10-0.40524 21.2241  25
   8   5 -10 5.97162 29.3417  24
   8  -5  -9 755.195 74.7386   5
   8   5  -9 709.088 74.0735  25
   8  -5  -9 497.796 56.6110  14
   8  -5  -9 584.332 70.2097  25
   8  -5  -9 741.257 77.8213  24
   8   5  -9 737.842 76.3279  24
   8  -5  -8 4008.81 182.178   5
   8  -5  -8 3386.35 172.971  25
   8   5  -8 3618.29 174.245  25
   8  -5  -8 3629.95 175.509  24
   8   5  -8 3621.35 175.595  24
   8  -5  -7 67.9816 31.9628   5
   8  -5  -7 53.8290 35.1430  25
   8   5  -7 15.2388 28.8937  25
   8  -5  -7 28.2545 34.0250  24
   8   5  -7 50.4285 35.6827  24
   8  -5  -6 1181.08 98.3319  25
   8   5  -6 1137.80 97.1886  25
   8  -5  -6 1157.97 96.8093  24
   8   5  -6 1246.50 100.064  24
   8  -5  -6 1167.11 99.3743  23
   8  -5  -5 1822.82 122.603  25
   8   5  -5 1875.59 122.676  25
   8  -5  -5 1672.72 116.226  24
   8   5  -5 1804.35 118.304  24
   8  -5  -5 2066.38 129.512  23
   8   5  -4 54170.5 1030.17  16
   8  -5  -4 53023.7 1023.66  25
   8  -5  -4 51283.4 1014.60  24
   8  -5  -4 52589.6 1029.72  23
   8   5  -3 6797.77 452.945  33
   8   5  -3 6185.86 452.105   4
   8  -5  -3 6917.58 239.634  25
   8  -5  -3 6747.29 247.267  23
   8   5  -2 445.210 116.747  33
   8  -5  -2 299.644 100.866   4
   8   5  -2 308.879 101.829   4
   8   5  -1 9504.96 505.774  33
   8  -5  -1 10154.2 560.420   4
   8   5  -1 10063.0 568.803   4
   8  -5   0 3852.23 339.689   4
   8   5   0 3857.81 349.248   4
  -8   5  -1 461.912 112.240   2
   8  -5   1 463.262 117.843   4
   8   5   1 545.570 135.097   4
  -8   5  -2 1620.73 215.571   2
  -8  -5  -2 1227.91 184.905   2
   8  -5   2 1069.80 179.161   1
   8  -5   3 35.8261 31.3379  22
   8   5   3 46.3156 28.3702  22
  -8   5  -3 110.152 73.3795   2
  -8  -5  -3 116.750 54.7016   2
   8  -5   3-40.5332 40.9026   1
  -8   5  -4 953.843 87.0640   9
  -8   5  -4 781.736 80.2222  26
  -8  -5  -4 897.379 83.5874  26
   8  -5   4 988.407 90.8673  22
   8   5   4 924.492 87.4919  22
  -8   5  -5 3741.52 181.974  26
  -8  -5  -5 3940.45 186.050  26
   8  -5   5 4001.01 191.981  22
   8   5   5 3714.60 179.653  22
  -8  -5  -6 1246.61 105.338   9
  -8   5  -6 1254.48 109.865   8
  -8   5  -6 1163.04 100.102  26
  -8  -5  -6 1228.13 103.354  26
   8  -5   6 1359.69 109.050  22
  -8  -5  -7 534.182 70.7671   9
  -8   5  -7 568.880 75.1587  26
  -8  -5  -7 626.540 77.5926  26
  -8   5  -7 479.190 69.2413   8
  -8  -5  -8 302.877 53.2441   9
  -8   5  -8 358.210 58.8841  26
  -8  -5  -8 380.575 63.4132  26
  -8  -5  -9 2940.42 159.071   9
  -8   5  -9 3501.90 172.152  26
  -8  -5  -9 3345.11 169.514  26
  -8   5 -10 3184.37 157.272  26
  -8  -5 -10 3336.89 159.483  26
  -8   5 -11 19.7195 21.8207  17
  -8   5 -11 43.2340 25.3878  26
  -8  -5 -11 1.33339 22.3794  26
  -8   5 -12 541.397 51.6106  17
  -8   5 -12 499.642 45.1727  26
  -8  -5 -12 466.188 43.1351  26
   8   6 -12-21.6583 24.4952  24
   8  -6 -11 83.9844 23.9252   5
   8  -6 -11 60.0259 20.0447  14
   8   6 -11 120.075 35.7526  24
   8  -6 -10 130.742 30.6799   5
   8  -6 -10 143.923 29.4063  14
   8  -6 -10 92.7728 32.5455  25
   8   6 -10 169.339 36.8677  25
   8  -6  -9 641.094 68.0114   5
   8  -6  -9 714.008 66.1195  14
   8  -6  -9 715.891 75.0063  25
   8   6  -9 733.677 74.5935  25
   8   6  -9 757.982 77.5355  24
   8  -6  -8 24175.5 565.852   5
   8  -6  -8 23253.7 563.834  25
   8   6  -8 24622.5 565.450  25
   8  -6  -8 23464.7 557.930  24
   8   6  -8 25221.3 568.305  24
   8  -6  -7 2468.48 145.310   5
   8  -6  -7 2459.17 145.982  25
   8   6  -7 2375.81 140.070  25
   8  -6  -7 2248.85 138.140  24
   8   6  -7 2419.92 140.943  24
   8  -6  -6 9182.87 302.527  25
   8   6  -6 9217.02 300.314  25
   8  -6  -6 8937.55 296.199  24
   8   6  -6 9697.50 303.873  24
   8  -6  -6 9397.90 304.565  23
   8  -6  -5-26.6160 34.0793  24
   8   6  -5 20.3303 27.1793  24
   8  -6  -5-1.76516 31.3091  23
   8   6  -4 32750.9 701.528  16
   8  -6  -4 32796.0 698.016  25
   8  -6  -4 31154.4 686.097  24
   8  -6  -4 32071.8 702.489  23
   8   6  -3 7614.26 264.635  16
   8  -6  -3 7616.96 258.722  25
   8  -6  -3 7350.18 251.418  24
   8   6  -3 7784.58 264.581  12
   8  -6  -3 7840.71 268.909  23
  -8  -6   2 23.6544 51.7182   3
   8   6  -2-22.3579 60.0312  33
   8  -6  -2-44.3776 45.1073   4
   8   6  -2-16.8745 62.3224   4
   8  -6  -2 72.5714 27.9870  23
  -8  -6   1 956.529 166.980   3
   8   6  -1 888.821 151.525  33
   8  -6  -1 757.265 155.759   4
   8   6  -1 883.181 168.140   4
   8  -6   0 790.326 157.369   4
   8   6   0 814.896 164.544   4
  -8  -6   0 590.109 131.221   3
   8  -6   1 786.972 155.695   1
   8  -6   1 897.432 167.495   4
   8   6   1 734.383 153.413   4
  -8  -6  -1 728.081 143.121   3
   8  -6   2 2444.21 272.163   1
   8  -6   2 2456.71 141.592  22
  -8  -6  -3 3261.60 318.475   2
  -8   6  -3 3865.33 174.893  26
  -8  -6  -3 3911.65 176.157  26
   8   6   3 3598.21 172.316  12
   8  -6   3 3844.02 183.257  22
   8   6   3 4086.19 184.831  22
  -8   6  -4 3773.41 176.840  26
  -8  -6  -4 3687.79 177.150  26
   8  -6   4 3694.51 183.183  22
   8   6   4 3195.17 166.680  22
   8   6   5 281.584 51.6671  22
  -8   6  -5 254.199 50.5348  26
  -8  -6  -5 214.923 46.7823  26
   8  -6   5 216.830 51.4410  22
  -8   6  -6 1843.45 131.478   8
  -8   6  -6 1770.04 125.400  26
  -8  -6  -6 1691.75 122.822  26
   8  -6   6 1891.84 129.571  22
  -8  -6  -7 2371.26 147.401   9
  -8   6  -7 2371.38 149.661   8
  -8   6  -7 2403.39 147.778  26
  -8  -6  -7 2494.52 151.674  26
  -8  -6  -8 94.6014 37.5349   9
  -8   6  -8 64.9015 32.1676   8
  -8   6  -8 66.7513 37.3024  26
  -8  -6  -8 102.165 41.0519  26
  -8  -6  -9 45.8037 27.9949   9
  -8   6  -9 1.42094 33.5040  26
  -8  -6  -9 64.9287 33.6614  26
  -8  -6 -10 676.928 69.5229   9
  -8   6 -10 614.400 68.5274  17
  -8   6 -10 620.139 69.5968  26
  -8  -6 -10 694.609 73.5602  26
  -8   6 -11-6.74536 21.8408  17
  -8   6 -11 49.8199 23.1550  26
  -8  -6 -11 6.31951 22.0149  26
  -8   6 -12 85.5648 25.6609  17
   8   7 -12 3034.98 114.607  24
   8  -7 -11 100.924 25.1479   5
   8   7 -11 108.780 31.2928  24
   8  -7 -10 1785.90 106.527   5
   8  -7 -10 1605.78 93.1701  14
   8  -7 -10 1729.78 107.174  25
   8   7 -10 1637.06 99.1978  25
   8   7 -10 1571.99 102.727  24
   8  -7  -9 64.4577 32.2224   5
   8  -7  -9 30.5969 28.7006  14
   8  -7  -9 102.844 40.8096  25
   8   7  -9 116.671 39.4105  25
   8   7  -9 28.4637 32.2761  24
   8  -7  -8 85.1171 36.5992   5
   8  -7  -8 75.6622 41.4108  25
   8   7  -8 85.5342 38.0180  25
   8   7  -8 52.0726 40.2793  24
   8  -7  -7 2476.44 145.470   5
   8  -7  -7 2259.57 142.334  25
   8   7  -7 2417.49 141.086  25
   8  -7  -7 2293.86 143.581  24
   8   7  -7 2351.57 138.641  24
   8  -7  -6 1292.03 106.034  25
   8   7  -6 1384.67 106.676  25
   8  -7  -6 1415.84 109.876  24
   8   7  -6 1375.81 105.422  24
   8  -7  -6 1332.74 105.135  23
   8   7  -5 12803.7 365.549  16
   8  -7  -5 12190.0 358.929  25
   8  -7  -5 11565.0 349.123  24
   8   7  -5 12405.1 352.448  24
   8  -7  -5 11999.5 359.746  23
   8   7  -4 2087.75 132.047  16
   8  -7  -4 2046.80 127.961  25
   8  -7  -4 2147.47 133.622  24
   8  -7  -4 2002.07 131.338  23
   8   7  -3 643.309 71.4845  16
   8  -7  -3 637.075 70.2501  25
   8  -7  -3 874.688 88.9487  24
   8   7  -3 609.950 69.3291  12
   8  -7  -3 627.604 72.5040  23
   8   7  -2 5851.50 409.619  33
   8   7  -2 5140.65 214.619  16
   8  -7  -2 5756.70 417.593   4
   8   7  -2 5372.52 415.860   4
   8   7  -2 5523.39 217.281  12
   8  -7  -2 5368.60 217.834  23
   8   7  -1 9143.42 513.226  33
   8   7  -1 9442.56 308.109  16
   8  -7  -1 10513.4 571.634   4
   8   7  -1 9938.56 568.854   4
  -8  -7   1 10408.0 571.170   3
   8   7  -1 10847.9 320.817  12
   8  -7  -1 10072.1 313.392  23
   8   7   0 4972.85 360.773  33
   8  -7   0 5959.15 436.019   1
   8  -7   0 5320.82 404.736   4
   8   7   0 5480.56 417.858   4
  -8  -7   0 5481.90 398.564   3
   8  -7   1 852.663 170.052   1
  -8  -7  -1 1262.66 186.932   3
   8  -7   1 1351.09 201.579   4
   8   7   1 1460.81 224.600   4
   8   7   1 1435.36 104.893  12
   8  -7   1 1439.98 105.580  22
   8  -7   2 83.3023 68.5642   4
   8   7   2 99.4696 72.8681   4
   8   7   2 50.5876 24.4096  12
   8  -7   2 51.0929 27.6372  22
  -8   7  -3 9213.90 293.795  26
  -8  -7  -3 9209.74 293.860  26
   8   7   3 8869.11 293.394  12
   8  -7   3 8881.57 300.165  22
   8   7   3 9704.41 306.055  22
   8   7   4 21.9108 29.4199  22
  -8   7  -4 52.4991 29.8243  26
  -8  -7  -4 75.6142 29.4716  26
   8   7   4-21.4821 31.7887  12
   8  -7   4 67.1340 29.1058  22
  -8   7  -5 572.947 70.5542  26
  -8  -7  -5 681.994 78.6317  26
  -8   7  -5 565.029 74.4935   8
   8   7   5 618.937 72.4677  22
   8  -7   5 546.331 72.2009  22
  -8   7  -6 1129.22 104.206   8
  -8   7  -6 938.107 91.4099  26
  -8  -7  -6 1053.20 97.0378  26
  -8  -7  -7 91.0860 39.3142   9
  -8   7  -7 70.5670 35.1935   8
  -8   7  -7 30.2715 28.8308  26
  -8  -7  -7 132.743 41.0836  26
  -8  -7  -8 1825.71 126.203   9
  -8   7  -8 1872.93 128.614   8
  -8   7  -8 1922.74 130.304  26
  -8  -7  -8 1785.71 125.174  26
  -8  -7  -9 27.2543 29.8421   9
  -8   7  -9-37.8504 30.7367  17
  -8   7  -9 34.6499 30.3741  26
  -8  -7  -9 24.0476 30.4913  26
  -8  -7 -10 81.2167 36.2193   9
  -8   7 -10 24.2959 25.6479  17
  -8   7 -10 34.1010 26.6412  26
  -8  -7 -10-9.33813 31.1234  26
  -8   7 -11 5.25969 22.3126  17
  -8   7 -11 8.40956 19.7209  26
  -8  -7 -11-4.10164 20.6041  26
  -8   7 -12 32.3840 19.8816  17
   8   8 -12 397.573 37.9794  24
   8  -8 -11 948.208 67.3309   5
   8  -8 -11 875.325 60.1087  14
   8   8 -11 882.405 69.1910  24
   8  -8 -10 73.9494 30.8868   5
   8  -8 -10-9.30388 24.4952  14
   8   8 -10 3.70880 28.9647  24
   8  -8  -9 10974.4 320.483   5
   8  -8  -9 10400.3 313.473  25
   8   8  -9 11370.1 317.434  25
   8   8  -9 10527.1 317.168  24
   8  -8  -8 55.0005 28.3679   5
   8  -8  -8 31.3363 31.0799  25
   8   8  -8 62.2293 28.9847  25
   8   8  -8 80.3581 37.5578  24
   8  -8  -7 19.1054 29.9899   5
   8  -8  -7 17.1105 33.9975  25
   8   8  -7-13.7054 37.3277  25
   8   8  -7-10.7644 30.1364  24
   8   8  -6 167.921 42.8807  16
   8  -8  -6 103.816 38.6960  25
   8   8  -6 140.638 38.2128  25
   8   8  -6 108.767 39.4618  24
   8  -8  -6 189.718 45.8520  23
   8   8  -5 6743.61 255.272  16
   8  -8  -5 6830.71 252.320  25
   8  -8  -5 7114.66 257.393  24
   8   8  -5 6908.42 245.829  24
   8  -8  -5 6449.63 250.702  23
   8   8  -4 7842.24 277.269  16
   8  -8  -4 7697.67 269.133  25
   8  -8  -4 7985.61 273.353  24
   8   8  -4 8328.07 276.636  12
   8  -8  -4 7432.53 271.619  23
   8   8  -3 3155.71 165.528  16
   8  -8  -3 3544.48 169.350  25
   8   8  -3 3495.15 170.999  12
   8  -8  -3 3246.44 167.801  23
   8   8  -2 19006.1 485.156  16
   8  -8  -2 19977.6 473.340  25
   8   8  -2 18520.6 477.804  12
   8  -8  -2 19909.2 492.407  23
   8  -8  -2 19454.1 476.112  22
   8   8  -1 407.487 109.086  33
   8   8  -1 384.140 58.3432  16
   8  -8  -1 416.460 114.164   4
   8   8  -1 382.690 115.353   4
   8   8  -1 418.208 60.6864  12
   8  -8  -1 271.142 48.9032  23
   8  -8  -1 402.507 56.0425  22
  -8  -8   0 1146.16 178.163   3
   8   8   0 1129.19 172.359  33
   8   8   0 1139.40 97.2465  16
   8  -8   0 1275.26 203.839   4
   8   8   0 1139.86 190.415   4
   8   8   0 1052.58 92.6878  12
   8  -8   0 1190.85 96.4617  23
   8  -8   0 1264.35 99.5266  22
  -8  -8  -1 146.213 69.8262   3
   8   8   1 266.828 48.8523  16
   8  -8   1 224.497 82.2041   4
   8   8   1 74.0572 70.5531   4
   8   8   1 254.165 47.7256  12
   8  -8   1 312.918 53.0387  23
   8  -8   1 220.621 46.2526  22
  -8   8  -2 1930.43 118.544  26
   8   8   2 1988.03 125.990  12
   8  -8   2 1839.88 119.573  23
   8  -8   2 1727.04 120.881  22
  -8   8  -3 6784.56 247.203  26
  -8  -8  -3 6876.46 248.865  26
   8   8   3 6984.93 254.421  12
   8  -8   3 7012.58 261.164  22
  -8   8  -4 2200.76 137.183  26
  -8  -8  -4 2341.69 140.406  26
   8   8   4 2138.19 131.818  12
   8  -8   4 2558.62 150.943  22
   8   8   4 2374.16 141.325  22
  -8   8  -5 689.099 79.1750  26
  -8  -8  -5 700.935 78.4197  26
  -8   8  -5 576.127 76.5600   8
   8   8   5 752.430 80.8652  22
  -8   8  -6 1445.20 118.013   8
  -8   8  -6 1475.55 114.282  26
  -8  -8  -6 1352.89 109.207  26
  -8  -8  -7 1545.85 118.546   9
  -8   8  -7 1520.13 119.695   8
  -8   8  -7 1375.50 111.365  26
  -8  -8  -7 1338.12 110.223  26
  -8  -8  -8 2226.16 140.270   9
  -8   8  -8 2371.13 144.377   8
  -8   8  -8 2461.11 142.081  17
  -8   8  -8 2204.10 138.967  26
  -8  -8  -8 2172.61 140.113  26
  -8  -8  -9 2104.24 130.315   9
  -8   8  -9 1927.74 123.498  17
  -8   8  -9 1990.28 128.313  26
  -8  -8  -9 1922.78 128.573  26
  -8  -8 -10 1775.77 107.216   9
  -8   8 -10 1750.83 110.480  17
  -8   8 -10 1603.99 107.209  26
  -8  -8 -10 1753.27 110.283  26
  -8   8 -11 561.935 56.4978  17
  -8   8 -11 548.699 55.9271  26
  -8  -8 -11 549.582 55.2078  26
  -8   8 -12 581.103 47.5376  17
   8  -9 -11 360.753 41.6018   5
   8  -9 -11 273.762 32.7122  14
   8   9 -11 310.615 41.4215  24
   8  -9 -10 529.754 58.2780   5
   8  -9 -10 417.631 47.7011  14
   8   9 -10 558.095 61.6549  24
   8  -9  -9 1198.86 94.7593   5
   8  -9  -9 1077.78 90.8949  25
   8   9  -9 957.945 80.9971  25
   8   9  -9 971.575 83.9831  24
   8  -9  -8 1304.71 102.744   5
   8  -9  -8 1216.81 98.5099  25
   8   9  -8 1227.81 96.0752  25
   8   9  -8 1262.15 98.1346  24
   8  -9  -7 4.67987 21.4321  19
   8  -9  -7 50.5188 29.6540   5
   8  -9  -7 45.9740 33.9555  25
   8   9  -7 16.4687 37.8786  25
   8   9  -7 63.2911 29.3683  24
   8   9  -6 998.500 90.0571  16
   8  -9  -6 799.883 83.0270  25
   8   9  -6 896.405 85.0571  24
   8  -9  -6 861.405 86.3487  23
   8   9  -5 4616.31 207.664  16
   8  -9  -5 4568.29 203.276  25
   8   9  -5 4939.58 201.978  24
   8  -9  -5 4433.97 201.712  23
   8   9  -4 85.9957 36.0423  16
   8  -9  -4-16.5901 30.4460  25
   8   9  -4-0.57193 22.2796  12
   8  -9  -4 47.1317 29.2871  23
   8   9  -3 148.957 41.8054  16
   8  -9  -3 219.447 43.6143  25
   8   9  -3 89.6553 34.0441  12
   8  -9  -3 193.175 45.9203  23
   8   9  -2 140.255 36.2900  16
   8   9  -2 138.845 37.2304  12
   8  -9  -2 136.122 40.4756  23
   8  -9  -2 50.7374 20.6770  22
   8   9  -1 509.268 66.3683  16
   8   9  -1 699.282 76.9556  12
   8  -9  -1 647.642 72.3324  23
   8  -9  -1 524.557 64.5303  22
   8   9   0 5008.88 214.156  16
   8   9   0 5433.93 217.655  12
   8  -9   0 5102.35 212.452  23
   8  -9   0 4919.51 209.024  22
   8   9   1 18.3827 23.3428  16
   8   9   1 53.4592 29.2465  12
   8  -9   1 10.8804 23.7091  23
   8  -9   1-23.4502 30.5604  22
  -8   9  -2 5343.77 212.063  26
   8   9   2 5733.29 227.478  12
   8  -9   2 5490.41 219.300  23
   8  -9   2 5292.20 222.374  22
  -8   9  -3 5986.98 233.366  26
  -8  -9  -3 6654.09 243.369  26
   8   9   3 6435.77 244.093  12
   8  -9   3 6065.56 245.365  22
  -8   9  -4 3250.24 180.382   8
  -8   9  -4 4051.37 186.789  26
  -8  -9  -4 3731.08 181.414  26
   8   9   4 3919.90 182.949  12
   8  -9   4 3541.75 184.333  22
   8   9   4 3502.55 177.617  22
  -8   9  -5 8122.55 300.235   8
  -8   9  -5 8560.38 293.107  26
  -8  -9  -5 8262.27 290.487  26
   8   9   5 8644.73 288.621  22
  -8   9  -6 2327.88 137.287  17
  -8   9  -6 1964.79 140.329   8
  -8   9  -6 2521.90 149.321  26
  -8  -9  -6 2284.57 144.348  26
  -8  -9  -7 2353.74 146.680   9
  -8   9  -7 2403.52 140.837  17
  -8   9  -7 2208.62 145.506   8
  -8   9  -7 2451.79 148.654  26
  -8  -9  -7 2415.24 147.374  26
  -8  -9  -8 638.679 75.9649   9
  -8   9  -8 572.453 71.2347   8
  -8   9  -8 693.649 76.7179  17
  -8   9  -8 732.165 80.5218  26
  -8  -9  -8 783.570 84.3127  26
  -8  -9  -9 13295.5 365.529   9
  -8   9  -9 13724.8 365.360   8
  -8   9  -9 13144.5 364.032  17
  -8   9  -9 13122.6 371.073  26
  -8  -9  -9 13432.2 371.966  26
  -8  -9 -10 870.341 72.9473   9
  -8   9 -10 801.826 73.7523  17
  -8   9 -10 825.390 75.8668  26
  -8  -9 -10 930.841 79.4875  26
  -8   9 -11 83.2768 26.2609  17
  -8   9 -11 62.5621 25.1193  26
  -8  -9 -11 69.5673 24.4865  26
   8 -10 -11 297.894 37.8345   5
   8 -10 -11 230.687 30.1891  14
   8  10 -11 289.656 40.7191  24
   8 -10 -10 582.512 60.8447   5
   8 -10 -10 512.094 50.8784  14
   8  10 -10 592.927 62.7487  24
   8 -10  -9 802.110 77.8007   5
   8  10  -9 900.687 75.6910  25
   8  10  -9 829.054 76.9819  24
   8 -10  -8 1138.87 95.4004   5
   8 -10  -8 1155.43 90.5870  19
   8 -10  -8 1099.74 93.7130  25
   8  10  -8 1128.42 91.4514  25
   8  10  -8 1196.54 94.5621  24
   8 -10  -7 426.526 58.5563  19
   8 -10  -7 348.115 57.7692   5
   8  10  -7 431.463 59.1427  16
   8 -10  -7 373.446 61.1616  25
   8  10  -7 381.990 57.2764  25
   8  10  -7 268.163 48.2063  24
   8  10  -6 2682.53 152.519  16
   8 -10  -6 2647.22 150.111  25
   8  10  -6 2482.08 141.584  24
   8 -10  -6 2548.07 146.595  23
   8  10  -5 5703.93 233.006  16
   8 -10  -5 5438.85 224.383  25
   8  10  -5 5838.51 222.985  24
   8 -10  -5 5460.71 227.468  23
   8  10  -4 9.51565 24.8989  16
   8 -10  -4 16.6326 26.9393  25
   8  10  -4 31.5126 23.0704  12
   8 -10  -4 21.8655 28.1179  23
   8  10  -3 1109.25 99.6298  16
   8 -10  -3 1036.65 92.8749  27
   8 -10  -3 897.573 84.4612  25
   8  10  -3 1028.87 93.7763  12
   8 -10  -3 953.842 91.2979  23
   8  10  -2 418.335 61.3270  16
   8  10  -2 468.319 65.3551  12
   8 -10  -2 363.876 55.6435  23
   8  10  -1 2191.18 137.848  16
   8  10  -1 2205.17 136.102  12
   8 -10  -1 2282.89 138.323  23
   8 -10  -1 2412.64 138.927  22
   8  10   0 627.902 74.4910  16
   8  10   0 672.457 76.0059  12
   8 -10   0 542.200 67.5431  23
   8 -10   0 511.635 63.1820  22
   8  10   1 8695.44 298.250  16
   8  10   1 8636.86 293.778  12
   8 -10   1 9141.74 300.497  23
   8 -10   1 8216.39 290.751  22
  -8  10  -2 2117.20 129.861  26
  -8 -10  -2 2357.42 135.382  26
   8  10   2 2080.97 133.289  12
   8 -10   2 2249.85 136.899  23
   8 -10   2 1970.73 132.577  22
  -8  10  -3 5213.55 233.096   8
  -8  10  -3 5784.42 228.271  26
   8  10   3 5472.12 225.228  12
  -8  10  -4 8697.12 311.261   8
  -8  10  -4 8354.57 290.914  26
  -8 -10  -4 8463.55 292.572  26
   8  10   4 9270.06 300.463  12
   8  10   4 9110.94 300.510  22
  -8  10  -5 814.645 85.6076  26
  -8 -10  -5 793.909 84.5400  26
  -8  10  -5 610.500 81.7551   8
   8  10   5 716.755 82.7724  22
  -8  10  -6 9096.15 290.945  17
  -8  10  -6 9019.55 304.257  26
  -8 -10  -6 8363.31 293.906  26
  -8  10  -7 2415.20 140.665  17
  -8  10  -7 2463.89 153.113   8
  -8  10  -7 2410.79 147.730  26
  -8 -10  -7 2616.93 152.884  26
  -8 -10  -8 114.248 39.6721   9
  -8  10  -8 107.648 36.3019  17
  -8  10  -8 138.468 42.2721   8
  -8  10  -8 128.529 46.8669  26
  -8 -10  -8 110.829 41.6233  26
  -8 -10  -9 623.620 68.8717   9
  -8  10  -9 726.349 72.4660   8
  -8  10  -9 648.936 71.4169  17
  -8  10  -9 680.209 74.9876  26
  -8 -10  -9 684.209 76.5850  26
  -8 -10 -10 1999.88 107.776   9
  -8  10 -10 1999.73 113.296  17
  -8  10 -10 2200.40 119.626  26
  -8 -10 -10 2020.78 113.535  26
  -8  10 -11 219.010 36.1891  17
  -8 -10 -11 234.644 35.5247  26
   8 -11 -11 1258.66 72.6496   5
   8 -11 -11 1107.95 61.3842  14
   8  11 -11 1246.26 73.8560  24
   8 -11 -10 1212.40 83.8155   5
   8 -11 -10 1121.88 71.7406  14
   8  11 -10 1221.79 83.8187  24
   8 -11  -9 2249.80 127.181   5
   8  11  -9 2344.90 120.460  25
   8  11  -9 2171.96 121.926  24
   8 -11  -8 2685.31 147.374   5
   8 -11  -8 2873.77 144.675  19
   8 -11  -8 3095.85 156.618  25
   8  11  -8 2800.17 145.018  25
   8  11  -8 2780.03 144.133  24
   8 -11  -7 56.8351 27.4805  19
   8 -11  -7 40.1033 27.6689   5
   8  11  -7 26.5818 23.2548  16
   8 -11  -7-24.0068 42.7684  25
   8  11  -7 4.85146 26.8331  25
   8  11  -7 6.12576 30.7983  24
   8 -11  -7 23.2366 26.2774  23
   8 -11  -6 2130.31 126.144  19
   8  11  -6 1861.18 127.725  16
   8 -11  -6 2050.85 130.720  25
   8  11  -6 2108.04 128.272  24
   8 -11  -6 2030.66 131.358  23
   8  11  -5 1144.61 101.160  16
   8 -11  -5 1189.49 100.784  25
   8  11  -5 1249.33 97.4300  24
   8 -11  -5 1025.08 95.7307  23
   8  11  -4 545.652 71.1561  16
   8 -11  -4 473.370 63.6848  25
   8  11  -4 490.687 64.3612  12
   8 -11  -4 358.278 59.0666  23
   8  11  -3 1605.79 119.247  16
   8 -11  -3 1658.76 119.276  27
   8 -11  -3 1746.10 116.811  25
   8  11  -3 1651.16 117.932  12
   8 -11  -3 1565.48 117.596  23
   8  11  -2 3574.47 181.778  16
   8  11  -2 3712.24 182.460  12
   8 -11  -2 3903.04 189.039  23
   8  11  -1 87.6498 33.0298  16
   8  11  -1 112.063 35.3086  12
   8 -11  -1 19.7979 32.6563  23
   8  11   0 31.4861 25.7868  16
   8  11   0-28.3227 31.5005  12
   8 -11   0 16.4667 30.3322  23
   8  11   1 6120.83 245.482  16
  -8  11  -1 6738.48 255.446   8
   8  11   1 5943.96 240.350  12
   8 -11   1 6353.68 246.480  23
  -8  11  -2 298.051 50.6022  26
  -8  11  -2 360.789 60.9775   8
  -8 -11  -2 300.862 50.0319  26
   8  11   2 292.433 57.1465  12
   8 -11   2 257.914 50.2868  23
  -8  11  -3 65.4599 24.9439  26
  -8  11  -3 61.4080 39.2361   8
  -8 -11  -3 80.7798 32.1066  26
   8  11   3 71.6403 35.6867  12
  -8  11  -4 3442.28 186.155   8
  -8  11  -4 3753.52 182.344  26
  -8 -11  -4 3422.50 174.478  26
   8  11   4 3456.55 173.055  12
  -8  11  -5 4858.76 226.201   8
  -8  11  -5 5403.91 226.417  26
  -8 -11  -5 5305.20 223.856  26
  -8  11  -6 4332.32 189.213  17
  -8  11  -6 3790.97 196.630   8
  -8  11  -6 4014.51 193.715  26
  -8 -11  -6 3969.83 191.906  26
  -8  11  -7 113.988 38.3976  17
  -8  11  -7 94.5979 38.7999   8
  -8  11  -7 77.7324 39.2082  26
  -8 -11  -7 107.279 41.5942  26
  -8 -11  -8 4041.05 183.797   9
  -8  11  -8 4075.54 189.105   8
  -8  11  -8 3957.24 177.358  17
  -8  11  -8 4084.90 188.401  26
  -8 -11  -8 3789.53 181.250  26
  -8 -11  -9 427.886 55.5619   9
  -8  11  -9 416.304 57.8204  17
  -8  11  -9 403.809 56.0266   8
  -8  11  -9 400.506 57.0897  26
  -8 -11  -9 390.327 58.1853  26
  -8 -11 -10 492.649 52.5192   9
  -8  11 -10 506.462 55.4370  17
  -8  11 -10 500.170 56.7997  26
  -8 -11 -10 534.168 58.5668  26
  -8  11 -11 944.798 65.1803  17
  -8 -11 -11 937.280 63.3230  26
   8 -12 -11 970.121 61.0546   5
   8  12 -11 960.934 61.2467  24
   8 -12 -10 533.229 54.7772   5
   8 -12 -10 437.380 43.9598  14
   8  12 -10 442.563 50.1941  24
   8 -12  -9 335.491 50.7768   5
   8  12  -9 306.928 47.8211  24
   8 -12  -8-31.7080 29.4879  19
   8 -12  -8 22.4622 28.9302   5
   8  12  -8-1.74780 26.8365  25
   8  12  -8 35.1819 29.2573  24
   8 -12  -7 35.6378 24.2335  19
   8 -12  -7 9.95013 29.0758   5
   8  12  -7 11.2768 21.6950  16
   8  12  -7 13.8466 27.3860  25
   8  12  -7 8.56724 28.1487  24
   8 -12  -7 17.2382 24.3695  23
   8 -12  -6 3.57094 21.8222  19
   8  12  -6 41.3179 27.5521  16
   8 -12  -6 41.9590 31.4153  25
   8  12  -6 14.3934 24.1684  24
   8 -12  -6 12.6458 26.8313  23
   8  12  -5 6.31622 25.3323  16
   8 -12  -5-39.5373 42.6077  25
   8 -12  -5-11.1957 30.3896  23
   8  12  -4 208.580 47.3203  16
   8 -12  -4 147.062 40.0134  25
   8  12  -4 234.020 44.1351  12
   8 -12  -4 174.807 44.4895  23
   8  12  -3 1783.51 128.528  16
   8 -12  -3 1947.04 131.386  27
   8 -12  -3 1811.77 120.803  25
   8  12  -3 2143.99 134.148  12
   8 -12  -3 1936.00 132.734  23
   8  12  -2 15529.8 436.905  16
   8 -12  -2 16500.3 445.652  27
   8  12  -2 16182.6 439.722  12
   8 -12  -2 16057.2 442.627  23
   8  12  -1 5867.92 238.164  16
   8  12  -1 5557.65 231.416  12
   8 -12  -1 6055.71 240.820  23
   8  12   0 3526.27 180.428  16
  -8  12   0 3593.99 179.069   8
   8  12   0 3249.51 172.764  12
   8 -12   0 3301.60 174.248  23
   8  12   1 7558.93 277.267  16
  -8  12  -1 7647.41 281.055   8
   8  12   1 7387.51 273.179  12
   8 -12   1 7441.04 273.179  23
  -8  12  -2 13671.7 409.462   8
  -8  12  -2 14693.8 401.813  26
  -8 -12  -2 14561.2 397.056  26
   8  12   2 13665.4 400.461  12
   8 -12   2 14653.2 409.448  23
  -8  12  -3 2953.83 170.867   8
  -8  12  -3 3246.51 168.224  26
  -8 -12  -3 3212.36 166.851  26
   8  12   3 3218.76 168.855  12
  -8  12  -4 760.630 87.7314   8
  -8  12  -4 706.697 78.9120  26
  -8 -12  -4 866.358 85.4871  26
   8  12   4 795.718 82.6464  12
  -8  12  -5 2587.88 161.220   8
  -8  12  -5 2756.48 156.976  26
  -8 -12  -5 2351.98 145.836  26
  -8  12  -6 1282.29 100.989  17
  -8  12  -6 1290.68 112.421   8
  -8  12  -6 1224.47 106.320  26
  -8 -12  -6 1231.31 104.993  26
  -8  12  -7 1187.05 105.290   8
  -8  12  -7 1553.11 108.377  17
  -8  12  -7 1299.46 106.678  26
  -8 -12  -7 1258.51 103.755  26
  -8 -12  -8 1835.35 119.298   9
  -8  12  -8 1711.41 119.173   8
  -8  12  -8 1893.51 117.082  17
  -8  12  -8 1917.00 125.383  26
  -8 -12  -8 1946.48 125.002  26
  -8 -12  -9 562.093 61.0761   9
  -8  12  -9 621.783 64.5700   8
  -8  12  -9 558.840 61.9491  17
  -8  12  -9 588.991 67.0588  26
  -8 -12  -9 607.553 67.5209  26
  -8 -12 -10-7.93121 16.1449   9
  -8  12 -10 9.11620 21.0754  17
  -8 -12 -10 23.0767 22.9866  26
  -8  12 -11 152.899 27.1033  21
  -8 -12 -11 141.513 26.8756  26
   8 -13 -10-21.1023 25.7040   5
   8 -13 -10-25.1252 22.6459  14
   8  13 -10 2.71026 19.8332  24
   8 -13  -9 3535.11 153.830   5
   8  13  -9 3503.23 149.578  24
   8 -13  -8 445.365 58.0834  19
   8 -13  -8 466.072 61.2309   5
   8  13  -8 425.794 54.2395  16
   8  13  -8 452.683 55.4869  25
   8  13  -8 432.856 56.7430  24
   8 -13  -7-17.4831 28.3689  19
   8 -13  -7 12.7770 33.0050   5
   8  13  -7 35.8740 26.7008  16
   8  13  -7 0.82362 25.6771  25
   8  13  -7 13.1140 24.8625  24
   8 -13  -7 49.4520 30.6523  23
   8 -13  -6 89.7902 31.5800  19
   8  13  -6 45.2280 29.7809  16
   8  13  -6 67.0312 32.7034  24
   8 -13  -6 34.0045 28.9522  23
   8  13  -5 2477.80 149.460  16
   8 -13  -5 2692.96 150.725  25
   8 -13  -5 2633.90 152.768  23
   8  13  -4 558.018 73.7158  16
   8 -13  -4 693.726 76.2966  25
   8  13  -4 658.047 75.2976  12
   8 -13  -4 630.210 75.6286  23
   8  13  -3 871.359 90.7742  16
   8 -13  -3 1100.26 97.7644  27
   8 -13  -3 1059.63 92.1035  25
   8  13  -3 939.953 90.0181  12
   8 -13  -3 992.826 96.4496  23
   8  13  -2 96.0473 36.9724  16
   8 -13  -2 77.8222 36.2290  27
   8  13  -2 131.745 38.8959  12
   8 -13  -2 84.6955 39.0212  23
   8  13  -1 2110.48 138.353  16
   8 -13  -1 2180.22 141.287  27
   8  13  -1 1933.54 131.860  12
   8 -13  -1 2017.68 136.881  23
  -8  13   0 1786.41 123.919   8
   8  13   0 1688.48 124.752  16
   8  13   0 1625.37 121.440  12
   8 -13   0 1571.74 119.832  23
  -8  13  -1 7292.58 274.689   8
   8  13   1 7265.90 272.826  16
   8  13   1 7322.51 271.744  12
   8 -13   1 7576.56 275.812  23
  -8  13  -2 3451.98 182.581   8
  -8  13  -2 3353.02 170.899  26
  -8 -13  -2 3436.41 170.517  26
   8  13   2 3277.55 173.848  12
   8 -13   2 3449.67 177.657  23
  -8  13  -3 6637.04 262.851   8
  -8  13  -3 6637.79 252.785  26
  -8 -13  -3 6473.49 247.318  26
   8  13   3 6316.96 248.727  12
  -8  13  -4 665.830 76.2430  26
  -8 -13  -4 577.583 72.3693  26
  -8  13  -4 600.082 80.0573   8
   8  13   4 489.583 67.8124  12
  -8  13  -5 2481.85 156.878   8
  -8  13  -5 2618.01 153.756  26
  -8 -13  -5 2486.24 148.043  26
   8  13   5 2894.58 152.436  22
  -8  13  -6 4333.88 188.009  17
  -8  13  -6 4216.78 205.230   8
   8 -13   6 4954.82 211.236  27
  -8  13  -6 4341.36 200.306  26
  -8 -13  -6 4543.36 203.629  26
  -8  13  -7 18.2265 22.9823  17
  -8  13  -7 39.7657 30.4356   8
  -8  13  -7 5.93964 29.9367  26
  -8 -13  -7 30.9945 30.8225  26
  -8 -13  -8 637.911 69.8387   9
  -8  13  -8 635.638 70.6465   8
  -8  13  -8 573.794 64.1624  17
  -8 -13  -8 562.579 68.8726  26
  -8  13  -8 588.016 67.3836  26
  -8 -13  -9 372.336 48.1152   9
  -8  13  -9 397.384 51.7388  17
  -8  13  -9 411.466 53.6572   8
  -8 -13  -9 382.236 51.6553  26
  -8 -13 -10 232.746 31.9561   9
  -8  13 -10 230.501 35.5029  17
  -8 -13 -10 240.293 38.1244  26
   8 -14 -10 155.120 29.5631   5
   8 -14 -10 141.517 23.7646  14
   8  14 -10 214.315 34.1874  24
   8 -14  -9 577.083 60.3627   5
   8  14  -9 464.025 53.1014  24
   8 -14  -8 938.794 82.2928   5
   8 -14  -8 806.563 71.5457  19
   8  14  -8 854.035 75.4049  16
   8  14  -8 869.566 72.4739  25
   8  14  -8 833.453 73.8308  24
   8 -14  -7 4021.97 182.230   5
   8 -14  -7 3882.57 170.734  19
   8  14  -7 4102.14 182.315  16
   8  14  -7 3972.50 173.704  25
   8  14  -7 3966.03 171.094  24
   8 -14  -7 3925.16 170.682  23
   8 -14  -6 13.5651 21.1493  19
   8  14  -6 82.1369 35.0286  16
   8  14  -6-8.96791 26.7804  24
   8 -14  -6 27.8964 26.7449  23
   8 -14  -5 166.302 38.4155  19
   8  14  -5 136.572 39.8016  16
   8 -14  -5 178.053 44.6597  23
   8  14  -4 3079.54 171.356  16
   8 -14  -4 3662.34 175.178  25
   8  14  -4 3416.34 170.632  12
   8 -14  -4 3302.50 174.317  23
   8  14  -3 1945.96 135.585  16
   8 -14  -3 1875.52 129.866  27
   8 -14  -3 2138.51 129.944  25
   8  14  -3 2087.08 134.479  12
   8 -14  -3 1946.50 134.551  23
   8  14  -2 194.880 45.7928  16
   8 -14  -2 201.038 45.6665  27
   8  14  -2 210.769 48.8607  12
   8 -14  -2 206.834 50.7479  23
   8  14  -1 3007.84 167.580  16
   8 -14  -1 3064.49 170.121  27
   8  14  -1 2849.22 162.555  12
   8 -14  -1 3107.08 169.569  23
  -8  14   0 1250.89 103.682   8
   8  14   0 1173.82 103.292  16
   8 -14   0 955.107 95.6911  27
   8  14   0 1161.45 102.842  12
   8 -14   0 1182.59 105.290  23
  -8  14  -1 1173.38 103.267   8
   8  14   1 1107.00 100.845  16
   8 -14   1 796.766 88.3684  27
   8  14   1 1051.60 98.0591  12
   8 -14   1 1053.63 97.0375  23
  -8  14  -2 1355.74 114.131   8
   8 -14   2 1353.01 115.109  27
  -8 -14  -2 1427.34 108.348  26
   8  14   2 1581.41 119.396  12
   8 -14   2 1557.08 117.188  23
  -8  14  -3 2315.89 149.669   8
   8 -14   3 2370.32 151.417  27
  -8 -14  -3 2301.87 140.226  26
   8  14   3 2296.52 142.134  12
  -8  14  -4 6106.97 254.326   8
   8 -14   4 6580.53 259.164  27
  -8  14  -4 6210.13 244.682  26
  -8 -14  -4 6470.13 247.415  26
   8  14   4 6659.35 250.301  12
   8  14   5 74.4419 28.8843  22
   8 -14   5 150.685 45.9123  27
  -8  14  -5 92.4172 40.9025   8
  -8  14  -5 81.1909 35.0274  26
  -8 -14  -5 52.7319 31.1759  26
  -8  14  -6 2068.82 122.330  17
  -8  14  -6 1894.53 134.226   8
   8 -14   6 1986.83 128.227  27
  -8  14  -6 2036.82 132.828  26
  -8 -14  -6 1879.15 126.110  26
  -8  14  -7 312.438 48.9459  17
  -8  14  -7 248.007 51.1268  26
  -8  14  -7 350.293 63.7887   8
  -8 -14  -7 240.467 47.0174  26
  -8 -14  -8 867.968 76.7812   9
  -8  14  -8 903.219 84.0534   8
  -8  14  -8 888.351 76.4869  17
  -8 -14  -8 888.571 80.5874  26
  -8 -14  -9 48.8345 23.7731   9
  -8  14  -9 49.4019 25.4703  17
  -8  14  -9-24.3059 23.9478   8
  -8 -14  -9 26.8054 22.9548  26
  -8  14 -10-14.9939 17.1513  21
  -8 -14 -10 21.4034 20.5372  26
   8 -15 -10 65.7361 21.3989   5
   8  15 -10 80.3948 20.3439  24
   8 -15  -9 289.790 43.7436   5
   8  15  -9 333.787 43.3530  24
   8 -15  -8 1496.69 99.3718   5
   8 -15  -8 1472.25 93.5142  19
   8  15  -8 1444.15 94.4783  16
   8  15  -8 1360.85 88.7976  25
   8  15  -8 1293.87 89.6780  24
   8 -15  -7 247.162 44.3562  19
   8 -15  -7 215.846 47.1653   5
   8  15  -7 326.437 52.7727  16
   8  15  -7 292.003 47.3445  25
   8  15  -7 238.256 42.8710  24
   8 -15  -6 1123.58 88.9615  19
   8  15  -6 1098.72 94.6790  16
   8  15  -6 1122.28 88.1636  24
   8 -15  -6 1051.03 89.7824  23
   8 -15  -5 1424.29 101.737  19
   8  15  -5 1332.55 110.517  16
   8 -15  -5 1306.12 107.356  23
   8 -15  -4 558.872 68.6036  27
   8  15  -4 411.407 64.5549  16
   8  15  -4 599.355 73.1001  12
   8 -15  -4 639.552 78.0584  23
   8  15  -3 8408.12 304.111  16
   8 -15  -3 9238.00 308.657  27
   8 -15  -3 9605.85 295.686  25
   8  15  -3 9328.62 306.628  12
   8 -15  -3 8985.75 308.982  23
   8  15  -2 925.841 91.5463  16
   8 -15  -2 960.276 96.9129  27
   8  15  -2 1004.01 94.6771  12
   8 -15  -2 934.430 93.3592  23
   8  15  -1 3053.11 167.327  16
   8 -15  -1 2760.56 160.890  27
   8  15  -1 2553.96 153.618  12
   8 -15  -1 2842.19 162.531  23
   8  15   0 189.623 48.4879  16
   8 -15   0 163.484 48.9207  27
  -8  15   0 180.538 44.9316   8
   8 -15   0 191.633 47.3152  23
   8  15   0 125.141 42.4300  12
  -8  15  -1 3567.78 182.280   8
   8  15   1 3786.85 187.948  16
   8 -15   1 3233.15 181.726  27
   8  15   1 3789.82 187.955  12
   8 -15   1 3633.28 185.666  23
   8 -15   2 82.3686 41.5236  27
  -8  15  -2 62.0065 34.8096   8
  -8 -15  -2 112.257 34.9019  26
   8 -15   2 33.9018 27.2349  23
   8  15   2 87.3995 39.6707  12
  -8  15  -3 2942.92 169.011   8
   8 -15   3 3066.86 172.041  27
  -8 -15  -3 3165.54 163.828  26
   8  15   3 3065.46 165.378  12
   8 -15   4 12.6724 28.6165  27
  -8  15  -4-3.92487 32.0923   8
  -8 -15  -4-5.38998 28.5736  26
   8  15   4-59.6216 31.5564  12
  -8  15  -5 877.983 93.5879   8
   8 -15   5 904.896 89.3775  27
  -8 -15  -5 921.587 88.1857  26
   8  15   5 961.996 85.8151  22
   8 -15   6 233.190 47.1390  27
  -8  15  -6 238.392 52.9343   8
  -8 -15  -6 218.573 46.7179  26
  -8  15  -7 1128.72 96.7868   8
  -8  15  -7 954.757 79.1771  17
  -8 -15  -7 998.807 88.2497  26
  -8 -15  -8 94.8620 30.3109   9
  -8  15  -8 141.550 40.4444   8
  -8 -15  -8 133.338 35.5381  26
  -8  15  -9 67.9368 19.6530  21
  -8 -15  -9 106.191 25.5041   9
  -8  15  -9 94.3580 27.6389   8
  -8 -15  -9 71.1371 26.5860  26
  -8 -15 -10 27.4903 18.5889  26
   8 -16  -9 73.9736 23.4130   5
   8  16  -9 34.4506 19.2864  24
   8 -16  -8 1558.31 98.5989   5
   8 -16  -8 1644.27 94.7185  19
   8  16  -8 1751.66 102.317  16
   8  16  -8 1707.97 94.0599  25
   8  16  -8 1547.92 92.0483  24
   8 -16  -7 5074.11 197.807   5
   8 -16  -7 5084.78 188.347  19
   8  16  -7 4991.38 197.633  16
   8  16  -7 5359.37 193.068  25
   8  16  -7 4934.34 184.411  24
   8 -16  -6 3263.11 160.645   5
   8 -16  -6 3212.71 151.539  19
   8  16  -6 3092.95 161.071  16
   8  16  -6 3120.99 144.747  24
   8 -16  -6 3226.20 156.934  23
   8 -16  -5 3.26819 20.3823  19
   8  16  -5 9.82866 27.5425  16
   8 -16  -5 7.29620 28.1798  23
   8 -16  -4 3212.42 156.848  19
   8  16  -4 3066.86 167.665  16
   8 -16  -4 3413.48 166.504  27
   8  16  -4 3432.84 168.511  12
   8 -16  -4 3091.74 166.731  23
   8  16  -3 3414.04 182.130  16
   8 -16  -3 3890.69 186.934  27
   8  16  -3 3700.36 181.375  12
   8 -16  -3 3852.48 189.621  23
   8  16  -2 73.3676 34.7109  16
   8 -16  -2 20.1236 26.9881  27
   8  16  -2 111.741 42.9281  12
   8 -16  -2 85.3420 39.9047  23
   8  16  -1 953.228 91.7426  16
   8 -16  -1 953.971 95.5372  27
   8  16  -1 956.126 94.4661  12
   8 -16  -1 911.039 94.1255  23
  -8  16   0 3638.49 176.751   8
   8  16   0 3415.39 177.948  16
   8 -16   0 3264.27 179.392  27
   8  16   0 3124.79 171.735  12
   8 -16   0 3517.31 181.409  23
   8  16   1 220.506 49.5560  16
   8 -16   1 218.146 53.0822  27
  -8  16  -1 166.871 40.7327   8
   8 -16   1 282.592 52.6223  23
   8  16   1 147.055 46.1926  12
  -8  16  -2 4216.58 198.876   8
   8 -16   2 4000.11 197.760  27
  -8 -16  -2 3885.87 182.596  26
   8  16   2 3682.45 185.957  12
   8 -16   2 3962.82 189.391  23
  -8  16  -3 1692.16 126.099   8
   8 -16   3 1560.40 122.848  27
  -8 -16  -3 1578.10 114.186  26
   8  16   3 1718.64 121.622  12
   8 -16   4 532.487 71.4492  27
  -8  16  -4 503.132 68.6416   8
  -8 -16  -4 604.337 67.3574  26
   8  16   4 551.038 67.6160  12
  -8  16  -5 1240.49 108.412   8
   8 -16   5 1341.51 105.813  27
  -8 -16  -5 1260.49 100.179  26
  -8  16  -6 580.110 75.4295   8
  -8 -16  -6 577.917 68.5943  26
  -8  16  -7 909.591 86.1733   8
  -8 -16  -7 845.786 78.6047  26
  -8 -16  -8 702.683 63.6969   9
  -8  16  -8 673.800 67.0080   8
  -8 -16  -8 689.466 66.6347  26
  -8 -16  -9 561.589 48.7388   9
  -8  16  -9 597.700 54.6140   8
  -8 -16  -9 711.747 60.6018  26
   8 -17  -9 56.8722 20.3601   5
   8  17  -9 59.0415 19.8694  24
   8 -17  -8 28.1295 19.2938  19
   8 -17  -8-8.80701 21.4066   5
   8  17  -8-11.2422 20.5478  16
   8  17  -8 10.7458 18.6974  24
   8 -17  -7 1143.62 87.6328   5
   8 -17  -7 1236.85 84.7173  19
   8  17  -7 1113.10 86.7130  16
   8  17  -7 1227.82 84.1965  25
   8  17  -7 1092.35 78.5186  24
   8 -17  -6 318.370 48.6980  19
   8 -17  -6 402.283 56.7331   5
   8  17  -6 240.152 50.5320  16
   8  17  -6 388.367 50.1875  24
   8 -17  -6 294.224 48.8032  23
   8 -17  -5 40.9463 24.3802  19
   8  17  -5 52.4193 36.8010  16
   8 -17  -5 78.0524 39.2748  23
   8 -17  -4 1602.12 106.618  19
   8  17  -4 1583.29 119.139  16
   8 -17  -4 1683.96 112.992  27
   8  17  -4 1705.10 115.431  12
   8 -17  -4 1675.94 119.535  23
   8  17  -3 2.15364 31.6341  16
   8 -17  -3 43.8725 33.2562  27
   8  17  -3 43.7009 31.3997  12
   8 -17  -3 42.4838 40.1872  23
   8  17  -2 7664.43 279.291  16
   8 -17  -2 7382.71 272.297  27
   8  17  -2 7558.19 275.123  12
   8 -17  -2 7529.11 276.287  23
   8  17  -1 369.986 61.6614  16
   8 -17  -1 215.501 51.1502  27
   8 -17  -1 249.293 51.7732  23
   8  17  -1 306.915 60.1349  12
   8  17   0 7077.03 260.295  16
   8 -17   0 6051.85 251.007  27
   8  17   0 6405.43 253.040  12
   8 -17   0 6990.11 261.603  23
  -8  17  -1 928.530 87.4768   8
   8  17   1 764.049 83.3136  16
   8 -17   1 682.499 82.9386  27
   8  17   1 707.985 83.1065  12
   8 -17   1 768.223 84.4439  23
  -8  17  -2 887.556 90.4976   8
   8 -17   2 807.969 89.3341  27
  -8 -17  -2 788.587 78.9753  26
   8  17   2 780.944 83.5454  12
   8 -17   2 989.500 94.5971  23
  -8  17  -3 734.929 84.8163   8
   8 -17   3 528.589 72.7081  27
  -8 -17  -3 527.764 65.4205  26
   8  17   3 519.678 69.8070  12
   8 -17   4 47.8557 31.2047  27
  -8  17  -4 96.7444 38.0019   8
  -8 -17  -4 71.4756 30.2939  26
   8  17   4 66.5438 28.1110  12
   8 -17   5 193.474 44.0153  27
  -8  17  -5 184.391 49.8245   8
  -8 -17  -5 105.744 35.6026  26
  -8  17  -6 990.259 91.1594   8
  -8 -17  -6 925.297 84.2197  26
  -8  17  -7 83.5581 35.4220   8
  -8 -17  -7 74.3076 26.9884  26
  -8 -17  -8 478.791 50.8841   9
  -8  17  -8 480.138 55.5993   8
  -8 -17  -8 461.313 53.9553  26
  -8  17  -9 559.131 49.7632   8
  -8 -17  -9 503.354 48.4490  26
   8 -18  -9 7.58199 14.4259   5
   8 -18  -8 1682.43 90.9722   5
   8 -18  -8 1654.64 86.1018  19
   8  18  -8 1494.64 86.8456  16
   8  18  -8 1573.41 81.6499  24
   8 -18  -7 3827.43 156.423   5
   8 -18  -7 3820.86 148.780  19
   8  18  -7 4124.04 165.705  16
   8  18  -7 4063.70 151.829  25
   8  18  -7 3729.27 142.591  24
   8 -18  -6 3056.65 144.902   5
   8 -18  -6 3105.01 140.099  19
   8  18  -6 2976.24 150.230  16
   8 -18  -5-20.6634 28.4268  19
   8  18  -5 34.0213 29.4355  16
   8 -18  -5 17.3699 30.1874  23
   8 -18  -4 1307.38 94.5822  19
   8  18  -4 1131.73 99.1649  16
   8 -18  -4 1229.48 93.6329  27
   8  18  -4 1250.61 97.0743  12
   8 -18  -4 1293.94 105.336  23
   8  18  -3 1444.36 112.515  16
   8 -18  -3 1542.52 110.823  27
   8  18  -3 1564.66 113.114  12
   8 -18  -3 1492.40 113.405  23
   8  18  -2 926.420 90.3083  16
   8 -18  -2 923.540 90.5257  27
   8  18  -2 900.179 88.3554  12
   8 -18  -2 872.148 90.7306  23
   8  18  -1 23.4160 30.6955  16
   8 -18  -1 17.9814 31.1925  27
   8 -18  -1 1.45323 33.0997  23
   8  18  -1 97.9927 38.1153  12
   8  18   0 1657.36 118.916  16
   8 -18   0 1374.98 113.802  27
   8  18   0 1341.48 112.271  12
   8 -18   0 1444.27 112.377  23
  -8  18  -1 630.272 71.9196   8
   8  18   1 577.143 70.6256  16
   8 -18   1 482.730 69.7807  27
   8  18   1 637.619 78.0650  12
   8 -18   1 474.881 65.7224  23
   8 -18   2 27.8495 32.9621  27
  -8  18  -2 22.8353 27.2067   8
  -8 -18  -2 116.440 37.2615  26
   8 -18   2 60.2862 29.8869  23
   8  18   2 44.1120 31.8039  12
   8 -18   3 585.094 74.2350  27
  -8  18  -3 531.657 69.8279   8
  -8 -18  -3 562.639 68.5451  26
   8  18   3 615.658 72.7408  12
  -8  18  -4 2948.12 159.135   8
   8 -18   4 2966.40 157.665  27
  -8 -18  -4 2820.62 149.105  26
   8  18   4 2926.88 149.474  12
   8 -18   5 37.5142 28.9303  27
  -8  18  -5-17.5140 34.3767   8
  -8 -18  -5 18.6318 24.1604  26
  -8  18  -6 4249.39 185.100   8
  -8 -18  -6 4096.69 174.701  26
  -8  18  -7 1825.46 110.905   8
  -8 -18  -7 1835.73 107.039  26
  -8 -18  -8 825.034 60.9940   9
  -8  18  -8 863.570 68.8677   8
  -8 -18  -8 881.312 67.4687  26
  -8 -18  -9 3099.74 114.518  26
   8 -19  -8 906.066 61.8165   5
   8 -19  -8 903.057 58.0771  19
   8  19  -8 985.122 64.5607  16
   8 -19  -7 3.74749 19.2875  19
   8 -19  -7 8.84689 21.1546   5
   8  19  -7 16.0125 22.1945  16
   8  19  -7 31.4412 17.2925  25
   8  19  -7 34.8233 20.1908  24
   8 -19  -6 1388.29 92.2747   5
   8 -19  -6 1326.37 86.3785  19
   8  19  -6 1363.43 95.9856  16
   8 -19  -5 4.48406 20.3743  19
   8 -19  -5 24.6958 25.7433   5
   8  19  -5 20.0813 31.2594  16
   8 -19  -4-11.2303 23.4670  19
   8  19  -4-14.0544 32.4597  16
   8 -19  -4 25.8699 23.2492  27
   8  19  -4-0.10949 24.3299  12
   8 -19  -4 37.6206 35.6330  23
   8 -19  -3 1426.16 96.9220  19
   8  19  -3 1554.88 114.933  16
   8 -19  -3 1498.91 107.246  27
   8  19  -3 1522.51 108.667  12
   8 -19  -3 1470.97 110.401  23
   8  19  -2 40.1453 29.5543  16
   8 -19  -2 37.3946 28.8384  27
   8 -19  -2 127.731 45.2491  23
   8  19  -2 38.0841 30.8991  12
   8  19  -1 1817.66 122.439  16
   8 -19  -1 1730.76 121.930  27
   8  19  -1 1632.65 118.910  12
   8 -19  -1 1701.77 122.510  23
   8  19   0 60.3657 29.8549  16
   8 -19   0 103.760 43.5979  27
   8 -19   0 95.7153 41.8633  23
   8  19   0 63.9968 34.7143  12
  -8  19  -1 1176.11 95.7522   8
   8 -19   1 1290.79 107.162  27
   8  19   1 1279.01 104.666  12
   8 -19   1 1336.24 105.104  23
   8 -19   2 8.38621 33.3429  27
  -8  19  -2-3.39666 32.0458   8
  -8 -19  -2 29.1237 26.0813  26
   8  19   2 58.5088 38.6893  12
  -8  19  -3 4345.90 191.065   8
   8 -19   3 4408.59 196.718  27
  -8 -19  -3 4132.33 181.988  26
   8  19   3 4235.32 186.656  12
   8 -19   4 485.488 63.5444  27
  -8  19  -4 463.953 65.5352   8
  -8 -19  -4 496.325 63.5576  26
   8  19   4 564.009 64.6659  12
  -8  19  -5 1165.14 93.7896   8
   8 -19   5 1292.70 93.9362  27
  -8 -19  -5 1115.65 88.4903  26
  -8  19  -6 119.382 38.0567   8
  -8 -19  -6 151.273 36.6401  26
  -8  19  -7 672.903 64.7356   8
  -8 -19  -7 668.609 61.8299  26
  -8 -19  -8 887.572 56.6449   9
  -8  19  -8 860.642 64.6477   8
  -8 -19  -8 846.470 61.8760  26
   8 -20  -7 328.406 37.3982  19
   8 -20  -7 320.654 39.3405   5
   8  20  -7 312.815 41.5472  16
   8  20  -7 226.650 30.1415  25
   8 -20  -6 13.3062 17.3204  19
   8 -20  -6 39.4610 23.3485   5
   8  20  -6 64.4801 30.0612  16
   8 -20  -5 207.477 36.9399  19
   8 -20  -5 183.150 36.7782   5
   8  20  -5 240.833 47.1453  16
   8 -20  -4 764.203 67.7542  19
   8  20  -4 741.345 76.8792  16
   8 -20  -4 824.658 72.7919  27
   8  20  -4 717.602 68.6141  12
   8 -20  -3 2868.78 135.217  19
   8  20  -3 2850.95 150.833  16
   8 -20  -3 2587.36 139.026  27
   8  20  -3 2919.41 147.470  12
   8  20  -2 5081.40 207.834  16
   8 -20  -2 5251.12 210.367  27
   8  20  -2 5221.63 209.786  12
   8 -20  -2 5392.07 215.134  23
   8  20  -1 2696.59 147.879  16
   8 -20  -1 2874.63 155.527  27
   8  20  -1 2932.61 155.223  12
   8 -20  -1 3012.94 159.397  23
   8  20   0 81.3324 32.4420  16
   8 -20   0 80.0750 39.6937  27
   8  20   0 61.4177 33.5287  12
   8 -20   1 25.1133 35.6040  27
   8  20   1 28.0425 32.1752  12
  -8  20  -2 1642.27 110.521   8
   8 -20   2 1584.17 115.208  27
  -8 -20  -2 1765.84 108.584  26
   8  20   2 1437.88 106.619  12
   8 -20   3 7.19027 31.3914  27
  -8  20  -3 12.4801 26.7545   8
  -8 -20  -3-1.17846 20.1915  26
   8  20   3 6.17126 24.4497  12
   8 -20   4 524.222 61.4940  27
  -8  20  -4 542.830 64.5619   8
  -8 -20  -4 622.168 67.2049  26
   8  20   4 494.422 58.7729  12
   8 -20   5 47.1083 25.4325  27
  -8  20  -5 73.4116 32.7272   8
  -8 -20  -5 25.1805 21.6756  26
  -8  20  -6 3507.15 152.760   8
  -8 -20  -6 3485.41 146.011  26
  -8 -20  -7 1209.01 73.1794   9
  -8  20  -7 1186.21 80.0628   8
  -8 -20  -7 1301.41 79.4390  26
  -8 -20  -8 134.698 25.5179  26
   8 -21  -7 168.380 26.1874   5
   8  21  -7 159.840 28.8799  16
   8 -21  -6-1.37400 15.7792  19
   8 -21  -6 7.42865 15.7665   5
   8  21  -6 21.3928 22.0115  16
   8  21  -6 8.56810 17.0205  25
   8 -21  -5 3298.33 136.203   5
   8 -21  -5 3466.10 136.103  19
   8  21  -5 3650.79 153.601  16
   8 -21  -4 2542.61 123.196   5
   8 -21  -4 2645.68 121.083  19
   8  21  -4 2489.11 132.143  16
   8 -21  -4 2517.51 122.284  27
   8  21  -4 2652.71 125.721  12
   8 -21  -3 1786.15 101.541  19
   8  21  -3 1846.19 114.785  16
   8 -21  -3 1851.90 111.343  27
   8  21  -3 1855.99 112.435  12
   8  21  -2 2675.64 140.977  16
   8 -21  -2 2576.70 137.611  27
   8  21  -2 2557.78 138.338  12
   8  21  -1 405.929 57.0478  16
   8 -21  -1 372.056 58.6548  27
   8  21  -1 481.179 63.1536  12
   8  21   0 4503.93 182.982  16
   8 -21   0 4141.97 186.082  27
   8  21   0 4083.33 184.984  12
   8 -21   1 306.888 56.0939  27
   8  21   1 514.873 66.0999  12
  -8  21  -2 1157.16 87.1815   8
   8 -21   2 1090.45 91.5833  27
  -8 -21  -2 1208.56 86.6799  26
   8  21   2 1115.48 90.7119  12
  -8  21  -3 599.246 66.2666   8
   8 -21   3 648.570 69.4071  27
  -8 -21  -3 650.960 64.6005  26
   8  21   3 587.862 65.9993  12
   8  21   4 255.586 38.6442  22
   8 -21   4 233.380 43.6603  27
  -8  21  -4 208.449 42.3791   8
  -8 -21  -4 244.962 42.5477  26
   8  21   4 187.066 35.2959  12
  -8  21  -5 1945.91 109.754   8
   8 -21   5 1903.38 98.9648  27
  -8 -21  -5 1885.28 104.269  26
  -8  21  -6 729.478 65.0023   8
  -8 -21  -6 713.751 59.8646  26
  -8  21  -7 1900.47 93.8523   8
  -8 -21  -7 1942.83 91.1685  26
   8 -22  -6 2464.24 97.7939   5
   8 -22  -6 2530.42 97.6481  19
   8  22  -6 2562.53 111.192  16
   8 -22  -5 1316.29 75.8957   5
   8 -22  -5 1348.63 75.9897  19
   8  22  -5 1409.62 87.9300  16
   8 -22  -4 107.479 26.1445  19
   8 -22  -4 90.5819 25.8991   5
   8  22  -4 72.8729 28.4669  16
   8  22  -4 95.4548 27.0487  12
   8 -22  -3 12.2538 17.8240  19
   8  22  -3-12.4754 24.7335  16
   8 -22  -3 34.2463 27.2057  27
   8  22  -3 49.3494 25.7193  12
   8  22  -2 1667.48 104.226  16
   8 -22  -2 1611.25 102.986  27
   8  22  -2 1552.19 102.117  12
   8  22  -1 680.468 67.9704  16
   8 -22  -1 570.288 63.0073  27
   8  22  -1 600.014 66.0746  12
   8 -22   0-4.86156 29.0665  27
   8  22   0 19.8683 27.5584  12
   8 -22   1 429.152 59.2209  27
   8  22   1 508.147 61.7264  12
  -8  22  -2 753.319 66.0574   8
   8 -22   2 693.183 69.3000  27
  -8 -22  -2 811.187 65.8218  26
   8  22   2 680.454 67.8919  12
   8 -22   3 163.947 38.1955  27
  -8  22  -3 160.830 35.2258   8
  -8 -22  -3 136.887 29.9411  26
   8  22   3 140.887 32.6728  12
  -8  22  -4 999.064 76.6821   8
   8 -22   4 1003.98 74.1335  27
  -8 -22  -4 994.490 73.0985  26
   8  22   4 1001.36 72.3624  12
   8  22   4 969.433 67.9983  22
  -8  22  -5 1540.70 91.4725   8
  -8 -22  -5 1547.55 87.3544  26
  -8  22  -6 224.131 35.9670   8
  -8 -22  -6 209.092 32.6206  26
   8  23  -5 177.219 32.7630  16
  -8  23   4 241.783 34.9023  11
   8 -23  -4 249.629 33.2364  19
   8 -23  -4 216.826 30.3815   5
   8  23  -4 239.345 36.0475  16
   8  23  -4 261.962 32.3770  12
   8 -23  -3 597.324 50.7450   5
   8 -23  -3 642.189 52.7315  19
   8  23  -3 615.832 59.0722  16
   8 -23  -3 597.722 56.5015  27
   8  23  -3 688.686 60.3563  12
   8 -23  -2 61.8527 21.2042  19
   8  23  -2 60.5271 26.8378  16
   8 -23  -2 4.15243 23.8677  27
   8  23  -2 29.2399 22.9619  12
   8 -23  -1 511.686 58.2641  27
   8  23  -1 715.975 69.5040  12
   8 -23   0 40.5696 26.2323  27
   8  23   0-20.9105 30.2187  12
   8 -23   1 53.7198 27.8368  27
   8  23   1 91.6794 28.4503  12
   8 -23   2-30.1079 27.7481  27
   8  23   2-13.7185 28.2843  12
  -8  23  -3 69.2708 24.2114  11
   8 -23   3 133.297 31.7616  27
  -8  23  -3 92.0927 23.6657   8
  -8 -23  -3 102.725 24.9302  26
   8  23   3 107.190 28.2206  12
  -8  23  -4 1625.28 89.2124   8
   8 -23   4 1640.29 86.6851  27
  -8 -23  -4 1647.18 87.7722  26
   8  23   4 1618.95 83.4080  12
  -8  23  -5-4.65182 18.5725   8
  -8 -23  -5-24.6821 16.3557  26
   8  24  -4 1138.67 70.5989  16
   8 -24  -3 838.418 54.4299  19
   8  24  -3 941.963 66.0595  16
   8  24  -3 923.283 63.2324  12
  -8  24   3 907.400 65.0963  11
   8 -24  -2 41.9064 24.1040  27
   8  24  -2-2.59113 20.0989  12
   8 -24  -1 142.059 32.7319  27
   8  24  -1 89.5962 28.2977  12
   8 -24   0 156.525 35.5475  27
   8  24   0 148.695 33.2215  12
   8 -24   1 890.975 70.0631  27
   8  24   1 822.183 66.8260  12
  -8  24  -2-13.4393 20.9839  11
   8 -24   2 21.2208 22.8314  27
   8  24   2 9.62280 19.1459  12
  -8  24  -3 236.105 33.8490  11
   8  24   3 128.843 25.5490  22
   8 -24   3 142.495 27.9243  27
  -8 -24  -3 171.878 25.3563  26
   8  24   3 169.274 30.0177  12
   8  25  -2 468.458 44.1832  12
  -8  25   2 426.533 43.7405  11
  -8  25   1 177.631 32.4867  11
   8  25  -1 250.172 36.6503  12
   8 -25   0 3009.27 124.281  27
   8  25   0 3173.51 126.810  12
  -8  25   0 3239.11 126.976  11
   8 -25   1 1755.18 90.1747  27
   8  25   1 1679.08 88.7573  12
  -8  25  -1 1662.30 86.7179  11
  -8  25  -2 278.588 34.1069  11
   8 -25   2 292.201 36.7911  27
   8  25   2 260.669 33.8762  12
   9   0 -11 113.330 25.0973  25
   9   0 -11 277.238 46.3405  24
   9   0 -10 41.8038 28.3501  25
   9   0 -10-27.6679 30.4700  24
   9   0  -9 44.9066 30.6544  25
   9   0  -9 29.5728 33.1957  24
   9   0  -8 10.2323 29.6239  25
   9   0  -8-16.5354 39.8256  24
   9   0  -7 924.296 89.1257  25
   9   0  -7 856.592 83.5509  24
   9   0  -7 1014.25 89.1480  23
   9   0  -6 16.4179 29.1383  25
   9   0  -6-16.9698 40.5803  24
   9   0  -5 4.45501 29.6200  25
   9   0  -5-58.8702 42.8882  24
   9   0  -4 0.50889 25.4271  25
   9   0  -4-107.595 47.2633  24
   9   0  -3 219.799 43.4522  25
   9   0  -2-33.9812 35.4586  22
   9   0  -2 16.9636 22.1471  25
   9   0  -1 11434.3 340.491  22
   9   0   0 6.04636 30.4824  22
   9   0   1 7447.21 265.758  22
   9   0   2-15.3010 24.9846  22
  -9   0  -2 20.2980 22.6396   9
  -9   0  -3 1804.65 120.360   9
  -9   0  -3 1815.29 117.975  26
   9   0   3 1710.14 121.376  22
   9   0   4-1.24793 31.0205  22
  -9   0  -4 6.47918 23.8226   9
  -9   0  -4 28.9725 22.4039  26
  -9   0  -5 1620.15 118.546   9
  -9   0  -5 1528.02 114.505  26
   9   0   5 1442.91 113.358  22
   9   0   6-28.2274 27.5620  22
  -9   0  -6-15.4030 35.1363   9
  -9   0  -6-44.3103 38.7757  26
  -9   0  -7 2603.01 156.336   9
  -9   0  -7 2743.20 157.243  26
  -9   0  -8-42.5741 38.5397  26
  -9   0  -9-4.85303 29.1288  26
  -9   0 -10-12.5104 32.9649  26
  -9   0 -11 7.41413 19.3260  26
   9   1 -11 2.46287 16.5931  25
   9   1 -11 7.44624 26.5214  24
   9  -1 -10 940.430 76.6975  25
   9   1 -10 944.972 76.5032  25
   9  -1 -10 1012.93 80.0944  24
   9   1 -10 903.402 75.6895  24
   9  -1  -9 1859.43 117.118  25
   9   1  -9 2066.26 122.597  25
   9  -1  -9 1907.52 116.534  24
   9   1  -9 1948.72 118.043  24
   9  -1  -8-24.3477 34.8840  25
   9   1  -8 10.4499 29.5299  25
   9  -1  -8-28.9060 33.9716  24
   9   1  -8 12.7873 31.9590  24
   9  -1  -7 653.216 75.1862  25
   9   1  -7 472.115 66.3068  25
   9  -1  -7 586.141 66.9694  24
   9   1  -7 571.599 68.9299  24
   9   1  -7 563.105 67.0538  23
   9  -1  -7 554.337 64.9630  23
   9  -1  -6 438.349 61.3686  25
   9   1  -6 388.186 60.2112  25
   9  -1  -6 437.839 60.0580  24
   9   1  -6 386.127 58.8322  24
   9  -1  -6 478.952 64.9924  23
   9  -1  -5 4741.95 206.176  25
   9   1  -5 4968.11 210.414  25
   9  -1  -5 4783.07 204.689  24
   9   1  -5 4812.46 203.950  24
   9  -1  -4 1917.02 124.083  25
   9   1  -4 1857.14 121.245  25
   9  -1  -4 1639.40 110.956  24
   9   1  -4 1696.91 111.676  24
   9  -1  -3 365.007 54.9560  25
   9   1  -3 308.163 50.4828  25
   9  -1  -2 414.117 57.6266  22
   9   1  -2 432.844 56.8803  22
   9   1  -2 483.651 61.6597  25
   9  -1  -2 400.331 53.9887  25
   9   1  -1 5136.65 200.838  25
   9  -1  -1 5230.55 212.978  22
   9   1  -1 5390.66 215.882  22
   9  -1   0 2594.48 147.092  22
   9   1   0 2584.75 146.815  22
   9  -1   1 7845.05 276.276  22
   9   1   1 8004.07 276.651  22
   9  -1   2 61.8412 24.0328  22
   9   1   2 10.8249 28.1321  22
  -9   1  -3 2513.89 142.366   9
  -9  -1  -3 2629.16 147.693   9
  -9   1  -3 2330.16 135.243  26
  -9  -1  -3 2516.98 139.589  26
   9  -1   3 2375.47 145.247  22
   9   1   3 2213.82 139.761  22
  -9   1  -4 1055.93 95.3176   9
  -9  -1  -4 1185.66 101.475   9
  -9   1  -4 1117.05 95.5254  26
  -9  -1  -4 1200.92 98.4271  26
   9  -1   4 998.031 94.4381  22
   9   1   4 1139.69 99.7360  22
  -9   1  -5 839.869 86.8990   9
  -9  -1  -5 840.877 86.3359   9
  -9   1  -5 982.363 92.0525  26
  -9  -1  -5 960.727 90.2910  26
   9  -1   5 1000.55 96.1050  22
   9   1   5 999.109 94.0015  22
  -9   1  -6 604.071 73.9428   9
  -9  -1  -6 664.555 78.8674   9
  -9   1  -6 677.679 77.2544  26
  -9  -1  -6 597.770 73.7025  26
   9  -1   6 739.215 80.0030  22
   9   1   6 671.518 75.9260  22
  -9   1  -7 1147.78 101.696   9
  -9  -1  -7 1216.49 105.220   9
  -9   1  -7 1079.19 100.506  26
  -9  -1  -7 1217.91 103.394  26
  -9  -1  -8 90.3239 34.6158   9
  -9   1  -8 146.578 40.1137  26
  -9  -1  -8 158.217 42.0237  26
  -9   1  -9 54.3611 33.0807  26
  -9  -1  -9 3.81274 33.3028  26
  -9   1 -10 85.4882 30.2674  26
  -9  -1 -10 83.4311 28.5028  26
  -9   1 -11 408.979 46.8812  26
  -9  -1 -11 383.455 45.1063  26
   9  -2 -11 2781.69 115.251  25
   9   2 -11 2732.57 112.413  25
   9   2 -11 3042.79 125.680  24
   9  -2 -10 581.350 60.9460  25
   9   2 -10 551.109 59.5339  25
   9  -2 -10 603.577 66.8021  24
   9   2 -10 575.604 62.2445  24
   9  -2  -9 1167.72 93.6545  25
   9   2  -9 1172.24 92.2308  25
   9  -2  -9 1147.97 90.8342  24
   9   2  -9 1091.98 87.3608  24
   9  -2  -8 374.781 58.3556  25
   9   2  -8 327.431 58.3364  25
   9  -2  -8 326.686 60.5475  24
   9   2  -8 148.759 34.8726  24
   9  -2  -7 1163.62 97.4055  25
   9   2  -7 1232.08 101.731  25
   9  -2  -7 1167.47 97.9201  24
   9   2  -7 1334.22 102.411  24
   9  -2  -7 1115.71 93.7063  23
   9  -2  -6 61.9941 36.2487  25
   9   2  -6 31.4815 28.0142  25
   9  -2  -6-26.8019 37.2252  24
   9   2  -6 32.1385 23.7177  24
   9  -2  -6 75.4157 27.7615  23
   9  -2  -5 473.641 63.8286  25
   9   2  -5 528.865 68.3839  25
   9  -2  -5 414.453 54.7032  24
   9   2  -5 522.657 62.7177  24
   9  -2  -4 6382.61 241.126  25
   9   2  -4 6574.53 243.869  25
   9  -2  -4 6496.20 238.960  24
   9  -2  -3 556.138 64.9819  25
   9   2  -3 505.695 64.3715  25
   9  -2  -2 3338.53 162.300  25
   9   2  -2 3193.04 159.238  25
   9  -2  -2 3405.03 166.181  22
   9   2  -2 3374.14 165.813  22
   9  -2  -1 445.376 62.2324  22
   9   2  -1 439.887 59.9226  22
   9   2  -1 379.306 55.1502  25
   9  -2   0 11474.4 347.165  22
   9   2   0 11902.5 350.484  22
   9  -2   1 153.070 42.2884  22
   9   2   1 146.185 36.1490  22
   9  -2   2 52.8765 25.7216  22
   9   2   2 29.6921 23.3437  22
  -9  -2  -2 1.16552 22.8347   9
  -9   2  -3 6401.77 238.488   9
  -9  -2  -3 6311.28 239.666   9
  -9   2  -3 6283.91 233.369  26
  -9  -2  -3 5914.99 228.120  26
   9  -2   3 6048.43 241.777  22
   9   2   3 6018.92 239.548  22
   9  -2   4 61.3586 34.7505  22
   9   2   4 55.7635 28.6396  22
  -9   2  -4 42.3584 27.3523   9
  -9  -2  -4 46.3329 29.0675   9
  -9   2  -4 22.1623 24.3082  26
  -9  -2  -4 26.9376 25.6418  26
   9  -2   5 377.727 61.1142  22
   9   2   5 503.155 68.5138  22
  -9   2  -5 472.211 64.5540   9
  -9  -2  -5 477.256 65.8920   9
  -9   2  -5 395.546 58.6747  26
  -9  -2  -5 453.737 61.6710  26
   9   2   6 276.557 49.1024  22
  -9   2  -6 267.673 55.0928   9
  -9  -2  -6 216.839 48.5642   9
  -9   2  -6 224.371 47.5854  26
  -9  -2  -6 258.271 49.5831  26
   9  -2   6 278.899 51.1948  22
  -9  -2  -7 2190.80 140.686   9
  -9   2  -7 2173.22 139.585   8
  -9   2  -7 2176.70 139.601  26
  -9  -2  -7 2364.98 144.531  26
  -9  -2  -8 314.305 54.5769   9
  -9   2  -8 354.709 58.2092  26
  -9  -2  -8 280.837 51.9289  26
  -9   2  -9-2.17458 29.7643  26
  -9  -2  -9-15.3424 35.5789  26
  -9   2 -10 14.5448 24.1164  26
  -9  -2 -10 33.6476 27.1113  26
  -9   2 -11 1177.79 76.4459  17
  -9   2 -11 964.763 70.5077  26
  -9  -2 -11 978.832 71.4418  26
   9  -3 -11 694.473 55.5367  25
   9   3 -11 659.960 51.5606  25
   9   3 -11 697.973 58.3788  24
   9  -3 -10 105.207 33.6158  25
   9   3 -10 48.8148 27.9463  25
   9   3 -10 47.7078 28.3734  24
   9  -3  -9 467.596 60.4926  25
   9   3  -9 471.812 58.7868  25
   9  -3  -9 487.662 63.1440  24
   9   3  -9 420.668 56.4820  24
   9  -3  -8 376.384 58.8887  25
   9   3  -8 356.210 55.0285  25
   9  -3  -8 425.537 59.9023  24
   9   3  -8 407.419 59.7217  24
   9  -3  -7 1259.26 100.513  25
   9   3  -7 1154.40 98.4886  25
   9  -3  -7 1332.49 103.441  24
   9   3  -7 1309.91 102.165  24
   9  -3  -7 1369.43 103.823  23
   9  -3  -6-6.87639 34.7153  25
   9   3  -6 2.65657 35.1117  25
   9  -3  -6 7.31106 26.3179  24
   9   3  -6 48.5390 25.3996  24
   9  -3  -6 4.31065 30.9702  23
   9  -3  -5 294.607 54.0866  25
   9   3  -5 235.487 47.3074  25
   9  -3  -5 135.610 32.5395  24
   9   3  -5 137.631 37.7378  24
   9  -3  -5 183.677 44.7429  23
   9  -3  -4 7803.96 271.701  25
   9   3  -4 8065.12 274.929  25
   9  -3  -4 7687.33 264.936  24
   9  -3  -3 3543.94 171.577  25
   9   3  -3 3743.25 176.456  25
   9   3  -3 3912.68 178.224  22
   9  -3  -2 4327.33 188.342  25
   9   3  -2 4638.27 193.090  25
   9  -3  -2 4621.32 198.021  22
   9   3  -2 4544.50 196.645  22
   9  -3  -1 721.934 77.7446  22
   9   3  -1 764.371 79.8582  22
   9  -3   0 20633.9 521.035  22
   9   3   0 22811.4 535.110  22
   9  -3   1 94.7275 32.5857  22
   9   3   1 130.712 36.8067  22
   9  -3   2 601.987 69.4413  23
   9  -3   2 691.465 77.4245  22
   9   3   2 726.276 80.4401  22
   9  -3   3 60.0177 31.0912  22
   9   3   3 99.6183 42.7959  22
  -9   3  -3 27.3229 20.9436   9
  -9  -3  -3 91.9116 35.3377   9
  -9   3  -3 105.652 33.6694  26
  -9  -3  -3-21.2980 31.9098  26
  -9   3  -4 799.744 82.4933   9
  -9  -3  -4 694.874 79.0182   9
  -9   3  -4 741.377 80.2597  26
  -9  -3  -4 770.518 80.0980  26
   9  -3   4 728.900 81.6555  22
   9   3   4 673.106 76.4818  22
  -9   3  -5 1150.79 100.440   9
  -9  -3  -5 1212.93 104.433   9
  -9   3  -5 1130.48 97.7803  26
  -9  -3  -5 1142.43 98.5439  26
   9  -3   5 1246.96 107.037  22
   9   3   5 1386.93 109.382  22
  -9  -3  -6 2398.16 148.659   9
  -9   3  -6 2297.30 142.845  26
  -9  -3  -6 2304.08 143.525  26
   9  -3   6 2372.93 145.556  22
   9   3   6 2571.06 148.428  22
  -9  -3  -7 942.329 93.1198   9
  -9   3  -7 848.421 87.1056   8
  -9   3  -7 898.656 90.4968  26
  -9  -3  -7 818.508 86.6700  26
  -9  -3  -8 2.45727 28.6953   9
  -9   3  -8 22.2103 32.8971  26
  -9  -3  -8 13.1812 30.8899  26
  -9   3  -9 75.1217 31.8635  26
  -9  -3  -9 120.097 39.4681  26
  -9   3 -10 3469.82 155.429  26
  -9  -3 -10 3389.77 153.838  26
  -9   3 -11 38.8645 23.1247  17
  -9   3 -11 31.8232 19.0327  26
  -9  -3 -11 42.0057 22.0390  26
   9  -4 -11 320.534 43.5416  25
   9   4 -11-4.55249 25.6815  24
   9  -4 -10 1025.54 78.3784  25
   9   4 -10 1044.90 77.8584  25
   9   4 -10 888.516 76.0989  24
   9  -4  -9 158.604 39.9245  25
   9   4  -9 157.533 38.7754  25
   9   4  -9 213.710 39.7408  24
   9  -4  -8 1944.32 124.746  25
   9   4  -8 1916.54 122.715  25
   9  -4  -8 2107.61 127.821  24
   9   4  -8 1956.80 123.086  24
   9  -4  -7 98.8932 36.4757  25
   9   4  -7 88.8159 39.3858  25
   9  -4  -7 141.608 42.2081  24
   9   4  -7 169.008 43.9784  24
   9  -4  -7 121.123 38.9893  23
   9  -4  -6-20.5909 35.0324  25
   9   4  -6-12.4683 38.5587  25
   9  -4  -6-114.153 44.0511  24
   9   4  -6-0.31554 25.1524  24
   9  -4  -6 13.8054 26.9338  23
   9  -4  -5 1563.11 114.288  25
   9   4  -5 1425.47 109.783  25
   9  -4  -5 1466.71 109.847  24
   9   4  -5 1561.23 111.780  24
   9  -4  -5 1462.03 110.915  23
   9  -4  -4 793.459 81.6747  25
   9   4  -4 760.280 78.8559  25
   9  -4  -4 664.578 73.7543  24
   9  -4  -4 689.114 79.7426  23
   9   4  -3 6583.87 252.601  16
   9  -4  -3 7369.07 256.882  25
   9   4  -3 6959.05 251.817  25
   9  -4  -3 7122.99 248.071  24
   9  -4  -3 7186.06 262.958  23
   9   4  -3 7435.24 258.485  22
   9  -4  -2 189.791 42.5370  22
   9   4  -2 327.447 53.1601  22
   9  -4  -2 248.498 45.4459  25
   9  -4  -1 2139.14 133.257  22
   9   4  -1 2395.68 141.235  22
   9  -4   0 36900.8 771.081  23
   9  -4   0 36225.8 767.651  22
   9   4   0 34530.4 758.888  22
   9  -4   1 73.6105 30.9675  22
   9   4   1 86.0247 29.5673  22
   9  -4   1 59.3724 29.4448  23
   9  -4   2 5338.56 216.130  23
   9  -4   2 5456.99 227.669  22
   9   4   2 5196.59 219.850  22
   9  -4   3 63.6834 29.2304  22
   9   4   3 92.3673 35.7259  22
  -9   4  -3 56.4639 26.0115   9
  -9   4  -3 46.3860 22.3126  26
  -9  -4  -3 74.7139 28.3360  26
  -9   4  -4 2461.14 145.375   9
  -9  -4  -4 2233.65 141.076   9
  -9   4  -4 2264.21 137.715  26
  -9  -4  -4 2407.09 142.595  26
   9  -4   4 2353.88 147.159  22
   9   4   4 2467.05 147.528  22
   9   4   5 80.0859 31.1440  22
  -9  -4  -5 112.327 43.7577   9
  -9   4  -5 145.440 40.7216  26
  -9  -4  -5 114.809 35.0462  26
   9  -4   5 182.784 44.0876  22
  -9  -4  -6 9127.42 313.429   9
  -9   4  -6 9030.20 317.053   8
  -9   4  -6 10161.6 323.758  26
  -9  -4  -6 8875.06 306.779  26
   9  -4   6 9675.64 319.540  22
   9   4   6 10058.4 314.920  22
  -9  -4  -7 93.1438 37.0587   9
  -9   4  -7 141.928 46.9312   8
  -9   4  -7 120.116 43.3951  26
  -9  -4  -7 69.9024 32.1331  26
  -9  -4  -8 2136.31 136.115   9
  -9   4  -8 2229.53 137.165  26
  -9  -4  -8 2244.32 138.987  26
  -9  -4  -9 1497.55 108.146   9
  -9   4  -9 1491.24 108.161  26
  -9  -4  -9 1720.16 116.147  26
  -9   4 -10 1116.38 83.3992  17
  -9   4 -10 1115.26 86.4553  26
  -9  -4 -10 1029.94 85.9199  26
  -9   4 -11-0.99982 19.1262  17
  -9   4 -11 8.63279 17.9144  26
  -9  -4 -11-7.15187 17.9779  26
   9  -5 -11 508.129 54.9745  25
   9   5 -11 66.1939 25.8385  24
   9  -5 -10-21.8827 30.3877  25
   9   5 -10-10.1952 23.4328  25
   9   5 -10-15.0293 27.9646  24
   9  -5  -9 1653.45 108.852  25
   9   5  -9 1836.77 111.541  25
   9   5  -9 1557.76 105.077  24
   9  -5  -8 8240.59 265.550   5
   9  -5  -8 7958.53 273.915  25
   9   5  -8 8036.01 269.297  25
   9  -5  -8 8999.76 280.401  24
   9   5  -8 8200.46 270.828  24
   9  -5  -7 499.760 64.1661   5
   9  -5  -7 495.050 68.3698  25
   9   5  -7 347.904 58.0851  25
   9  -5  -7 629.817 78.3579  24
   9   5  -7 395.628 56.9192  24
   9  -5  -7 430.164 60.3625  23
   9  -5  -6 914.986 90.6553  25
   9   5  -6 949.692 89.8001  25
   9  -5  -6 1000.99 94.9921  24
   9   5  -6 907.810 84.9962  24
   9  -5  -6 942.444 88.4770  23
   9  -5  -5 7188.53 259.697  25
   9   5  -5 7067.20 259.141  25
   9  -5  -5 6667.92 250.638  24
   9   5  -5 7081.29 250.828  24
   9  -5  -5 6785.76 257.249  23
   9   5  -4 11996.3 350.845  16
   9  -5  -4 11282.0 341.649  25
   9   5  -4 11607.2 344.398  25
   9  -5  -4 10903.7 333.823  24
   9  -5  -4 10859.4 344.328  23
   9   5  -3 952.040 90.6594  16
   9  -5  -3 1069.25 92.1315  25
   9  -5  -3 1251.27 103.288  24
   9  -5  -3 912.846 91.3830  23
   9   5  -3 941.197 86.6226  22
   9  -5  -2 95.3295 33.1545  22
   9   5  -2 106.566 38.4860  22
   9   5  -2 118.539 37.9343  16
   9  -5  -2 114.444 38.1402  25
   9  -5  -2 120.471 43.8943  23
   9  -5  -1 20697.6 514.608  23
   9  -5  -1 21354.6 515.619  22
   9   5  -1 20225.1 508.668  22
   9  -5   0 21554.8 529.292  23
   9  -5   0 21676.3 529.125  22
   9   5   0 21315.5 529.125  22
   9  -5   1 2116.12 133.149  23
   9  -5   1 1764.49 124.026  22
   9   5   1 1893.20 128.430  22
   9  -5   2 181.524 42.4317  22
   9   5   2 182.500 44.2959  22
   9  -5   2 106.674 34.3594  23
  -9   5  -3 2135.21 131.234  26
  -9  -5  -3 2140.70 131.333  26
   9  -5   3 1961.09 135.056  22
   9   5   3 2057.05 135.473  22
  -9   5  -4 3600.06 175.147  26
  -9  -5  -4 3087.29 165.467  26
   9  -5   4 3504.45 180.696  22
   9   5   4 3265.38 171.901  22
  -9  -5  -5 4290.23 201.172   9
  -9   5  -5 4423.57 201.087  26
  -9  -5  -5 4028.70 191.656  26
   9  -5   5 4494.58 207.772  22
   9   5   5 4291.75 197.927  22
  -9  -5  -6 2332.05 148.465   9
  -9   5  -6 2468.18 155.120   8
  -9   5  -6 2531.34 150.809  26
  -9  -5  -6 2664.81 154.641  26
   9  -5   6 2700.79 158.138  22
   9   5   6 2965.35 157.434  22
  -9  -5  -7 521.344 71.9644   9
  -9   5  -7 548.051 72.0584   8
  -9   5  -7 432.214 62.8297  26
  -9  -5  -7 504.382 66.6615  26
  -9  -5  -8 66.4836 28.7628   9
  -9   5  -8 96.6593 29.7693   8
  -9   5  -8 80.4190 36.0179  26
  -9  -5  -8 77.4161 39.1708  26
  -9  -5  -9 3841.49 175.497   9
  -9   5  -9 4058.48 180.388  26
  -9  -5  -9 4034.61 177.935  26
  -9   5 -10 1807.96 104.486  17
  -9   5 -10 1835.76 108.736  26
  -9  -5 -10 1845.21 108.620  26
  -9   5 -11 193.889 32.2474  17
  -9   5 -11 196.790 34.3229  26
  -9  -5 -11 187.910 31.5611  26
   9  -6 -11 2406.81 102.036  25
   9   6 -11 1937.52 94.4238  24
   9   6 -10 15.0475 19.1038  25
   9   6 -10-4.80456 26.4208  24
   9  -6  -9 103.345 29.5764   5
   9  -6  -9 210.317 45.4073  25
   9   6  -9 154.154 41.7020  25
   9   6  -9 75.4697 32.0589  24
   9  -6  -8 1317.16 98.3970   5
   9  -6  -8 1315.42 102.875  25
   9   6  -8 1342.10 102.883  25
   9   6  -8 1232.05 97.0575  24
   9  -6  -7 171.477 40.7739   5
   9  -6  -7 178.063 48.4975  25
   9   6  -7 138.846 42.3084  25
   9   6  -7 135.012 36.8153  24
   9  -6  -7 126.321 36.9908  23
   9  -6  -6 1959.98 128.663  25
   9   6  -6 1816.58 123.947  25
   9   6  -6 1806.88 119.512  24
   9  -6  -6 1770.91 123.968  23
   9  -6  -5 2401.18 145.688  25
   9   6  -5 2442.27 144.831  25
   9   6  -5 2306.67 135.886  24
   9  -6  -5 2226.67 139.205  23
   9   6  -4 27053.1 616.328  16
   9  -6  -4 26532.9 607.112  25
   9  -6  -4 25997.9 597.208  24
   9  -6  -4 25698.9 610.514  23
   9   6  -3 29.2089 24.8264  22
   9   6  -3 8.10219 25.0011  16
   9  -6  -3 30.0217 32.0706  25
   9  -6  -3 39.0889 33.4615  23
   9   6  -2 94.9847 37.9673  22
   9   6  -2 160.451 43.3132  16
   9  -6  -2 43.6645 32.7228  25
   9  -6  -2 41.6566 37.1223  23
   9  -6  -2 68.5554 36.2487  22
   9  -6  -1 21425.0 524.673  23
   9  -6  -1 20978.5 519.290  22
   9   6  -1 20911.2 521.612  22
   9  -6   0 12025.5 355.814  23
   9  -6   0 11380.8 351.603  22
   9   6   0 11454.9 351.838  22
   9  -6   1 3284.86 166.780  23
   9  -6   1 2863.03 162.081  22
   9   6   1 3096.47 166.476  22
   9  -6   2 1544.45 112.678  23
   9  -6   2 1472.35 114.584  22
   9   6   2 1344.07 109.276  22
  -9   6  -3 18654.3 477.312  26
   9  -6   3 18323.9 490.955  22
   9   6   3 18503.8 488.778  22
   9   6   4 14.9643 25.4863  22
  -9   6  -4-38.8478 27.6996  26
  -9  -6  -4 33.2102 22.7610  26
   9  -6   4 18.5762 30.2894  22
  -9   6  -5 16451.2 446.722  26
  -9  -6  -5 17236.4 452.826  26
   9  -6   5 16980.2 459.695  22
   9   6   5 17549.2 457.348  22
  -9  -6  -6 677.448 80.9716   9
  -9   6  -6 613.413 79.5306   8
  -9   6  -6 700.973 79.3713  26
  -9  -6  -6 672.195 79.1311  26
  -9  -6  -7 903.252 91.3988   9
  -9   6  -7 893.815 89.1132   8
  -9   6  -7 1003.57 93.5298  26
  -9  -6  -7 926.614 91.2457  26
  -9  -6  -8 472.204 65.2691   9
  -9   6  -8 457.458 62.9140   8
  -9   6  -8 369.597 58.7364  26
  -9  -6  -8 416.858 62.0296  26
  -9  -6  -9 674.047 74.4740   9
  -9   6  -9 763.072 73.1804  17
  -9   6  -9 848.340 83.2452  26
  -9  -6  -9 696.304 77.2579  26
  -9   6 -10 74.3077 29.6130  17
  -9   6 -10 66.2207 27.8802  26
  -9  -6 -10 149.227 37.2126  26
  -9   6 -11 481.604 47.7250  17
  -9   6 -11 518.374 48.6608  26
  -9  -6 -11 475.352 46.7318  26
   9   7 -11 791.798 58.3640  24
   9  -7 -10 912.649 65.8947   5
   9   7 -10 803.013 65.0556  25
   9   7 -10 923.843 72.2346  24
   9  -7  -9 234.041 40.8926   5
   9  -7  -9 224.877 46.4113  25
   9   7  -9 235.989 44.5508  25
   9   7  -9 191.024 38.7212  24
   9  -7  -8 33.5619 23.7634   5
   9  -7  -8 57.9894 40.7419  25
   9   7  -8 31.3858 29.2810  25
   9   7  -8 72.4840 31.6469  24
   9  -7  -7 602.908 70.3249   5
   9  -7  -7 741.017 79.9804  25
   9   7  -7 764.017 80.9345  25
   9   7  -7 751.642 79.3897  24
   9  -7  -7 735.703 76.2016  23
   9  -7  -6 9979.66 319.330  25
   9   7  -6 9807.76 315.691  25
   9   7  -6 10159.5 312.720  24
   9  -7  -6 9668.65 317.647  23
   9   7  -5 10108.6 315.353  16
   9  -7  -5 9123.25 303.862  25
   9   7  -5 9008.56 301.906  25
   9   7  -5 9348.85 295.634  24
   9  -7  -5 9472.07 312.924  23
   9   7  -4 8404.96 292.615  16
   9  -7  -4 8715.82 290.698  25
   9  -7  -4 8313.98 292.216  23
   9   7  -3 2632.11 152.412  16
   9  -7  -3 2589.62 145.334  25
   9  -7  -3 2345.28 146.358  23
   9   7  -3 2619.66 148.243  22
   9  -7  -2 30520.2 682.502  23
   9  -7  -2 30679.3 672.274  22
   9   7  -2 31717.0 683.397  22
   9   7  -1 38502.4 837.398  16
   9   7  -1 40647.5 841.060  12
   9  -7  -1 40964.2 845.944  23
   9  -7  -1 40992.2 840.289  22
   9   7  -1 39335.8 837.545  22
   9   7   0 810.457 86.3844  12
   9  -7   0 866.401 88.8953  23
   9  -7   0 804.369 86.9868  22
   9   7   0 835.304 89.8094  22
   9   7   1 525.117 71.4798  12
   9  -7   1 516.296 68.6286  23
   9   7   1 559.243 71.0886  22
   9  -7   1 488.968 69.2978  22
   9   7   2 1853.55 128.139  12
   9  -7   2 1985.48 128.962  23
   9  -7   2 1977.28 133.926  22
   9   7   2 1933.99 130.640  22
  -9   7  -3 641.634 72.7879  26
  -9  -7  -3 827.214 79.8403  26
   9  -7   3 732.765 82.7086  22
   9   7   3 707.541 80.4271  22
   9   7   4 8.62394 28.2164  22
  -9   7  -4-29.6821 24.2202  26
  -9  -7  -4 2.65206 23.1776  26
   9  -7   4-0.21841 32.4426  22
  -9   7  -5 2331.44 152.228   8
  -9   7  -5 2243.22 140.285  26
  -9  -7  -5 2265.09 140.034  26
   9  -7   5 2205.70 145.061  22
   9   7   5 2138.89 137.033  22
  -9  -7  -6 139.004 45.4458   9
  -9   7  -6 112.423 37.6670  26
  -9   7  -6 23.6649 32.0150   8
  -9  -7  -7 49.2508 33.1575   9
  -9   7  -7 105.085 29.6511  17
  -9   7  -7 44.6232 27.1076   8
  -9   7  -7 75.1363 40.2996  26
  -9  -7  -7 96.6741 38.7450  26
  -9  -7  -8 1523.42 112.855   9
  -9   7  -8 1717.28 115.629   8
  -9   7  -8 1761.77 112.332  17
  -9   7  -8 1639.77 116.233  26
  -9  -7  -8 1402.33 108.350  26
  -9  -7  -9 2675.52 140.473   9
  -9   7  -9 2810.94 138.715  17
  -9   7  -9 3011.65 149.834  26
  -9  -7  -9 3063.47 150.945  26
  -9   7 -10 216.525 38.1763  17
  -9   7 -10 161.851 38.4506  26
  -9  -7 -10 237.786 41.9213  26
  -9   7 -11 14.3032 18.0685  17
  -9   7 -11-6.90268 15.5057  26
  -9  -7 -11 11.5240 18.5065  26
   9   8 -11 599.980 48.5775  24
   9  -8 -10 499.646 49.2519   5
   9   8 -10 439.830 47.3210  25
   9   8 -10 518.640 53.8949  24
   9  -8  -9 98.2138 30.6123   5
   9  -8  -9 89.6595 34.7191  25
   9   8  -9 162.553 39.1834  25
   9   8  -9 124.838 34.5296  24
   9  -8  -8 2122.19 124.936   5
   9  -8  -8 2225.66 132.047  25
   9   8  -8 2601.33 137.954  25
   9   8  -8 2360.63 129.858  24
   9  -8  -7 2491.92 142.124   5
   9  -8  -7 2647.35 146.836  25
   9   8  -7 2562.24 142.626  25
   9   8  -7 2620.20 142.080  24
   9  -8  -7 2701.87 144.896  23
   9  -8  -6 1894.96 125.745  25
   9   8  -6 1647.06 119.339  25
   9   8  -6 1948.02 121.762  24
   9  -8  -6 1716.92 122.040  23
   9   8  -5 160.532 40.3254  16
   9  -8  -5 126.946 39.3137  25
   9   8  -5 187.227 50.6353  25
   9  -8  -5 141.138 41.8024  23
   9   8  -4 72.7166 33.5444  16
   9  -8  -4 50.5198 30.1013  25
   9  -8  -4 22.7399 27.7068  23
   9   8  -3 3612.29 183.630  16
   9  -8  -3 3733.98 177.786  25
   9  -8  -3 3871.20 189.753  23
   9   8  -3 4139.63 190.274  22
   9   8  -2 5738.76 239.477  16
   9   8  -2 6114.26 242.440  12
   9  -8  -2 6039.14 242.083  23
   9  -8  -2 6126.22 236.509  22
   9   8  -1 21790.4 557.039  16
   9   8  -1 23115.7 563.135  12
   9  -8  -1 23922.2 568.253  23
   9  -8  -1 23649.0 561.947  22
   9   8   0 100.200 35.9499  12
   9  -8   0 166.115 43.4278  23
   9  -8   0 239.871 51.3153  22
   9   8   1 184.194 47.1152  22
   9   8   1 54.7039 31.6065  12
   9  -8   1 148.926 41.6074  23
   9  -8   1 127.744 41.3869  22
   9   8   2 21026.7 519.846  12
   9  -8   2 20494.2 512.118  23
   9  -8   2 19981.3 517.247  22
   9   8   2 20572.5 517.904  22
   9   8   3 92.8237 38.2508  22
  -9   8  -3 95.8932 33.7754  26
  -9  -8  -3 141.556 36.8929  26
   9  -8   3 165.594 48.8749  22
   9   8   4 579.321 73.6692  22
  -9   8  -4 648.947 74.1750  26
  -9  -8  -4 594.861 70.7223  26
  -9   8  -4 613.208 78.7869   8
   9  -8   4 693.722 81.1246  22
   9   8   5 368.258 58.3736  22
  -9   8  -5 434.123 63.5603  26
  -9   8  -5 484.186 71.7744   8
  -9  -8  -5 334.067 56.2626  26
  -9  -8  -6 587.278 73.7369   9
  -9  -8  -6 566.226 72.1269  26
  -9   8  -6 496.033 69.5716   8
  -9   8  -6 445.085 64.2838  26
  -9  -8  -7 4055.69 193.095   9
  -9   8  -7 4180.40 181.273  17
  -9   8  -7 3920.48 190.724   8
  -9   8  -7 4071.69 192.234  26
  -9  -8  -7 4397.48 197.780  26
  -9  -8  -8 44.5425 32.9723   9
  -9   8  -8-17.2964 21.5427  17
  -9   8  -8 19.9291 27.8796   8
  -9   8  -8 32.7370 32.2270  26
  -9  -8  -8 54.5930 40.4881  26
  -9  -8  -9 2876.35 141.789   9
  -9   8  -9 2623.85 132.079  17
  -9   8  -9 2732.09 141.139  26
  -9  -8  -9 2763.30 142.006  26
  -9   8 -10 56.1294 24.7269  17
  -9   8 -10 33.9243 23.6088  26
  -9  -8 -10 39.5842 24.6029  26
  -9   8 -11 725.908 54.1258  26
  -9  -8 -11 828.710 57.9892  26
   9  -9 -10 1191.10 74.7875   5
   9   9 -10 1076.46 68.2876  25
   9   9 -10 1079.52 73.9679  24
   9  -9  -9 45.4043 25.7729   5
   9   9  -9 36.0037 27.2941  25
   9   9  -9 36.3429 23.9874  24
   9  -9  -8 3218.56 154.816   5
   9  -9  -8 3312.41 157.695  25
   9   9  -8 3440.87 157.589  25
   9   9  -8 3319.60 154.430  24
   9  -9  -7 1368.11 104.172   5
   9  -9  -7 1505.74 109.743  25
   9   9  -7 1419.39 103.205  25
   9   9  -7 1399.28 101.218  24
   9  -9  -7 1395.76 101.699  23
   9   9  -6 1291.14 100.996  16
   9  -9  -6 1026.46 92.9653  25
   9   9  -6 1003.14 91.7527  25
   9   9  -6 1173.52 93.8856  24
   9  -9  -6 1236.21 101.586  23
   9   9  -5 3461.23 175.309  16
   9  -9  -5 3411.56 172.385  25
   9  -9  -5 3431.69 176.188  23
   9   9  -4 25.6848 26.6496  16
   9  -9  -4-28.8810 35.4469  25
   9  -9  -4-14.7700 27.1469  23
   9   9  -3 2568.56 152.414  16
   9  -9  -3 2669.40 147.969  25
   9   9  -3 2390.47 146.193  12
   9  -9  -3 2678.72 155.567  23
   9   9  -2 4794.81 217.045  16
   9   9  -2 5268.01 222.597  12
   9  -9  -2 4888.03 219.743  23
   9  -9  -2 5090.17 214.224  22
   9   9  -1 4742.19 214.304  16
   9   9  -1 4663.80 211.703  12
   9  -9  -1 4884.07 214.902  23
   9  -9  -1 4926.89 213.038  22
   9   9   0 161.123 43.5880  12
   9  -9   0 233.099 49.2204  23
   9  -9   0 153.193 42.5897  22
   9   9   1 226.468 51.0716  12
   9  -9   1 210.849 46.2057  23
   9  -9   1 238.644 48.3351  22
   9   9   2 879.750 88.2109  12
   9  -9   2 1002.79 92.6707  23
   9  -9   2 864.511 91.9649  22
   9   9   2 1190.55 102.581  22
  -9   9  -3 873.966 94.2682   8
  -9   9  -3 824.558 82.8850  26
  -9  -9  -3 852.768 83.1211  26
   9   9   3 705.310 80.5845  12
   9  -9   3 701.318 82.0756  22
   9   9   3 822.272 85.1503  22
  -9   9  -4 6439.62 263.861   8
  -9   9  -4 6869.31 256.659  26
  -9  -9  -4 6568.52 250.892  26
   9   9   4 7035.33 260.299  22
   9   9   5 40.0927 27.8511  22
  -9   9  -5 56.9305 35.5315  26
  -9   9  -5 13.4471 35.0111   8
  -9  -9  -5 11.2213 28.4848  26
  -9   9  -6 154.673 43.0084   8
  -9   9  -6 192.348 44.7061  26
  -9  -9  -6 141.354 42.9782  26
  -9  -9  -7 270.293 55.9609   9
  -9   9  -7 405.957 55.4686  17
  -9   9  -7 387.887 63.3736   8
  -9   9  -7 379.350 62.5459  26
  -9  -9  -7 386.981 60.5039  26
  -9  -9  -8 1062.19 92.7533   9
  -9   9  -8 1166.91 95.0022   8
  -9   9  -8 1126.96 88.1700  17
  -9   9  -8 1363.70 106.072  26
  -9  -9  -8 1243.94 99.6544  26
  -9  -9  -9 6360.76 218.901   9
  -9   9  -9 6340.88 214.019  17
  -9   9  -9 6486.67 225.056  26
  -9  -9  -9 7070.51 231.152  26
  -9   9 -10 4.51339 17.2440  17
  -9   9 -10 10.5557 23.1958  26
  -9  -9 -10 16.4814 18.8841  26
   9 -10 -10 125.627 26.3579   5
   9  10 -10 108.931 25.3601  24
   9 -10  -9 855.520 71.4354   5
   9  10  -9 973.407 72.9075  25
   9  10  -9 853.388 72.2309  24
   9 -10  -8 2329.64 128.256   5
   9 -10  -8 2319.32 128.705  25
   9  10  -8 2280.62 125.814  25
   9  10  -8 2028.31 116.840  24
   9 -10  -7 758.256 77.9433   5
   9  10  -7 658.306 72.5563  25
   9 -10  -7 715.096 73.5706  25
   9  10  -7 816.479 76.3795  24
   9 -10  -7 743.430 73.9739  23
   9  10  -6 126.068 36.8749  16
   9 -10  -6 133.202 39.8234  25
   9  10  -6 97.8666 39.6491  25
   9  10  -6 132.121 35.7832  24
   9 -10  -6 98.3378 34.8140  23
   9  10  -5 11.3022 27.0700  16
   9 -10  -5 47.7118 27.0265  25
   9 -10  -5-10.6175 28.7858  23
   9  10  -4 106.696 34.4157  22
   9  10  -4 116.262 38.8129  16
   9 -10  -4 118.274 33.1857  25
   9 -10  -4 89.6920 39.5867  23
   9  10  -3 279.035 55.1271  16
   9 -10  -3 236.168 49.9463  27
   9 -10  -3 235.956 42.4559  25
   9  10  -3 294.148 52.8617  12
   9 -10  -3 227.418 51.7669  23
   9  10  -2 155.826 44.6605  16
   9  10  -2 189.049 45.1586  12
   9 -10  -2 209.437 48.4368  23
   9  10  -1 1044.28 99.7702  16
   9  10  -1 1163.77 102.330  12
   9 -10  -1 1070.18 98.4475  23
   9  10   0 490.981 68.5844  16
   9 -10   0 636.188 75.7196  23
   9  10   0 555.485 74.4278  12
   9  10   1 3602.62 180.884  12
   9 -10   1 3607.98 181.401  23
   9 -10   1 3303.43 176.074  22
  -9  10  -2 100.435 39.9730   8
   9  10   2 100.842 35.1498  12
   9 -10   2 133.018 42.9310  23
  -9  10  -3 1234.37 109.670   8
  -9  10  -3 1170.26 98.0587  26
  -9 -10  -3 1240.09 99.2276  26
   9  10   3 1170.46 100.825  12
   9  10   3 1174.66 101.666  22
  -9  10  -4 2316.51 151.151   8
  -9  10  -4 2340.55 141.704  26
  -9 -10  -4 2197.33 138.094  26
   9  10   4 2614.91 151.755  22
  -9  10  -5 5148.52 218.936  26
  -9 -10  -5 5438.32 222.178  26
   9  10   5 5410.82 220.248  22
  -9  10  -6 3.79410 30.7339   8
  -9  10  -6 83.5487 41.4681  26
  -9 -10  -6 25.2265 33.7756  26
  -9 -10  -7 644.825 76.8725   9
  -9  10  -7 734.982 72.4789  17
  -9  10  -7 606.688 74.7834   8
  -9  10  -7 639.622 78.6820  26
  -9 -10  -7 588.945 71.7913  26
  -9 -10  -8 6142.73 225.052   9
  -9  10  -8 5981.81 222.305   8
  -9  10  -8 6127.40 212.370  17
  -9  10  -8 5929.94 224.694  26
  -9 -10  -8 5868.67 222.573  26
  -9 -10  -9 9.45180 27.3083   9
  -9  10  -9 52.9858 30.8764  17
  -9  10  -9 2.34483 18.6310   8
  -9  10  -9 54.3073 32.7012  26
  -9 -10  -9 10.9590 32.9314  26
  -9  10 -10 83.4291 24.1306  17
  -9  10 -10 97.7847 28.7373  26
  -9 -10 -10 121.245 28.5659  26
   9 -11 -10-6.26332 17.0078   5
   9  11 -10 4.62113 19.3483  24
   9 -11  -9 4119.05 159.629   5
   9  11  -9 4300.16 156.639  25
   9  11  -9 3961.54 155.940  24
   9 -11  -8 687.093 69.4245   5
   9  11  -8 748.219 69.5476  25
   9  11  -8 630.410 65.0841  24
   9 -11  -7 419.554 60.3695   5
   9  11  -7 470.234 58.8888  16
   9 -11  -7 475.354 66.4316  25
   9  11  -7 430.517 61.0134  25
   9  11  -7 464.414 57.8451  24
   9 -11  -7 440.744 56.3606  23
   9  11  -6 865.115 83.0993  16
   9 -11  -6 812.247 77.4353  25
   9  11  -6 864.660 83.9791  25
   9  11  -6 841.398 76.9428  24
   9 -11  -6 812.450 81.8807  23
   9  11  -5 725.616 79.9582  16
   9 -11  -5 772.524 78.4919  25
   9 -11  -5 665.661 77.4787  23
   9  11  -4 1927.72 131.566  16
   9 -11  -4 2079.94 131.217  25
   9 -11  -4 2069.00 135.762  23
   9  11  -3 589.095 75.5608  16
   9 -11  -3 708.612 78.3194  27
   9 -11  -3 555.425 67.8190  25
   9  11  -3 737.642 81.8432  12
   9 -11  -3 487.643 67.4195  23
   9  11  -2 2.33035 26.9285  16
   9 -11  -2 58.9020 33.7620  27
   9  11  -2 16.3032 27.3001  12
   9 -11  -2 50.5083 38.1675  23
   9  11  -1-1.97139 29.1867  16
  -9  11   1 15.4846 24.2483   8
   9  11  -1-15.7643 33.2051  12
   9 -11  -1 69.4509 32.9562  23
   9  11   0 327.918 59.0748  16
  -9  11   0 289.317 55.8788   8
   9  11   0 245.203 48.5198  12
   9 -11   0 403.025 63.2429  23
  -9  11  -1 7570.71 281.781   8
   9  11   1 7931.14 284.665  12
   9 -11   1 7548.06 277.257  23
  -9  11  -2 303.020 58.6173   8
   9  11   2 322.937 57.1320  12
   9 -11   2 402.418 63.2916  23
   9  11   3 167.524 48.7094  22
  -9  11  -3 179.073 41.2841  26
  -9  11  -3 112.228 40.5681   8
  -9 -11  -3 200.402 43.4097  26
   9  11   3 142.342 46.1837  12
   9  11   4 550.422 69.6113  22
  -9  11  -4 595.318 73.3584  26
  -9 -11  -4 679.518 77.0579  26
  -9  11  -4 589.021 79.4282   8
   9  11   4 618.263 72.2977  12
  -9  11  -5 5683.58 244.143   8
  -9  11  -5 5944.22 236.446  26
  -9 -11  -5 5979.55 234.894  26
   9  11   5 6327.74 236.874  22
  -9  11  -6 5445.61 231.637   8
  -9  11  -6 5536.01 225.239  26
  -9 -11  -6 5332.91 219.467  26
  -9 -11  -7 53.6906 36.5000   9
  -9  11  -7 66.2455 35.4195   8
  -9  11  -7 45.8059 29.6376  26
  -9 -11  -7 73.6987 40.3099  26
  -9 -11  -8 548.952 64.8175   9
  -9  11  -8 637.183 70.2622   8
  -9  11  -8 627.585 63.6911  17
  -9 -11  -8 568.760 66.3326  26
  -9  11  -8 503.328 63.2659  26
  -9 -11  -9 1527.15 93.9577   9
  -9  11  -9 1518.28 90.7137   8
  -9  11  -9 1400.31 87.3447  17
  -9  11  -9 1730.67 103.443  26
  -9 -11  -9 1721.90 102.369  26
  -9  11 -10 1991.50 93.4721  17
  -9 -11 -10 2030.98 98.3929  26
   9 -12 -10 199.628 28.4057   5
   9  12 -10 183.678 28.1270  24
   9 -12  -9 69.4786 25.6678   5
   9  12  -9 35.7694 19.4474  25
   9  12  -9 57.6263 24.2965  24
   9 -12  -8 12.6254 24.2625   5
   9  12  -8-13.7045 26.5376  25
   9 -12  -7 170.910 41.9067   5
   9  12  -7 229.886 40.2816  16
   9  12  -7 165.426 41.2864  25
   9  12  -7 252.762 42.8121  24
   9 -12  -7 215.904 40.0445  23
   9  12  -6 96.0242 28.3184  16
   9 -12  -6 225.920 58.1225  25
   9  12  -6 175.144 44.0430  25
   9  12  -6 176.926 37.7352  24
   9 -12  -6 72.8462 31.9939  23
   9  12  -5 14.9052 25.1700  16
   9 -12  -5 74.5092 38.0978  25
   9 -12  -5 17.3424 29.0472  23
   9  12  -4 1131.74 100.972  16
   9 -12  -4 1298.71 101.032  25
   9  12  -4 1499.55 110.519  12
   9 -12  -4 1305.93 109.335  23
   9  12  -3 6610.65 263.803  16
   9 -12  -3 7999.65 276.990  27
   9 -12  -3 7551.04 257.725  25
   9  12  -3 7178.18 265.879  12
   9 -12  -3 6816.04 266.445  23
   9  12  -2 743.381 85.4917  16
   9 -12  -2 688.241 80.7072  27
   9  12  -2 547.708 73.0661  12
   9 -12  -2 573.551 76.4007  23
   9  12  -1 290.518 55.7206  16
   9 -12  -1 288.045 57.9463  27
   9  12  -1 338.914 60.6059  12
   9 -12  -1 403.077 64.2065  23
   9  12   0 2329.16 150.799  16
  -9  12   0 2743.86 157.706   8
   9  12   0 2481.78 151.089  12
   9 -12   0 2568.24 154.056  23
  -9  12  -1 4445.75 208.011   8
   9  12   1 4469.86 207.949  12
   9 -12   1 4805.68 213.115  23
  -9  12  -2 1203.52 108.048   8
  -9  12  -2 1243.25 99.8650  26
   9  12   2 1175.14 103.695  12
   9 -12   2 1248.79 106.085  23
   9  12   3 373.232 61.2184  22
  -9  12  -3 430.383 64.1878  26
  -9  12  -3 510.837 75.6150   8
  -9 -12  -3 410.205 60.8053  26
   9  12   3 475.032 68.3576  12
   9  12   4 104.524 33.9793  22
  -9  12  -4 133.912 40.0919  26
  -9  12  -4 98.8383 43.3926   8
  -9 -12  -4 107.666 36.5633  26
   9  12   4 71.3153 34.2593  12
  -9  12  -5 2935.47 169.779   8
  -9  12  -5 3201.38 167.006  26
  -9 -12  -5 2982.64 159.622  26
   9  12   5 3323.09 163.761  22
  -9  12  -6 1035.48 99.9949   8
   9 -12   6 1123.09 97.4774  27
  -9  12  -6 1010.90 92.8083  26
  -9 -12  -6 966.023 88.9488  26
  -9 -12  -7 1666.83 113.785   9
  -9  12  -7 1680.42 117.192   8
  -9  12  -7 1648.88 113.484  26
  -9 -12  -7 1748.21 115.439  26
  -9 -12  -8 510.291 58.7674   9
  -9  12  -8 535.068 55.2704  17
  -9  12  -8 478.847 58.4726   8
  -9 -12  -8 545.197 64.3461  26
  -9  12  -8 482.412 59.5635  26
  -9 -12  -9 951.410 70.5208   9
  -9  12  -9 937.511 69.5656   8
  -9  12  -9 842.294 65.0077  17
  -9 -12  -9 902.882 74.0399  26
  -9 -12 -10 941.085 63.4045  26
   9 -13  -9 202.355 34.3077   5
   9  13  -9 218.465 32.3711  25
   9  13  -9 254.417 35.7030  24
   9 -13  -8 8.49377 23.2606   5
   9  13  -8-14.3039 22.6594  25
   9  13  -8-19.2039 22.0132  24
   9 -13  -7 633.301 68.6392   5
   9  13  -7 582.939 62.4336  16
   9  13  -7 765.086 71.6810  25
   9  13  -7 585.350 59.5412  24
   9 -13  -7 629.927 63.1346  23
   9  13  -6 1512.58 107.605  16
   9  13  -6 1446.38 103.941  25
   9 -13  -6 1485.37 105.972  23
   9  13  -5 265.759 50.2514  16
   9 -13  -5 189.245 47.2948  23
   9  13  -4 242.117 50.5449  16
   9  13  -4 279.896 52.7777  12
   9 -13  -4 250.092 49.1863  23
   9  13  -3 1057.79 100.221  16
   9 -13  -3 1125.81 100.603  27
   9 -13  -3 1334.30 100.283  25
   9  13  -3 1121.68 98.1455  12
   9 -13  -3 1127.90 102.417  23
   9  13  -2 139.923 43.5795  16
   9 -13  -2 163.502 48.4862  27
   9  13  -2 78.4551 34.6382  12
   9 -13  -2 152.069 45.1555  23
   9  13  -1 50.5284 37.9984  16
   9 -13  -1 30.5296 33.7066  27
   9  13  -1 52.2419 33.8636  12
   9 -13  -1 10.2421 34.5243  23
   9  13   0 5438.05 234.840  16
   9 -13   0 5162.72 230.664  27
   9  13   0 5402.01 231.527  12
   9 -13   0 5465.09 231.785  23
  -9  13  -1 1180.92 104.656   8
   9  13   1 1136.47 103.681  12
   9 -13   1 1223.86 106.629  23
  -9  13  -2 12299.5 374.902   8
   9  13   2 11725.4 364.137  12
   9 -13   2 12402.4 366.782  23
   9  13   3 82.5200 38.2191  22
  -9  13  -3 53.3241 31.9430   8
  -9 -13  -3 83.1810 35.6622  26
   9  13   3 33.1346 28.5611  12
  -9  13  -4 1039.89 100.892   8
  -9  13  -4 1009.68 93.2089  26
  -9 -13  -4 979.858 91.2101  26
   9  13   4 1043.41 92.5173  12
   9  13   4 1029.44 92.6117  22
   9  13   5 426.325 59.6719  22
   9 -13   5 261.255 52.0169  27
  -9  13  -5 314.275 61.5988   8
  -9  13  -5 304.965 52.5805  26
  -9 -13  -5 423.208 62.5150  26
  -9  13  -6 2938.37 162.963   8
   9 -13   6 3507.71 168.269  27
  -9  13  -6 3329.74 165.584  26
  -9 -13  -6 3229.14 161.510  26
  -9 -13  -7 7.73806 30.4410   9
  -9  13  -7 8.40238 28.4834  26
  -9  13  -7 22.9507 31.6988   8
  -9 -13  -7 26.4945 29.9007  26
  -9 -13  -8 722.397 68.0230   9
  -9  13  -8 800.238 73.2322   8
  -9  13  -8 675.036 59.3541  17
  -9 -13  -8 725.573 69.0177  26
  -9 -13  -9 281.018 39.3445   9
  -9  13  -9 285.287 39.2921   8
  -9 -13  -9 307.479 43.9823  26
   9 -14  -9 230.245 35.4807   5
   9  14  -9 189.242 30.3114  24
   9 -14  -8 163.375 35.8486   5
   9  14  -8 130.990 32.2472  25
   9  14  -8 122.451 27.7209  24
   9 -14  -7 6.57076 26.6252   5
   9  14  -7 35.2510 26.2170  16
   9  14  -7 23.7239 24.9446  25
   9  14  -7-14.2009 22.6658  24
   9 -14  -7 34.9511 21.3895  23
   9 -14  -6 1238.62 98.0152   5
   9  14  -6 1254.93 98.0130  16
   9  14  -6 1276.27 94.9829  25
   9 -14  -6 1210.12 93.2319  23
   9  14  -5 879.174 85.6373  16
   9 -14  -5 1003.54 92.4484  23
   9  14  -4 146.063 46.1652  16
   9  14  -4 149.464 43.0206  12
   9 -14  -4 121.733 42.7158  23
   9  14  -3 895.882 91.1877  16
   9 -14  -3 795.052 82.3890  27
   9  14  -3 942.629 88.7984  12
   9 -14  -3 809.177 85.7268  23
   9  14  -2 1589.50 122.560  16
   9 -14  -2 1786.26 125.881  27
   9  14  -2 1621.32 120.680  12
   9 -14  -2 1805.30 128.127  23
   9  14  -1 194.064 47.9755  16
   9 -14  -1 129.414 38.4013  27
   9  14  -1 166.867 47.8416  12
   9 -14  -1 130.048 40.8128  23
  -9  14   0 1511.35 114.266   8
   9  14   0 1303.55 111.514  16
   9 -14   0 1298.68 111.540  27
   9  14   0 1261.99 109.144  12
   9 -14   0 1552.42 117.039  23
  -9  14  -1 1041.02 95.3314   8
   9 -14   1 1224.11 107.161  27
   9  14   1 994.664 96.4620  12
   9 -14   1 1010.86 97.0950  23
   9 -14   2 614.257 80.8495  27
  -9  14  -2 556.236 72.1021   8
   9  14   2 558.328 74.1367  12
   9 -14   2 593.802 72.3905  23
  -9  14  -3 695.425 81.0299   8
   9 -14   3 762.723 88.7330  27
  -9 -14  -3 808.199 80.8686  26
   9  14   3 793.075 84.3636  12
  -9  14  -4 1504.54 117.992   8
   9 -14   4 1420.43 114.499  27
  -9 -14  -4 1505.16 109.035  26
   9  14   4 1576.43 111.390  12
   9  14   4 1563.01 111.727  22
  -9  14  -5 9619.61 320.874   8
   9 -14   5 9613.55 311.867  27
  -9 -14  -5 9729.42 304.642  26
   9  14   5 10024.9 299.649  22
   9 -14   6 463.314 60.0880  27
  -9  14  -6 369.899 62.4421   8
  -9 -14  -6 366.076 55.1762  26
  -9 -14  -7-0.05322 28.5377   9
  -9  14  -7-31.5610 34.9620   8
  -9 -14  -7-9.98283 28.9548  26
  -9 -14  -8-14.0612 24.6056   9
  -9  14  -8-2.76352 23.1267   8
  -9 -14  -8-8.59117 23.0450  26
  -9 -14  -9 46.0715 20.0490   9
  -9  14  -9 32.0976 18.6319   8
  -9 -14  -9 81.9872 26.6776  26
   9 -15  -9 2970.08 113.620   5
   9 -15  -8 55.6137 23.7037   5
   9  15  -8 73.3467 22.1411  16
   9  15  -8 31.2788 21.2579  25
   9  15  -8 39.1813 20.1048  24
   9 -15  -7 269.766 42.6555   5
   9  15  -7 311.795 45.4993  16
   9  15  -7 261.473 42.1621  25
   9  15  -7 272.476 39.1239  24
   9 -15  -7 239.136 38.7324  23
   9 -15  -6 1353.34 97.2645   5
   9  15  -6 1241.42 95.5744  16
   9  15  -6 1457.38 99.1962  25
   9 -15  -6 1325.71 93.8227  23
   9  15  -5 14.1141 28.0360  16
   9 -15  -5 55.6262 35.6162  23
   9  15  -4 3749.59 181.751  16
   9  15  -4 3946.88 178.028  12
   9 -15  -4 3546.08 176.373  23
   9  15  -3 23.5095 33.7286  16
   9 -15  -3 14.8955 32.6870  27
   9  15  -3-16.9303 30.4682  12
   9 -15  -3 44.6883 38.1836  23
   9  15  -2 982.294 94.6493  16
   9 -15  -2 962.776 93.3271  27
   9  15  -2 1016.95 95.2528  12
   9 -15  -2 1021.34 98.5879  23
   9  15  -1 525.215 73.3336  16
   9 -15  -1 391.588 65.6071  27
   9  15  -1 523.838 70.1196  12
   9 -15  -1 506.689 70.3527  23
   9  15   0 4290.26 201.511  16
   9 -15   0 3846.97 194.132  27
   9 -15   0 4187.75 197.085  23
  -9  15  -1 796.465 84.7272   8
   9 -15   1 585.875 78.4393  27
   9  15   1 619.844 77.3789  12
   9 -15   1 561.674 73.6694  23
  -9  15  -2 817.424 84.3164   8
   9 -15   2 653.744 82.3413  27
   9  15   2 734.915 82.9570  12
   9 -15   2 652.082 74.4218  23
  -9  15  -3 2265.30 143.669   8
   9 -15   3 2143.68 140.527  27
  -9 -15  -3 2518.72 140.013  26
   9  15   3 2292.89 138.755  12
  -9  15  -4 2901.95 161.738   8
   9 -15   4 2584.43 151.252  27
  -9 -15  -4 2557.85 141.880  26
   9  15   4 2602.19 142.957  12
   9  15   4 2588.27 143.745  22
   9  15   5 6.73036 22.7052  22
   9 -15   5-26.8905 26.7048  27
  -9  15  -5 55.9219 41.6005   8
  -9 -15  -5 20.9524 25.4566  26
  -9  15  -6 644.062 74.0424   8
   9 -15   6 538.293 61.3912  27
  -9 -15  -6 636.895 67.3555  26
  -9 -15  -7 267.154 43.9706   9
  -9  15  -7 319.490 51.6997   8
  -9 -15  -7 287.355 44.6088  26
  -9 -15  -8 2099.21 106.032   9
  -9  15  -8 2188.13 111.656   8
  -9 -15  -8 1999.41 105.889  26
  -9 -15  -9 1987.30 93.6261  26
   9 -16  -8 1667.16 89.4558   5
   9  16  -8 1639.20 83.4111  16
   9  16  -8 1537.67 79.6663  25
   9  16  -8 1434.64 73.5571  24
   9 -16  -7-5.78982 23.5137   5
   9  16  -7-0.49185 21.4063  16
   9  16  -7-15.8958 23.3413  25
   9 -16  -6 191.128 39.9405   5
   9  16  -6 245.744 45.2882  16
   9  16  -6 225.993 42.9436  25
   9 -16  -6 200.558 39.6555  23
   9  16  -5-1.78772 27.1706  16
   9 -16  -5 1.65061 25.9736  23
   9  16  -4 67.4337 36.4304  16
   9  16  -4 94.5004 32.3951  12
   9 -16  -4 41.5014 33.2306  23
   9  16  -3 33.8510 34.1447  16
   9 -16  -3 7.77877 27.2141  27
   9  16  -3 26.7288 25.8081  12
   9 -16  -3 33.1018 34.5927  23
   9  16  -2 1.42937 29.4158  16
   9 -16  -2 61.1280 29.7385  27
   9  16  -2 76.9811 37.8902  12
   9 -16  -2 22.2105 32.0106  23
   9  16  -1 6206.37 243.850  16
   9 -16  -1 5969.03 238.971  27
   9  16  -1 5636.01 233.314  12
   9 -16  -1 6022.53 239.975  23
   9  16   0 1496.15 114.980  16
   9 -16   0 1526.50 119.115  27
   9  16   0 1359.12 112.668  12
   9 -16   0 1558.12 117.139  23
   9 -16   1 456.673 67.2699  27
  -9  16  -1 504.027 66.1796   8
   9 -16   1 610.113 72.5009  23
   9  16   1 406.839 63.3495  12
  -9  16  -2 808.147 85.8129   8
   9 -16   2 770.280 84.5245  27
   9  16   2 875.828 89.1683  12
   9 -16   2 831.382 82.0631  23
  -9  16  -3 3124.58 165.575   8
   9 -16   3 3033.86 163.986  27
  -9 -16  -3 2949.63 149.991  26
   9  16   3 2982.21 157.432  12
   9 -16   4 647.878 76.0897  27
  -9  16  -4 472.701 66.2832   8
  -9 -16  -4 633.031 68.2361  26
   9  16   4 608.469 68.8243  12
   9  16   4 603.813 68.1597  22
   9  16   5 433.646 54.6919  22
   9 -16   5 436.249 59.1506  27
  -9  16  -5 332.637 54.4375   8
  -9 -16  -5 365.675 53.4729  26
   9 -16   6 381.220 51.3922  27
  -9  16  -6 358.697 53.9000   8
  -9 -16  -6 399.056 53.1043  26
  -9 -16  -7 2093.30 111.167   9
  -9  16  -7 1838.07 110.607   8
  -9 -16  -7 1839.56 104.684  26
  -9 -16  -8 4.53749 16.7747   9
  -9  16  -8 9.43299 19.0773   8
  -9 -16  -8 16.2697 19.7344  26
   9 -17  -8 295.502 36.7414   5
   9 -17  -7 1685.26 95.2985   5
   9  17  -7 1826.62 98.9032  16
   9  17  -7 1772.66 92.8523  25
   9 -17  -6 27.2362 24.8196   5
   9  17  -6 24.3633 25.1688  16
   9  17  -6 18.9251 23.3119  25
   9 -17  -6 18.6432 22.8451  23
   9  17  -5 4936.56 198.537  16
   9 -17  -5 5080.82 196.154  23
   9  17  -4 14.0417 30.3677  16
   9  17  -4 17.9274 26.3058  12
   9 -17  -4 5.82200 33.6469  23
   9  17  -3 139.124 43.5040  16
   9 -17  -3 62.7756 31.7411  27
   9  17  -3 57.3426 29.8966  12
   9 -17  -3 66.8664 38.6985  23
   9  17  -2 498.707 70.4130  16
   9 -17  -2 571.145 69.8954  27
   9  17  -2 548.789 70.8599  12
   9 -17  -2 487.613 68.5381  23
   9  17  -1 6913.31 255.189  16
   9 -17  -1 6376.27 246.737  27
   9  17  -1 5972.18 239.320  12
   9 -17  -1 7311.85 259.527  23
   9 -17   0 247.250 53.7255  27
   9  17   0 329.514 61.7023  12
   9 -17   0 274.272 53.1765  23
  -9  17  -1 782.899 80.2790   8
   9 -17   1 673.384 79.3791  27
   9  17   1 811.756 85.9771  12
   9 -17   1 666.095 73.8110  23
  -9  17  -2 973.081 89.0114   8
   9 -17   2 954.657 91.9929  27
   9  17   2 1004.83 92.3900  12
   9 -17   2 965.416 86.1633  23
   9 -17   3-7.69329 31.1394  27
  -9  17  -3 47.6513 32.3131   8
  -9 -17  -3 21.1268 21.3190  26
   9  17   3 67.7107 30.2809  12
  -9  17  -4 1853.15 121.135   8
   9 -17   4 1804.78 120.509  27
  -9 -17  -4 1987.68 117.086  26
   9  17   4 1750.71 110.242  12
   9  17   4 2117.44 120.962  22
   9 -17   5 581.246 64.9942  27
  -9  17  -5 497.720 65.0183   8
  -9 -17  -5 577.512 63.4322  26
  -9  17  -6 1565.13 103.823   8
  -9 -17  -6 1511.55 96.9100  26
  -9 -17  -7 278.196 40.5310   9
  -9  17  -7 296.051 44.3539   8
  -9 -17  -7 207.550 36.3472  26
  -9 -17  -8 811.083 56.1296   9
  -9  17  -8 802.496 59.8167   8
  -9 -17  -8 828.848 60.2332  26
   9 -18  -7 2346.68 106.178   5
   9  18  -7 2383.02 108.777  16
   9  18  -7 2343.79 100.727  25
   9 -18  -6 356.122 46.0798   5
   9  18  -6 432.938 52.7607  16
   9  18  -6 487.567 52.5771  25
   9 -18  -5 129.515 35.3037   5
   9  18  -5 110.241 34.7462  16
   9 -18  -5 114.704 35.3519  23
   9  18  -4 331.087 54.9805  16
   9  18  -4 385.692 52.8258  12
   9 -18  -4 388.683 58.0842  23
   9  18  -3 829.620 85.1881  16
   9 -18  -3 826.799 75.6915  27
   9  18  -3 807.051 77.7575  12
   9 -18  -3 942.195 86.4110  23
   9  18  -2 126.353 40.5060  16
   9 -18  -2 146.300 39.1541  27
   9  18  -2 72.3899 31.5366  12
   9 -18  -2 85.4860 38.7409  23
   9  18  -1 60.5168 33.9020  16
   9 -18  -1 2.25820 31.4399  27
   9  18  -1 11.6255 31.1845  12
   9 -18  -1 52.4663 45.7232  23
   9 -18   0 999.412 92.4956  27
   9  18   0 888.837 86.8866  12
   9 -18   0 951.621 88.4772  23
  -9  18  -1 2878.74 146.726   8
   9 -18   1 2792.28 156.150  27
   9  18   1 2765.88 153.207  12
   9 -18   1 3061.41 155.154  23
   9 -18   2 465.633 65.5915  27
  -9  18  -2 408.817 56.1226   8
   9  18   2 426.145 60.9734  12
  -9  18  -3 527.978 66.2964   8
   9 -18   3 674.207 74.4417  27
  -9 -18  -3 584.842 61.7414  26
   9  18   3 491.700 61.0622  12
   9  18   3 556.420 64.4534  22
   9  18   4 127.459 37.0398  22
   9 -18   4 125.693 38.6496  27
  -9  18  -4 27.7958 26.6803   8
  -9 -18  -4 83.0080 28.1531  26
   9  18   4 87.6416 33.3601  12
  -9  18  -5 780.326 74.0331   8
   9 -18   5 762.335 69.5603  27
  -9 -18  -5 782.839 69.2490  26
  -9  18  -6 66.6039 31.3352   8
  -9 -18  -6 56.5018 23.4617  26
  -9 -18  -7 30.8276 18.8506   9
  -9  18  -7 47.6264 22.1764   8
  -9 -18  -7 51.2490 22.9902  26
   9 -19  -7 589.167 48.2960   5
   9  19  -7 665.772 52.1525  16
   9 -19  -6 112.433 27.4438   5
   9  19  -6 97.8344 29.0161  16
   9  19  -6 130.182 27.9685  25
   9 -19  -5 164.590 34.4196   5
   9  19  -5 168.157 39.1257  16
   9  19  -4 6839.33 233.995  16
   9 -19  -4 6871.58 228.560  23
   9  19  -3 319.725 51.7849  16
   9 -19  -3 280.183 45.6844  27
   9  19  -3 232.113 43.7584  12
   9 -19  -3 355.449 55.3986  23
   9  19  -2 979.088 87.8042  16
   9 -19  -2 1006.06 85.9549  27
   9  19  -2 1006.44 85.5440  12
   9 -19  -2 1004.68 88.0084  23
   9  19  -1 125.801 32.8965  16
   9 -19  -1 115.561 39.8951  27
   9 -19  -1 114.549 39.8105  23
   9  19  -1 95.8378 38.6547  12
   9 -19   0 317.028 57.9463  27
   9 -19   0 352.185 56.3391  23
   9  19   0 312.678 55.2714  12
  -9  19  -1 5729.09 204.267   8
   9 -19   1 5440.90 217.403  27
   9  19   1 5421.23 212.713  12
   9 -19   2 170.714 45.0208  27
  -9  19  -2 180.149 39.4802   8
   9  19   2 119.814 42.6232  12
   9 -19   3 442.876 59.5114  27
  -9  19  -3 370.150 54.5703   8
  -9 -19  -3 509.630 56.1671  26
   9  19   3 385.911 53.8057  12
   9  19   4 6.64572 22.6184  22
   9 -19   4-24.1192 31.0230  27
  -9  19  -4-27.7337 26.3994   8
  -9 -19  -4-23.7849 23.8448  26
   9  19   4-22.2508 24.3262  12
   9 -19   5 67.2614 23.0960  27
  -9  19  -5 74.8826 26.5457   8
  -9 -19  -5 132.640 31.7850  26
  -9  19  -6 846.144 69.2700   8
  -9 -19  -6 847.255 64.9124  26
  -9 -19  -7 43.5750 19.9566   9
  -9  19  -7 57.3974 22.4581   8
  -9 -19  -7 48.8436 17.5414  26
   9 -20  -6 673.886 52.4621   5
   9  20  -6 813.768 61.3664  16
   9  20  -6 712.144 52.5032  25
   9 -20  -5 280.877 40.7618   5
   9  20  -5 269.780 42.5909  16
   9 -20  -4 1402.87 87.6322   5
   9  20  -4 1587.43 99.8346  16
   9  20  -3 635.891 66.7156  16
   9 -20  -3 773.712 66.9163  27
   9  20  -3 806.730 70.5118  12
   9  20  -2 4121.01 173.633  16
   9 -20  -2 4008.96 168.413  27
   9  20  -2 4026.03 169.257  12
   9 -20  -1 1086.92 88.8816  27
   9  20  -1 1121.34 91.1664  12
   9 -20   0 254.605 51.1926  27
   9  20   0 206.352 48.4994  12
   9 -20   1 1078.24 89.8756  27
   9  20   1 963.641 84.1776  12
  -9  20  -2 3000.09 138.822   8
   9 -20   2 3229.37 152.674  27
   9  20   2 2849.46 140.073  12
   9  20   3 162.031 35.4655  22
   9 -20   3 131.844 38.8757  27
  -9  20  -3 139.305 34.9793   8
  -9 -20  -3 154.658 31.7630  26
   9  20   3 114.156 33.2073  12
   9  20   4 13.7387 18.9415  22
   9 -20   4 4.33611 24.1649  27
  -9  20  -4 21.0046 20.9258   8
  -9 -20  -4 0.35884 17.6206  26
   9  20   4-5.70680 18.7013  12
  -9  20  -5 578.534 57.6623   8
   9 -20   5 486.074 47.5499  27
  -9 -20  -5 590.456 52.6198  26
  -9 -20  -6 11.2557 17.7360   9
  -9  20  -6 16.4657 18.6657   8
  -9 -20  -6 1.01958 16.0484  26
   9 -21  -5 134.579 26.6836   5
   9  21  -5 130.104 29.1503  16
   9  21  -5 122.965 25.9207  25
   9  21  -4 36.0374 18.9468  22
   9 -21  -4 46.2097 20.1871   5
   9  21  -4 35.5795 22.7787  16
   9  21  -3-22.3444 21.2263  16
   9 -21  -3-0.11815 19.3360  27
   9  21  -3 13.7060 20.4098  12
   9 -21  -2 682.022 64.0599  27
   9  21  -2 663.752 65.1207  12
   9 -21  -1 2696.66 132.614  27
   9  21  -1 2579.09 130.794  12
   9 -21   0 1121.67 86.6903  27
   9  21   0 1100.43 84.4403  12
   9 -21   1 60.6685 31.5607  27
   9  21   1 72.7356 32.2823  12
  -9  21  -2 4078.90 152.744   8
   9 -21   2 4039.74 165.640  27
   9  21   2 4116.49 163.271  12
  -9  21  -3 484.974 51.9251   8
   9 -21   3 469.485 53.9383  27
   9  21   3 474.291 51.6309  12
   9  21   3 485.037 52.4161  22
  -9  21  -4 2618.46 117.338   8
   9 -21   4 2595.41 115.008  27
  -9 -21  -4 2463.02 107.192  26
   9  21   4 2519.45 105.590  22
  -9  21  -5 55.6043 22.1114   8
  -9 -21  -5 52.0444 21.1515  26
   9 -22  -4 478.050 42.9133   5
   9 -22  -3 3861.00 136.977   5
   9 -22  -3 4228.70 143.926  27
   9 -22  -2 881.957 66.9384  27
   9  22  -2 764.686 64.5937  12
   9 -22  -1 117.147 32.5741  27
   9  22  -1 194.051 38.4925  12
   9 -22   0 2564.47 122.506  27
   9  22   0 2328.65 117.766  12
   9 -22   1 395.837 50.1767  27
   9  22   1 359.862 47.7760  12
   9  22   2 67.7174 24.1050  22
   9 -22   2 59.4836 25.6082  27
   9  22   2 100.569 29.3160  12
  -9  22  -3 1099.30 69.3713   8
   9 -22   3 1186.71 76.5308  27
   9  22   3 1063.75 70.4402  12
   9  22   3 1132.94 70.5492  22
  -9  22  -4 12.8273 15.3223   8
  -9  23   3-21.0457 20.7499  11
   9 -23  -2 56.5804 20.8930  27
   9  23  -2 67.4677 24.2658  12
   9 -23  -1 407.723 45.2522  27
   9  23  -1 340.612 42.0265  12
   9 -23   0 28.3774 23.0353  27
   9  23   0 15.0525 20.4397  12
   9 -23   1 2203.88 105.101  27
   9  23   1 2173.13 104.034  12
   9  23   1 2011.24 99.1632  22
   9  23   2 13.4346 16.8767  22
   9 -23   2 14.2518 18.3101  27
   9  23   2 13.0680 17.4507  12
   9 -23   3 4202.56 138.363  27
  -9  24   1 70.9916 22.1328  11
   9  24  -1 98.6507 25.3682  22
   9 -24  -1 113.348 24.9608  27
   9  24  -1 95.7091 25.2666  12
   9 -24   0 6542.60 184.265  27
   9  24   0 6610.67 185.675  12
   9  24   0 6624.98 184.481  22
  -9  24   0 6394.48 182.404  11
   9 -24   1 69.5661 21.8848  27
   9  24   1 111.205 25.7826  12
  10   0 -10 6938.07 208.970  25
  10   0 -10 7670.79 214.679  24
  10   0  -9 35.4554 30.2879  25
  10   0  -9 68.9838 32.7688  24
  10   0  -8 2261.26 127.421  25
  10   0  -8 2168.34 120.298  24
  10   0  -7 20.1500 33.3111  25
  10   0  -7 14.2591 27.3730  24
  10   0  -7-9.40445 26.0493  23
  10   0  -6 3904.00 180.788  25
  10   0  -6 3740.80 174.113  24
  10   0  -6 3684.54 178.308  23
  10   0  -5-48.9439 38.7160  25
  10   0  -5-44.2955 36.8993  24
  10   0  -4 600.801 70.6341  25
  10   0  -3-10.2510 26.3270  25
  10   0  -2 471.918 66.3783  22
  10   0  -2 567.521 69.2576  25
  10   0  -1-65.6995 34.8636  22
  10   0   0 2.09298 28.5578  22
  10   0   1-19.0472 34.9038  22
  10   0   2 22.8665 33.0606  22
  10   0   3 34.1040 36.6547  22
 -10   0  -3-25.9979 28.1736   9
 -10   0  -4 4934.15 213.957   9
 -10   0  -4 4866.96 208.198  26
  10   0   4 4524.12 209.773  22
  10   0   5-28.9754 30.9902  22
 -10   0  -5 19.7691 31.0937   9
 -10   0  -5-20.6176 37.7102  26
 -10   0  -6 2108.40 137.059   9
 -10   0  -6 2160.40 135.017  26
  10   0   6 2135.78 135.544  22
 -10   0  -7 20.0006 27.1874  26
 -10   0  -8 3015.90 154.007  26
 -10   0  -9-35.4809 30.6963  26
 -10   0 -10 3390.18 139.031  26
  10  -1 -10 653.065 57.3951  25
  10   1 -10 587.995 55.8330  25
  10  -1  -9 38.9966 29.4890  25
  10   1  -9 10.0356 27.1675  25
  10   1  -9 18.7176 27.5605  24
  10  -1  -8 69.2374 35.5662  25
  10   1  -8 64.9557 32.2299  25
  10  -1  -8 93.2432 35.1205  24
  10   1  -8 23.0540 27.5249  24
  10  -1  -7 14.5158 31.0223  25
  10   1  -7-2.65279 31.3057  25
  10  -1  -7 19.0510 27.9680  24
  10   1  -7-34.4463 29.8980  24
  10  -1  -7 50.3088 27.5323  23
  10   1  -7-31.7677 29.8923  23
  10  -1  -6 120.193 42.9059  25
  10   1  -6 88.1127 37.3416  25
  10  -1  -6 115.357 32.2968  24
  10   1  -6 115.355 29.6143  24
  10  -1  -6 48.0418 30.5836  23
  10  -1  -5 516.704 65.1925  25
  10   1  -5 438.514 61.7778  25
  10  -1  -5 478.000 61.8044  24
  10   1  -5 431.071 58.3415  24
  10  -1  -5 401.123 61.6931  23
  10  -1  -4 62.6625 29.0993  25
  10   1  -4 0.72028 31.6001  25
  10   1  -3 225.600 46.0758  22
  10  -1  -3 143.393 40.1409  25
  10   1  -3 140.577 40.2785  25
  10  -1  -2 2401.01 138.419  25
  10   1  -2 2416.83 138.108  25
  10  -1  -2 2436.13 144.078  22
  10   1  -2 2454.17 144.457  22
  10  -1  -1 616.327 74.7132  22
  10   1  -1 679.253 79.3757  22
  10  -1   0 689.999 77.7649  22
  10   1   0 676.217 77.6542  22
  10  -1   1 1297.85 108.494  22
  10   1   1 1278.92 107.027  22
  10  -1   2 929.359 87.3135  23
  10  -1   2 890.508 91.8980  22
  10   1   2 851.466 88.6463  22
 -10   1  -3 18311.5 472.924   9
 -10  -1  -3 18696.8 477.916   9
  10  -1   3 18379.8 486.387  22
  10   1   3 18109.3 484.043  22
 -10   1  -4 6034.79 242.531   9
 -10  -1  -4 6380.48 249.294   9
 -10   1  -4 6159.69 239.956  26
 -10  -1  -4 6633.03 246.087  26
  10  -1   4 6445.47 254.263  22
  10   1   4 6409.10 252.656  22
  10  -1   5 143.929 42.1407  22
  10   1   5 114.881 42.5205  22
 -10   1  -5 148.607 45.2431   9
 -10  -1  -5 95.3942 35.2106   9
 -10   1  -5 85.6038 34.5859  26
 -10  -1  -5 124.280 37.5755  26
 -10   1  -6 827.727 84.2959   9
 -10  -1  -6 792.301 84.4197   9
 -10   1  -6 1044.49 93.3693  26
 -10  -1  -6 874.091 86.0074  26
  10  -1   6 859.103 86.8524  22
  10   1   6 991.566 91.8744  22
 -10  -1  -7 89.6148 42.4205   9
 -10   1  -7 106.361 40.3410  26
 -10   1  -7 122.298 39.6643   8
 -10  -1  -7 133.562 47.8563  26
 -10   1  -8 480.442 66.8200  26
 -10  -1  -8 427.585 60.9111  26
 -10   1  -9-7.25273 28.0162  26
 -10  -1  -9 13.5452 29.2181  26
 -10   1 -10 1222.71 76.0146  17
 -10   1 -10 1253.34 82.2336  26
 -10  -1 -10 1306.14 84.5717  26
  10  -2 -10 144.632 30.4951  25
  10   2 -10 136.819 30.0871  25
  10   2 -10 229.736 40.9576  24
  10  -2  -9 3130.87 142.870  25
  10   2  -9 3108.10 141.976  25
  10   2  -9 3112.31 139.966  24
  10  -2  -8 209.981 46.3469  25
  10   2  -8 184.546 39.8347  25
  10   2  -8 204.221 40.6417  24
  10  -2  -7 1473.72 108.949  25
  10   2  -7 1450.75 106.047  25
  10  -2  -7 1402.69 102.899  24
  10   2  -7 1433.13 102.425  24
  10  -2  -7 1508.83 106.103  23
  10   2  -7 1491.98 104.822  23
  10  -2  -6 833.354 83.2623  25
  10   2  -6 736.244 79.6193  25
  10  -2  -6 797.058 77.5866  24
  10   2  -6 751.540 74.6090  24
  10  -2  -6 861.279 83.9156  23
  10  -2  -5 2134.93 132.569  25
  10   2  -5 2078.08 132.407  25
  10  -2  -5 2177.44 130.475  24
  10   2  -5 2042.70 125.017  24
  10  -2  -5 2076.69 135.246  23
  10  -2  -4 350.963 56.9534  25
  10   2  -4 306.895 52.2023  25
  10  -2  -4 287.652 52.4418  23
  10   2  -3 109.587 33.0629  22
  10  -2  -3 59.2216 30.2494  25
  10   2  -3 46.9278 29.9836  25
  10  -2  -2 5785.02 221.770  25
  10   2  -2 5611.83 222.990  25
  10  -2  -2 5933.56 232.246  22
  10   2  -2 5315.41 223.190  22
  10  -2  -1 229.365 49.6961  22
  10   2  -1 285.421 53.8345  22
  10   2  -1 285.184 48.0155  25
  10  -2   0 1135.69 100.828  22
  10   2   0 1059.71 98.8019  22
  10  -2   1-21.0499 34.9440  22
  10   2   1-2.83603 29.3855  22
  10  -2   1 1.61778 25.8368  23
 -10  -2  -2 5973.54 230.805   9
  10  -2   2 6429.07 242.371  23
  10  -2   2 5601.43 237.984  22
  10   2   2 5918.14 242.019  22
 -10   2  -3 11460.2 340.503   9
 -10  -2  -3 10867.9 337.201   9
  10  -2   3 11026.3 350.003  22
 -10   2  -4 1990.80 132.654   9
 -10  -2  -4 2099.07 136.514   9
 -10   2  -4 2181.55 135.546  26
 -10  -2  -4 2095.80 132.075  26
  10  -2   4 2076.78 139.442  22
  10   2   4 2153.03 140.692  22
 -10   2  -5 1012.47 93.5382   9
 -10  -2  -5 1141.83 101.009   9
 -10   2  -5 1075.52 96.0607  26
 -10  -2  -5 1221.20 101.791  26
  10  -2   5 1045.05 98.8969  22
  10   2   5 1130.46 100.065  22
  10   2   6-16.2440 29.8361  22
 -10  -2  -6 26.8664 31.9554   9
 -10   2  -6 55.4294 33.5005  26
 -10  -2  -6 6.16356 27.5160  26
 -10   2  -6 79.8112 40.1503   8
  10  -2   6 1.99105 31.0950  22
 -10  -2  -7 11709.4 350.334   9
 -10   2  -7 11291.3 340.362   8
 -10   2  -7 11550.0 344.348  26
 -10  -2  -7 11673.7 346.439  26
 -10   2  -8 1353.86 101.895  26
 -10  -2  -8 1255.46 97.9399  26
 -10   2  -9 230.742 46.2694  26
 -10  -2  -9 237.794 47.1751  26
 -10   2 -10 265.288 36.3788  17
 -10   2 -10 264.270 40.6330  26
 -10  -2 -10 250.512 38.2988  26
  10   3 -10 172.628 31.6330  25
  10   3 -10 153.034 33.1628  24
  10  -3  -9 3993.56 163.777  25
  10   3  -9 4246.51 166.654  25
  10   3  -9 3953.43 161.418  24
  10  -3  -8 2185.20 125.527  25
  10   3  -8 2178.72 125.371  25
  10   3  -8 1963.23 117.390  24
  10  -3  -7 134.087 42.8822  25
  10   3  -7 116.049 39.0444  25
  10   3  -7 74.6129 32.0693  24
  10  -3  -7 106.981 32.2418  23
  10   3  -7 162.137 35.9098  23
  10  -3  -6 1810.84 120.623  25
  10   3  -6 1609.73 114.344  25
  10  -3  -6 2045.79 125.915  24
  10   3  -6 1623.65 109.776  24
  10  -3  -6 1841.98 123.222  23
  10  -3  -5 262.345 54.5952  25
  10   3  -5 290.424 51.0264  25
  10  -3  -5 449.561 71.9697  24
  10  -3  -5 275.144 50.8971  23
  10  -3  -4 952.225 89.9762  25
  10   3  -4 914.255 86.6479  25
  10  -3  -4 872.267 90.2907  23
  10   3  -3-31.9869 26.2434  22
  10  -3  -3-30.3852 30.6715  25
  10   3  -3-0.06467 25.3403  25
  10  -3  -3-23.8447 30.6856  23
  10  -3  -2 1527.38 110.124  25
  10   3  -2 1487.26 109.252  25
  10  -3  -2 1438.57 113.541  23
  10  -3  -2 1394.60 108.646  22
  10   3  -2 1424.81 108.569  22
  10   3  -1 904.922 83.4451  25
  10  -3  -1 889.435 88.3594  23
  10  -3  -1 751.904 83.8771  22
  10   3  -1 880.303 87.9199  22
  10  -3   0-29.8575 36.3100  22
  10   3   0-10.6693 30.3341  22
  10  -3   0 25.6503 28.6775  23
  10  -3   1 1451.71 112.091  23
  10  -3   1 1499.30 116.753  22
  10   3   1 1351.63 109.928  22
  10  -3   2 20713.5 513.334  23
  10  -3   2 19502.0 517.899  22
  10   3   2 20325.1 522.042  22
 -10  -3  -3 10200.0 326.733   9
  10  -3   3 10322.7 338.395  22
  10   3   3 10283.5 335.208  22
  10  -3   4-16.7540 39.0088  22
  10   3   4 9.85491 34.3646  22
 -10  -3  -4 30.9413 27.7681   9
 -10   3  -4 12.4317 25.3026  26
 -10  -3  -4-6.69179 28.2206  26
 -10  -3  -5 719.962 80.2718   9
 -10   3  -5 751.413 79.7454  26
 -10  -3  -5 840.412 83.7660  26
  10  -3   5 797.766 86.3917  22
  10   3   5 806.207 82.9798  22
 -10  -3  -6 2464.30 148.454   9
 -10   3  -6 2313.14 144.633   8
 -10   3  -6 2413.78 143.392  26
 -10  -3  -6 2607.76 148.517  26
  10  -3   6 2571.83 148.402  22
  10   3   6 2470.32 143.093  22
 -10  -3  -7 120.661 42.7920   9
 -10   3  -7 94.1062 35.0904   8
 -10   3  -7 115.485 46.7368  26
 -10  -3  -7 138.994 46.1061  26
 -10  -3  -8 6.69465 31.2696   9
 -10   3  -8-18.5405 32.6213  26
 -10  -3  -8 3.26115 28.3614  26
 -10   3  -9 1721.03 98.8025  17
 -10   3  -9 1736.09 106.514  26
 -10  -3  -9 1658.81 104.148  26
 -10   3 -10-22.3338 19.8136  17
 -10   3 -10-9.56563 22.3372  26
 -10  -3 -10-1.72393 22.4808  26
  10  -4 -10 59.7997 22.7780  25
  10   4 -10 81.0410 24.3630  25
  10   4 -10 108.093 25.8944  24
  10  -4  -9 2688.48 129.731  25
  10   4  -9 2887.88 133.305  25
  10   4  -9 2721.49 128.312  24
  10   4  -8 653.247 71.7986  25
  10  -4  -8 461.040 66.0507  25
  10   4  -8 517.320 62.4991  24
  10  -4  -7 311.743 57.0032  25
  10   4  -7 289.001 54.0815  25
  10   4  -7 179.330 40.1380  24
  10  -4  -7 262.848 47.2060  23
  10  -4  -6 4014.44 183.868  25
  10   4  -6 3780.05 180.566  25
  10   4  -6 3939.22 174.635  24
  10  -4  -6 3694.46 179.196  23
  10  -4  -5 42.5513 35.0791  25
  10   4  -5 63.3214 34.6237  25
  10  -4  -5 36.8638 28.4724  23
  10  -4  -4 3483.80 170.360  25
  10   4  -4 3487.10 173.278  25
  10  -4  -4 3220.32 172.087  23
  10  -4  -3 2929.96 154.476  25
  10   4  -3 2895.40 156.468  25
  10  -4  -3 2853.73 162.363  23
  10   4  -3 2985.98 158.093  22
  10  -4  -2 68.1889 26.7089  22
  10   4  -2 128.648 34.7596  22
  10   4  -2 101.524 35.1849  25
  10  -4  -2 129.940 37.6534  23
  10  -4  -1 443.317 63.8570  22
  10   4  -1 393.561 57.9781  22
  10   4  -1 598.795 67.4611  25
  10  -4  -1 463.028 64.0983  23
  10  -4   0 51.6365 28.0404  22
  10   4   0 56.1576 34.8718  22
  10  -4   0 36.1435 26.9633  23
  10  -4   1 86.7752 36.6496  22
  10   4   1 31.1048 29.3114  22
  10  -4   1 11.9081 29.6047  23
 -10  -4  -2 5753.45 225.520   9
  10  -4   2 5397.47 222.756  23
  10  -4   2 5002.85 223.717  22
  10   4   2 5069.52 223.977  22
 -10  -4  -3 1631.12 119.266   9
  10  -4   3 1530.61 119.410  22
  10   4   3 1723.09 126.521  22
  10   4   4 78.5472 35.9857  22
 -10  -4  -4 125.314 44.5879   9
 -10   4  -4 101.486 33.0342  26
 -10  -4  -4 57.5173 29.9141  26
  10  -4   4 107.264 45.5569  22
  10   4   5 174.663 48.7635  22
 -10  -4  -5 115.002 36.4392   9
 -10   4  -5 165.506 42.2444  26
 -10  -4  -5 92.3920 31.8190  26
  10  -4   5 132.482 41.8597  22
 -10  -4  -6 6611.74 252.713   9
 -10   4  -6 6689.66 258.392   8
 -10   4  -6 6691.72 250.577  26
 -10  -4  -6 6841.54 251.759  26
  10  -4   6 6865.45 254.841  22
  10   4   6 6896.90 251.047  22
 -10  -4  -7 100.597 38.6452   9
 -10   4  -7 86.9070 31.2470   8
 -10   4  -7 34.8320 30.3824  26
 -10  -4  -7 60.9018 29.8866  26
 -10  -4  -8 187.202 46.1850   9
 -10   4  -8 170.381 43.9270  26
 -10  -4  -8 147.259 40.9119  26
 -10   4  -9 113.009 28.1576  17
 -10   4  -9 109.306 34.5935  26
 -10  -4  -9 145.037 40.3708  26
 -10   4 -10 3.77084 15.8593  17
 -10   4 -10-18.4413 24.0222  26
 -10  -4 -10 7.09175 19.5812  26
  10   5 -10 30.8378 19.3653  25
  10   5 -10-16.5165 24.1688  24
  10  -5  -9 1928.18 107.201  25
  10   5  -9 1933.95 104.507  25
  10   5  -9 1820.35 102.048  24
  10  -5  -8 7948.21 254.586  25
  10   5  -8 8068.12 254.910  25
  10   5  -8 7638.85 245.266  24
  10  -5  -7 239.422 48.1645  25
  10   5  -7 206.805 51.5604  25
  10   5  -7 166.614 35.3439  24
  10  -5  -7 192.838 41.0290  23
  10  -5  -6 44.7568 30.1064  25
  10   5  -6-21.2922 38.7027  25
  10   5  -6-49.7313 36.6898  24
  10  -5  -6 0.76333 26.6736  23
  10  -5  -5 6072.08 232.931  25
  10   5  -5 6072.76 233.692  25
  10  -5  -5 5537.61 228.763  23
  10  -5  -4 1234.88 101.153  25
  10   5  -4 1371.79 108.212  25
  10  -5  -4 1285.59 109.159  23
  10  -5  -3 6734.04 248.164  25
  10   5  -3 6575.30 247.348  25
  10  -5  -3 6292.22 251.720  23
  10   5  -3 6779.21 250.439  22
  10   5  -2 2839.03 152.895  25
  10  -5  -2 2798.07 160.222  23
  10  -5  -2 2780.12 155.107  22
  10   5  -2 2665.82 153.003  22
  10  -5  -1 18.9542 26.1517  22
  10   5  -1 74.6727 32.6978  22
  10   5  -1 10.2382 23.6483  25
  10  -5   0 6978.62 260.993  23
  10  -5   0 6913.36 261.112  22
  10   5   0 6413.46 253.348  22
  10  -5   1 12410.6 368.481  23
  10  -5   1 11860.6 369.658  22
  10   5   1 12081.7 369.337  22
 -10  -5  -2 3332.50 169.949   9
  10  -5   2 3600.98 178.060  23
  10  -5   2 3411.51 180.399  22
  10   5   2 3416.25 179.368  22
  10   5   3 26.8841 31.3528  22
 -10  -5  -3 6.42726 26.2199   9
  10  -5   3 21.5777 35.6081  22
 -10  -5  -4 901.474 90.0270   9
 -10   5  -4 1016.61 92.4509  26
 -10  -5  -4 898.324 85.9150  26
  10  -5   4 1020.65 97.6443  22
  10   5   4 1013.64 94.9662  22
 -10  -5  -5 1887.55 129.546   9
 -10   5  -5 1758.79 133.125   8
 -10   5  -5 2046.37 131.615  26
 -10  -5  -5 1942.06 127.244  26
  10  -5   5 1900.03 133.171  22
  10   5   5 1997.44 131.170  22
  10   5   6 488.915 64.0433  22
 -10  -5  -6 452.488 66.5403   9
 -10   5  -6 478.374 65.4824  26
 -10   5  -6 491.389 71.0152   8
 -10  -5  -6 479.530 64.9247  26
 -10  -5  -7 121.415 36.8418   9
 -10   5  -7 119.180 36.8442   8
 -10   5  -7 78.3750 32.2884  26
 -10  -5  -7 104.914 39.7880  26
 -10  -5  -8 1622.76 110.610   9
 -10   5  -8 1749.49 106.640   8
 -10   5  -8 1838.39 105.825  17
 -10   5  -8 1487.23 104.806  26
 -10  -5  -8 1720.36 111.104  26
 -10   5  -9 1039.39 74.2440  17
 -10   5  -9 1035.14 81.1774  26
 -10  -5  -9 1087.84 82.4599  26
 -10   5 -10 661.503 52.3209  17
 -10   5 -10 768.096 61.8606  26
 -10  -5 -10 860.112 63.5321  26
  10   6 -10 221.994 31.3869  25
  10   6 -10 112.644 25.0374  24
  10  -6  -9-20.7080 30.7458  25
  10   6  -9 63.9537 25.0534  25
  10   6  -9 24.6422 21.7267  24
  10  -6  -8 98.6155 37.8067  25
  10   6  -8 107.620 39.3002  25
  10   6  -8 39.4449 26.7779  24
  10  -6  -7 171.609 36.4001   5
  10  -6  -7 187.906 43.1737  25
  10   6  -7 266.179 51.6421  25
  10   6  -7 173.593 38.6535  24
  10  -6  -7 244.861 46.1239  23
  10  -6  -6-12.7070 27.3446   5
  10  -6  -6 7.11372 30.2472  25
  10   6  -6 32.0548 30.2101  25
  10   6  -6-51.8653 27.9884  24
  10  -6  -6-38.0700 30.7824  23
  10  -6  -5-36.1114 31.6046  25
  10   6  -5 1.88166 33.3451  25
  10  -6  -5-28.4194 32.4206  23
  10  -6  -4 727.007 78.9641  25
  10   6  -4 622.292 74.6619  25
  10  -6  -4 593.880 74.3612  23
  10   6  -3 29.2920 27.9529  22
  10  -6  -3 77.8805 36.2949  25
  10   6  -3 6.32107 32.3573  25
  10  -6  -3 2.75789 30.9306  23
  10  -6  -2 7205.58 273.136  23
  10  -6  -2 8037.98 276.286  22
  10   6  -2 7354.54 269.506  22
  10  -6  -1 1949.76 131.824  23
  10  -6  -1 1680.67 121.003  22
  10   6  -1 1719.28 123.261  22
  10  -6   0 4085.22 194.302  23
  10  -6   0 3962.29 193.785  22
  10   6   0 4116.42 197.463  22
  10  -6   1 3972.87 190.259  23
  10  -6   1 3621.80 186.702  22
  10   6   1 3861.25 191.272  22
  10   6   2 527.662 68.7152  22
  10  -6   2 536.030 67.6585  23
  10  -6   2 465.675 71.5913  22
  10  -6   3 4834.15 221.614  22
  10   6   3 4873.73 219.499  22
  10   6   4 348.387 62.8084  22
 -10  -6  -4 382.017 62.5862   9
 -10   6  -4 429.500 61.4843  26
 -10  -6  -4 418.946 60.8798  26
  10  -6   4 380.844 72.2049  22
 -10  -6  -5 2726.59 157.979   9
 -10   6  -5 2933.62 170.112   8
 -10   6  -5 3198.69 164.803  26
 -10  -6  -5 3222.65 164.903  26
  10  -6   5 2857.60 163.818  22
  10   6   5 3213.73 166.974  22
 -10  -6  -6 781.784 83.5273   9
 -10   6  -6 891.020 88.8076   8
 -10   6  -6 853.699 84.5736  26
 -10  -6  -6 894.343 85.9464  26
  10   6   6 838.075 79.6655  22
 -10  -6  -7 2271.70 137.818   9
 -10   6  -7 2263.70 134.737   8
 -10   6  -7 2540.00 142.676  26
 -10  -6  -7 2362.55 136.069  26
 -10  -6  -8 455.196 62.0986   9
 -10   6  -8 446.190 52.5256  17
 -10   6  -8 453.974 55.3441   8
 -10   6  -8 435.356 58.5915  26
 -10  -6  -8 407.056 59.0988  26
 -10   6  -9 30.7359 20.3082  17
 -10   6  -9 42.4935 30.5136  26
 -10  -6  -9 48.0499 28.5212  26
 -10   6 -10 168.611 31.5942  26
 -10  -6 -10 151.104 30.8060  26
  10  -7 -10 574.820 58.6481  25
  10   7 -10-9.88292 20.1928  24
  10  -7  -9 528.119 57.0580  25
  10   7  -9 455.952 50.2463  25
  10   7  -9 391.360 45.7241  24
  10  -7  -8 142.355 31.0402   5
  10  -7  -8 135.987 38.2854  25
  10   7  -8 153.086 39.9860  25
  10   7  -8 86.0861 26.7357  24
  10  -7  -7 1602.12 104.233   5
  10  -7  -7 1666.81 112.649  25
  10   7  -7 1673.10 110.175  25
  10   7  -7 1683.64 104.989  24
  10  -7  -7 1655.15 107.868  23
  10  -7  -6 948.371 83.0589   5
  10  -7  -6 833.661 83.3219  25
  10   7  -6 876.703 84.8077  25
  10   7  -6 921.761 78.9804  24
  10  -7  -6 849.092 83.7805  23
  10  -7  -5 7293.03 257.070  25
  10   7  -5 7215.49 257.801  25
  10  -7  -5 6830.74 257.800  23
  10  -7  -4 1241.74 99.3791  25
  10   7  -4 1217.48 101.623  25
  10  -7  -4 1141.61 101.680  23
  10  -7  -3 1939.37 123.768  25
  10   7  -3 1920.21 127.948  25
  10  -7  -3 1829.17 129.117  23
  10   7  -3 2042.16 129.723  22
  10   7  -2 524.184 70.1202  22
  10  -7  -2 494.681 70.8337  23
  10  -7  -2 499.823 65.5865  22
  10  -7  -1 1078.05 100.009  23
  10  -7  -1 1161.04 101.513  22
  10   7  -1 1115.02 101.152  22
  10  -7   0 3510.49 179.227  23
  10  -7   0 3145.06 170.974  22
  10   7   0 3256.86 173.096  22
  10   7   1 12.9680 32.7970  22
  10  -7   1 49.9817 35.4237  22
  10  -7   2 3874.60 184.619  23
  10  -7   2 3391.30 183.335  22
  10   7   2 3709.04 187.342  22
 -10   7  -3 29941.4 647.892  26
  10  -7   3 27958.3 664.394  22
  10   7   3 28325.0 659.695  22
 -10  -7  -4 4752.27 211.063   9
 -10   7  -4 4588.80 219.132   8
 -10   7  -4 5221.37 215.575  26
 -10  -7  -4 5192.28 213.301  26
  10  -7   4 4686.89 217.206  22
  10   7   4 5002.13 216.679  22
 -10  -7  -5 1567.00 117.208   9
 -10   7  -5 1652.05 125.276   8
 -10   7  -5 1511.15 111.774  26
 -10  -7  -5 1577.54 112.852  26
  10   7   5 1573.47 114.013  22
  10   7   6 49.7032 36.0580  22
 -10  -7  -6-0.91103 33.6846   9
 -10   7  -6 44.4300 32.0633   8
 -10   7  -6 13.2832 27.3854  26
 -10  -7  -6 37.3585 30.7074  26
 -10  -7  -7 363.890 59.6359   9
 -10   7  -7 393.583 58.4323   8
 -10   7  -7 445.649 61.4075  26
 -10  -7  -7 457.680 61.8286  26
 -10  -7  -8 1908.08 116.523   9
 -10   7  -8 1983.15 113.292   8
 -10   7  -8 1896.40 115.643  26
 -10  -7  -8 1729.55 110.136  26
 -10   7  -9 3802.76 141.676  17
 -10   7  -9 4014.31 159.025  26
 -10  -7  -9 3963.65 157.075  26
 -10   7 -10 471.373 47.1668  26
 -10  -7 -10 535.608 50.0719  26
  10  -8  -9 27.1087 18.9804   5
  10   8  -9 34.7423 21.1135  25
  10  -8  -8 11.3257 18.0620   5
  10  -8  -8 111.298 34.1381  25
  10   8  -8 73.8798 32.6218  25
  10   8  -8-8.38213 28.6790  24
  10  -8  -7 248.780 43.4480   5
  10  -8  -7 251.340 45.8814  25
  10   8  -7 182.140 42.9800  25
  10   8  -7 187.080 36.2476  24
  10  -8  -7 202.658 40.9997  23
  10  -8  -6 4809.64 198.280   5
  10  -8  -6 4905.35 203.202  25
  10   8  -6 5406.88 210.960  25
  10  -8  -6 5203.44 209.453  23
  10  -8  -5 2558.97 143.105  25
  10   8  -5 2511.86 145.656  25
  10  -8  -5 2364.62 142.419  23
  10  -8  -4 25.0077 25.8356  25
  10   8  -4 106.998 40.6162  25
  10  -8  -4 46.1759 36.3139  23
  10   8  -3 28.6239 25.2721  22
  10  -8  -3-41.4847 31.8841  25
  10  -8  -3 15.1979 30.4321  23
  10   8  -2 317.123 56.8660  22
  10  -8  -2 323.958 60.4733  23
  10  -8  -2 313.812 55.6933  22
  10  -8  -1 17033.3 461.488  23
  10  -8  -1 17228.1 457.353  22
  10   8  -1 16846.3 457.367  22
  10   8   0 67.4033 42.8817  22
  10  -8   0 17.9541 29.0572  23
  10  -8   0 129.349 44.3949  22
  10  -8   1 8355.67 300.190  22
  10   8   1 8458.45 300.846  22
  10   8   2 383.918 70.4027  22
  10  -8   2 467.583 69.1321  23
  10  -8   2 373.361 68.3594  22
 -10   8  -3 13447.0 374.359  26
  10  -8   3 12892.6 389.780  22
  10   8   3 12542.4 382.483  22
 -10   8  -4 4640.04 217.030   8
 -10   8  -4 4628.50 202.026  26
 -10  -8  -4 4621.43 201.216  26
  10   8   4 4754.21 208.733  22
 -10  -8  -5 2062.11 133.937   9
 -10   8  -5 1882.63 134.261   8
 -10   8  -5 2323.80 138.423  26
 -10  -8  -5 2157.43 131.749  26
  10   8   5 2138.54 132.449  22
 -10  -8  -6 1890.75 128.578   9
 -10   8  -6 1858.01 128.836   8
 -10   8  -6 1964.83 125.475  26
 -10  -8  -6 1833.82 122.250  26
  10   8   6 1944.46 119.727  22
 -10  -8  -7 422.935 62.5800   9
 -10   8  -7 438.673 61.9647   8
 -10   8  -7 481.709 62.9555  26
 -10  -8  -7 501.050 62.4187  26
 -10  -8  -8 282.901 51.2457   9
 -10   8  -8 333.547 49.0990   8
 -10   8  -8 283.900 52.0921  26
 -10  -8  -8 354.894 54.1698  26
 -10  -8  -9 1013.71 73.9261   9
 -10   8  -9 942.537 64.4165  17
 -10   8  -9 936.304 72.9143  26
 -10  -8  -9 977.247 74.1564  26
 -10   8 -10 721.206 55.4929  26
 -10  -8 -10 737.177 54.9326  26
  10  -9  -9 255.073 34.0808   5
  10   9  -9 214.537 34.3435  25
  10   9  -9 208.183 30.8821  24
  10  -9  -8 4111.14 156.873   5
  10  -9  -8 3947.85 159.870  25
  10   9  -8 4069.78 160.624  25
  10   9  -8 3754.41 148.959  24
  10  -9  -7 82.9993 29.6324   5
  10  -9  -7 35.1605 29.3269  25
  10   9  -7 28.1259 30.3184  25
  10   9  -7 100.610 29.3079  24
  10  -9  -7 98.2723 33.4495  23
  10  -9  -6 1067.17 88.3999   5
  10  -9  -6 1038.18 89.1660  25
  10   9  -6 1176.59 95.3131  25
  10  -9  -6 1067.88 92.8732  23
  10   9  -5 180.832 42.1721  16
  10  -9  -5 192.560 47.2585  25
  10   9  -5 166.260 49.0538  25
  10  -9  -5 144.295 43.5780  23
  10   9  -4 2836.54 156.093  16
  10  -9  -4 2809.09 150.307  25
  10   9  -4 3063.32 160.445  25
  10  -9  -4 2693.79 157.053  23
  10   9  -3-11.0823 27.4992  22
  10  -9  -3-6.99219 23.9602  25
  10  -9  -2 991.463 95.8476  23
  10   9  -2 985.113 91.9009  22
  10   9  -1 267.134 51.0947  22
  10  -9  -1 271.400 56.8409  23
  10   9   0 124.724 41.6667  22
  10  -9   0 86.1818 35.3306  23
  10  -9   0 96.1004 34.5814  22
  10  -9   1 1878.06 129.160  23
  10  -9   1 1508.37 121.301  22
  10   9   1 1668.65 126.046  22
  10  -9   2 11481.2 347.598  23
  10   9   2 10786.0 349.075  22
 -10   9  -3 5063.74 228.993   8
 -10   9  -3 4857.74 205.259  26
  10   9   3 5201.13 220.876  22
 -10   9  -4 824.533 93.4718   8
 -10   9  -4 878.667 84.2394  26
 -10  -9  -4 883.199 85.9190  26
  10   9   4 822.884 85.8113  22
 -10  -9  -5 1024.42 94.7015   9
 -10   9  -5 1087.11 99.6654   8
 -10   9  -5 1004.76 90.6888  26
 -10  -9  -5 1057.88 91.8612  26
  10   9   5 1150.22 96.1334  22
 -10  -9  -6 8999.49 299.997   9
 -10   9  -6 9836.83 316.320   8
 -10   9  -6 9768.14 302.948  26
 -10  -9  -6 9728.68 300.922  26
 -10  -9  -7 285.272 53.2340   9
 -10   9  -7 257.392 46.4912   8
 -10   9  -7 263.141 49.1733  26
 -10  -9  -7 257.175 49.2751  26
 -10  -9  -8 3433.68 153.076   9
 -10   9  -8 3707.99 155.045   8
 -10   9  -8 3576.09 156.870  26
 -10  -9  -8 3461.61 152.943  26
 -10  -9  -9-0.50728 19.1833   9
 -10   9  -9 27.3269 24.5096  26
 -10  -9  -9 53.5753 24.8589  26
  10 -10  -9 2934.34 112.723   5
  10  10  -9 2979.19 115.759  25
  10  10  -9 2665.85 108.345  24
  10 -10  -8 752.988 64.2278   5
  10  10  -8 882.895 71.2354  25
  10  10  -8 712.924 59.5844  24
  10 -10  -7 3663.86 157.951   5
  10 -10  -7 3500.12 154.943  25
  10  10  -7 3804.51 162.027  25
  10  10  -7 3510.90 145.827  24
  10 -10  -7 3726.17 156.996  23
  10 -10  -6 286.975 47.8903   5
  10 -10  -6 237.445 42.2198  25
  10  10  -6 343.830 54.0344  25
  10 -10  -6 289.413 51.1521  23
  10  10  -5 101.099 33.6302  16
  10 -10  -5 169.019 41.6528  25
  10  10  -5 201.646 47.3612  25
  10 -10  -5 197.444 46.8697  23
  10  10  -4 2302.21 141.385  16
  10 -10  -4 2384.97 136.478  25
  10 -10  -4 2278.07 142.261  23
  10  10  -3 728.179 81.8767  16
  10 -10  -3 847.865 79.7943  25
  10 -10  -3 743.716 84.9593  23
  10  10  -3 801.277 80.5029  22
  10 -10  -2 2108.89 136.694  27
  10 -10  -2 2110.05 139.243  23
  10  10  -2 2047.78 132.421  22
  10  10  -1 190.166 44.6081  22
 -10  10   1 277.572 50.9853   8
  10 -10  -1 232.112 51.4559  23
 -10  10   0 873.180 89.8098   8
  10 -10   0 790.446 86.2126  23
  10  10   0 752.714 83.7617  22
  10  10   1 308.801 61.8328  22
 -10  10  -1 392.578 65.6601   8
  10 -10   1 430.897 65.8987  23
 -10  10  -2 10614.3 342.529   8
  10 -10   2 10101.5 322.381  23
  10  10   2 9605.10 324.140  22
  10  10   3 253.203 51.6439  22
 -10  10  -3 329.862 53.1372  26
 -10  10  -3 356.684 65.5881   8
  10  10   4 328.926 56.0456  22
 -10  10  -4 265.306 48.5470  26
 -10  10  -4 202.234 55.1812   8
 -10 -10  -4 314.456 54.8818  26
  10  10   5-5.77421 24.9246  22
 -10 -10  -5-1.54581 33.5791   9
 -10  10  -5 15.5791 36.2857   8
 -10  10  -5 34.5316 28.1023  26
 -10 -10  -5 13.1536 26.9323  26
 -10 -10  -6 391.783 61.4618   9
 -10  10  -6 522.858 66.5176  26
 -10  10  -6 386.214 63.1677   8
 -10 -10  -6 377.419 56.3673  26
 -10 -10  -7 4036.09 174.314   9
 -10  10  -7 3807.93 173.133   8
  10 -10   7 3918.93 164.691  27
 -10  10  -7 3877.78 170.185  26
 -10 -10  -7 3822.28 167.251  26
 -10 -10  -8 1278.61 88.5977   9
 -10  10  -8 1430.36 91.4241   8
 -10  10  -8 1313.22 91.7992  26
 -10 -10  -8 1333.25 91.2605  26
 -10 -10  -9 254.925 37.9486   9
 -10  10  -9 192.949 35.5018  26
 -10 -10  -9 268.894 39.6840  26
  10 -11  -9 491.888 43.3879   5
  10  11  -9 399.351 38.7081  25
  10 -11  -8 323.251 42.1402   5
  10  11  -8 331.564 44.6097  25
  10 -11  -7 371.150 49.7618   5
  10  11  -7 427.547 55.1296  25
  10 -11  -7 394.156 50.2315  23
  10 -11  -6 158.055 40.3791   5
  10  11  -6 133.701 33.8771  16
  10 -11  -6 274.481 52.0921  25
  10  11  -6 109.845 36.1844  25
  10 -11  -6 183.404 42.2704  23
  10  11  -5 1012.20 88.4730  16
  10 -11  -5 907.469 81.4190  25
  10  11  -5 1142.93 93.2092  25
  10 -11  -5 989.941 88.9164  23
  10  11  -4 2003.86 129.981  16
  10 -11  -4 1698.11 111.048  25
  10 -11  -4 1846.07 125.456  23
  10  11  -4 2019.39 121.469  22
  10  11  -3 329.490 52.8459  22
  10  11  -3 360.556 60.7665  16
  10 -11  -3 399.896 59.8100  27
  10 -11  -3 320.514 56.9844  23
  10  11  -2 28.0860 29.9898  22
  10 -11  -2 46.4472 25.1864  27
  10 -11  -2 25.9378 32.4918  23
  10  11  -1 36.9907 32.3102  22
 -10  11   1 19.9025 24.8537   8
  10 -11  -1 24.9475 31.2824  23
 -10  11   0 1321.64 108.077   8
  10  11   0 1082.99 98.7403  12
  10 -11   0 1177.32 102.710  23
  10  11   0 1161.55 102.455  22
  10  11   1 117.317 43.8548  22
 -10  11  -1 178.016 44.2601   8
  10 -11   1 187.292 49.8626  23
 -10  11  -2 4476.82 207.652   8
  10 -11   2 4356.52 195.266  23
  10  11   2 3869.65 192.596  22
  10  11   3 166.350 47.4728  22
 -10  11  -3 187.164 42.2879  26
 -10  11  -3 195.455 52.4553   8
 -10  11  -4 5287.98 228.098   8
 -10  11  -4 5556.70 217.137  26
 -10 -11  -4 5357.71 211.423  26
  10  11   4 5552.66 220.943  22
 -10  11  -5 4157.64 196.457   8
 -10  11  -5 4065.68 181.058  26
 -10 -11  -5 3965.21 177.973  26
  10  11   5 4183.39 181.882  22
 -10 -11  -6 65.1282 35.6565   9
  10 -11   6 46.1690 31.9258  27
 -10  11  -6 30.7497 32.5444   8
 -10  11  -6 29.0657 30.0383  26
 -10 -11  -6 16.9141 27.2472  26
 -10 -11  -7 257.041 46.6973   9
 -10  11  -7 327.546 52.4578   8
 -10  11  -7 299.887 50.3742  26
 -10 -11  -7 328.771 49.5562  26
 -10 -11  -8 153.033 35.3104   9
 -10  11  -8 145.127 36.3616  26
 -10  11  -8 150.122 32.7184   8
 -10 -11  -8 211.462 38.2991  26
 -10 -11  -9 1889.80 91.0357   9
 -10 -11  -9 1872.31 93.5454  26
  10 -12  -8 1873.84 96.7893   5
  10  12  -8 1934.48 97.0818  25
  10  12  -8 1627.35 81.8156  24
  10 -12  -7 1245.51 87.6219   5
  10  12  -7 1228.16 86.1654  25
  10 -12  -7 1186.94 81.5737  23
  10 -12  -6 1539.21 103.758   5
  10  12  -6 1696.03 105.928  16
  10 -12  -6 1915.58 118.667  25
  10  12  -6 1638.18 105.403  25
  10 -12  -6 1533.85 103.088  23
  10  12  -5 318.796 52.9501  16
  10  12  -5 242.602 44.8533  25
  10 -12  -5 296.692 54.1896  23
  10  12  -4 1121.89 97.0955  16
  10 -12  -4 1153.68 93.4317  25
  10 -12  -4 1019.13 94.2381  23
  10  12  -4 1146.95 89.1073  22
  10  12  -3 218.257 46.1598  22
  10  12  -3 185.211 47.5708  16
  10 -12  -3 155.087 37.4664  27
  10 -12  -3 129.339 40.1983  23
  10 -12  -2 1577.93 115.829  27
  10 -12  -2 1544.71 118.980  23
  10  12  -2 1660.86 118.238  22
  10 -12  -1 1196.81 103.868  27
  10  12  -1 1296.79 108.275  12
  10 -12  -1 1207.33 104.117  23
  10  12  -1 1347.04 109.467  22
  10  12   0 7.33095 38.9157  22
  10 -12   0 60.8341 36.9686  27
 -10  12   0 72.5121 35.4744   8
  10  12   0 25.6115 33.7756  12
  10 -12   0 32.6141 33.9024  23
  10  12   1 158.166 43.4446  22
 -10  12  -1 263.180 54.3438   8
  10  12   1 195.533 50.3743  12
  10 -12   1 189.833 46.2570  23
  10  12   2 118.161 42.2424  22
 -10  12  -2 99.1461 40.6953   8
  10 -12   2 180.066 44.8693  23
  10  12   3 450.115 65.3337  22
 -10  12  -3 557.311 72.7545   8
 -10  12  -4 896.509 91.2812   8
 -10  12  -4 966.969 86.4266  26
 -10 -12  -4 999.020 84.5821  26
  10  12   4 959.979 86.9172  22
  10  12   5 90.2320 33.8444  22
  10 -12   5 88.1903 37.9115  27
 -10  12  -5 113.643 31.9260  26
 -10  12  -5 112.141 42.6298   8
 -10 -12  -5 80.9973 32.2487  26
 -10 -12  -6 1415.09 101.572   9
 -10  12  -6 1556.18 110.226   8
  10 -12   6 1410.19 100.622  27
 -10  12  -6 1408.12 99.5238  26
 -10 -12  -6 1493.85 100.856  26
 -10 -12  -7-0.14767 23.9137   9
 -10  12  -7 5.47887 28.3938   8
 -10 -12  -7 13.8862 26.9298  26
 -10 -12  -8 20.2596 19.5062   9
 -10  12  -8 41.7055 20.6161   8
 -10 -12  -8 16.0087 20.4630  26
 -10 -12  -9 290.153 35.7858  26
  10 -13  -8 1763.57 90.6965   5
  10  13  -8 1836.69 90.7726  25
  10 -13  -7 112.239 32.0491   5
  10  13  -7 78.5268 30.9754  25
  10 -13  -7 83.0740 24.8142  23
  10 -13  -6 516.648 60.7234   5
  10  13  -6 439.655 54.9610  16
  10  13  -6 492.095 60.0021  25
  10 -13  -6 383.032 51.9817  23
  10  13  -5 350.425 51.4128  16
  10  13  -5 332.936 53.7489  25
  10 -13  -5 333.157 53.9088  23
  10  13  -4 141.875 38.5136  22
  10  13  -4 52.6626 29.2070  16
  10 -13  -4 166.016 45.8971  23
  10  13  -3 14.9503 25.2505  22
  10  13  -3 7.47491 27.0559  16
  10 -13  -3 40.3475 26.8676  27
  10 -13  -3 51.2068 38.0160  23
  10  13  -2 153.161 42.4119  22
  10 -13  -2 170.261 41.1664  27
  10 -13  -2 131.162 41.5358  23
  10 -13  -1 2869.04 159.187  27
  10  13  -1 2908.78 159.555  12
  10 -13  -1 3035.64 165.401  23
  10  13  -1 3026.03 163.619  22
  10  13   0 115.874 39.8152  22
  10 -13   0 60.2185 33.3894  27
 -10  13   0 98.0648 37.1708   8
  10  13   0 127.340 36.9896  12
  10 -13   0 74.7690 36.1349  23
 -10  13  -1 1053.07 96.0328   8
  10 -13   1 847.340 93.2163  27
  10  13   1 782.633 86.7931  12
  10 -13   1 904.724 87.1956  23
  10  13   1 771.341 84.1812  22
  10  13   2 15.7379 31.8329  22
  10 -13   2 62.8167 47.3230  27
 -10  13  -2 69.2468 33.1055   8
  10  13   2 38.0941 29.4274  12
  10 -13   2 30.2202 25.9610  23
 -10  13  -3 7190.81 265.059   8
  10 -13   3 7080.24 264.827  27
  10  13   3 6957.63 253.510  22
  10  13   4 211.241 46.2108  22
  10 -13   4 201.023 49.8516  27
 -10  13  -4 170.193 40.9322   8
 -10 -13  -4 212.015 40.7147  26
  10  13   5 234.298 44.6473  22
  10 -13   5 253.809 50.3665  27
 -10  13  -5 219.770 49.1360   8
 -10 -13  -5 250.631 43.5343  26
 -10 -13  -6-21.4275 31.6129   9
  10 -13   6-4.61182 23.7930  27
 -10  13  -6 22.0597 32.5126   8
 -10 -13  -6 47.2624 24.8613  26
 -10 -13  -7 2376.23 121.065   9
 -10  13  -7 2296.55 120.912   8
 -10 -13  -7 2291.56 116.424  26
 -10 -13  -8 492.083 49.0008   9
 -10  13  -8 462.644 47.0404   8
 -10 -13  -8 458.003 48.2543  26
  10 -14  -8 178.124 29.9210   5
  10  14  -8 174.565 28.2982  25
  10 -14  -7 1484.28 89.1250   5
  10  14  -7 1618.55 91.7026  25
  10 -14  -7 1665.82 87.5473  23
  10 -14  -6 2269.41 120.240   5
  10  14  -6 2334.15 120.372  16
  10  14  -6 2348.26 119.332  25
  10 -14  -6 2210.05 116.577  23
  10  14  -5 103.600 33.1758  16
  10  14  -5 108.348 38.0127  25
  10 -14  -5 85.7454 30.3125  23
  10  14  -4 455.616 55.2193  22
  10  14  -4 358.955 56.3268  16
  10 -14  -4 404.220 59.4745  23
  10  14  -3 673.780 75.9719  16
  10 -14  -3 867.683 80.4037  27
  10 -14  -3 739.619 82.2827  23
  10  14  -3 890.229 81.4240  22
  10 -14  -2 1357.84 106.035  27
  10 -14  -2 1218.39 102.093  23
  10  14  -2 1307.57 101.442  22
  10  14  -1 115.017 41.3444  22
  10 -14  -1 77.9782 35.2162  27
  10  14  -1 12.6631 31.9881  12
  10 -14  -1 75.2458 40.0212  23
  10  14   0 61.7381 37.9419  22
  10 -14   0 19.8413 32.6740  27
 -10  14   0 2.01171 22.0570   8
  10  14   0 3.74985 32.7678  12
  10 -14   0 4.83604 28.5052  23
  10  14   1 145.493 46.7389  22
  10 -14   1 154.164 48.1788  27
 -10  14  -1 188.308 46.4969   8
  10  14   1 116.258 39.8084  12
  10 -14   1 98.0032 41.1467  23
 -10  14  -2 1158.45 98.5362   8
  10 -14   2 1208.96 104.197  27
  10  14   2 1136.67 96.6192  12
  10 -14   2 1266.25 98.2635  23
  10  14   2 1167.20 97.8347  22
  10  14   3 503.135 67.7290  22
  10 -14   3 538.372 71.8529  27
 -10  14  -3 505.323 68.5534   8
 -10  14  -4 635.973 76.7008   8
  10 -14   4 733.765 78.5135  27
 -10 -14  -4 707.111 68.9107  26
  10  14   4 630.549 68.6395  22
  10  14   5 95.1223 31.2362  22
  10 -14   5 92.6508 31.4731  27
 -10  14  -5 106.537 38.7592   8
 -10 -14  -5 60.0586 24.4816  26
 -10 -14  -6 379.169 52.9219   9
  10 -14   6 430.855 53.5281  27
 -10  14  -6 412.295 55.9566   8
 -10 -14  -6 357.657 47.8836  26
 -10 -14  -7 755.518 65.2523   9
 -10  14  -7 781.000 66.6287   8
 -10 -14  -7 770.083 63.6447  26
 -10 -14  -8 487.833 46.5352   9
 -10  14  -8 553.689 49.7214   8
 -10 -14  -8 473.387 45.7415  26
  10 -15  -7 918.233 65.5318   5
  10  15  -7 841.221 62.6134  25
  10 -15  -6 324.428 47.1517   5
  10  15  -6 278.977 43.8815  25
  10 -15  -6 314.556 44.4569  23
  10  15  -5 1023.63 83.3902  16
  10  15  -5 1133.36 83.8370  25
  10 -15  -5 1011.55 81.6138  23
  10  15  -4 1494.45 105.218  16
  10 -15  -4 1550.68 108.350  23
  10  15  -4 1704.57 103.457  22
  10  15  -3 456.757 59.1495  22
  10  15  -3 404.381 59.8029  16
  10 -15  -3 402.648 53.3144  27
  10 -15  -3 442.096 63.3854  23
  10  15  -2 101.352 38.5398  22
  10 -15  -2 44.7572 34.4000  27
  10  15  -2 26.2003 31.6229  12
  10 -15  -2 11.3649 33.9190  23
  10  15  -1 79.4812 37.2605  22
  10 -15  -1-28.8623 35.1604  27
  10  15  -1 6.84822 35.7288  12
  10 -15  -1 49.4543 38.3322  23
 -10  15   0 764.719 74.7168   8
  10 -15   0 618.766 73.7529  27
  10 -15   0 683.146 75.6655  23
  10  15   0 565.742 71.7893  12
  10  15   0 801.786 83.7371  22
  10  15   1 121.076 43.2366  22
  10 -15   1 65.6705 35.4316  27
 -10  15  -1 147.200 41.3653   8
  10  15   1 95.3776 30.0280  12
  10 -15   1 104.477 35.5012  23
  10  15   2 16.6078 31.7096  22
  10 -15   2 10.8203 33.0434  27
 -10  15  -2 19.5707 29.2707   8
  10  15   2 11.1557 28.5909  12
  10 -15   2-19.5082 27.6444  23
  10  15   3 157.846 42.7479  22
  10 -15   3 61.8810 36.0462  27
 -10  15  -3 99.9472 35.2364   8
  10  15   4 98.1325 32.8445  22
  10 -15   4 150.678 40.3623  27
 -10  15  -4 127.913 39.5604   8
 -10 -15  -4 88.6106 26.1976  26
 -10  15  -5 2445.10 131.795   8
  10 -15   5 2227.07 122.858  27
 -10 -15  -5 2219.88 116.824  26
  10  15   5 2291.02 114.560  22
 -10 -15  -6 184.152 38.9777   9
  10 -15   6 179.942 34.8610  27
 -10  15  -6 139.805 36.0702   8
 -10 -15  -6 149.950 32.8509  26
 -10 -15  -7 461.611 49.5632   9
 -10  15  -7 414.560 47.5877   8
 -10 -15  -7 406.683 44.9003  26
  10 -16  -7 63.4535 19.8632   5
  10  16  -7 48.1552 18.4946  25
  10 -16  -6 143.259 30.3652   5
  10  16  -6 130.576 31.2796  25
  10 -16  -6 135.982 28.7999  23
  10 -16  -5 181.780 39.9509   5
  10  16  -5 172.713 35.9456  16
  10  16  -5 150.447 34.5363  25
  10 -16  -5 154.311 37.2029  23
  10  16  -4 260.602 41.4255  22
  10  16  -4 193.106 42.1519  16
  10 -16  -4 160.126 39.1218  23
  10  16  -3 20.2127 27.2081  22
  10  16  -3-19.7364 32.3930  16
  10 -16  -3-11.9253 25.6266  27
  10 -16  -3-34.9401 35.1758  23
  10 -16  -2 2387.04 132.701  27
  10 -16  -2 2301.40 136.048  23
  10  16  -2 2467.60 135.407  22
  10 -16  -1 1623.82 113.126  27
  10  16  -1 1452.13 109.108  12
  10 -16  -1 1531.28 109.638  23
  10  16  -1 1514.97 107.762  22
  10  16   0 38.8568 41.3238  22
  10 -16   0 19.2907 29.2677  27
  10  16   0-37.5315 37.1288  12
  10 -16   0 32.6586 29.5307  23
 -10  16  -1 2698.89 140.138   8
  10 -16   1 2613.33 146.744  27
  10  16   1 2345.28 137.142  12
  10 -16   1 2636.55 140.721  23
  10  16   1 2400.88 139.117  22
 -10  16  -2 688.773 72.9596   8
  10 -16   2 676.291 75.3138  27
  10  16   2 666.402 74.4968  12
  10 -16   2 697.525 70.0124  23
  10  16   2 686.903 76.1365  22
  10  16   3 92.1361 35.9080  22
  10 -16   3 32.0499 30.3711  27
 -10  16  -3 112.391 36.3541   8
 -10  16  -4 650.273 69.3237   8
  10 -16   4 737.163 74.0488  27
 -10 -16  -4 671.422 63.6451  26
  10  16   4 737.583 69.3668  22
  10  16   5 334.567 42.8876  22
  10 -16   5 400.067 51.0068  27
 -10  16  -5 318.702 48.3533   8
 -10 -16  -5 308.036 43.3443  26
 -10 -16  -6 386.030 46.8064   9
 -10  16  -6 425.571 52.6663   8
  10 -16   6 433.777 45.1323  27
 -10 -16  -6 421.400 45.4343  26
 -10 -16  -7 393.383 42.0456   9
 -10  16  -7 399.825 44.9801   8
 -10 -16  -7 376.965 40.4083  26
  10 -17  -7 64.0302 19.3602   5
  10 -17  -6 3999.15 144.370   5
  10  17  -6 4120.79 144.763  25
  10 -17  -5 303.777 42.9671   5
  10  17  -5 379.415 46.7299  25
  10 -17  -5 326.949 46.2822  23
  10  17  -4 401.363 47.4763  22
  10  17  -4 322.765 49.3047  16
  10 -17  -4 318.377 50.1224  23
  10  17  -3-1.76157 23.8520  22
  10 -17  -3-2.12374 22.3349  27
  10 -17  -3 14.7755 29.5661  23
  10 -17  -2 1359.30 96.2402  27
  10 -17  -2 1223.09 95.0502  23
  10  17  -2 1465.15 100.878  22
  10  17  -1 25.8509 29.0827  22
  10 -17  -1 22.3871 26.7214  27
  10  17  -1-16.4842 34.0383  12
  10 -17  -1 23.4274 33.9660  23
  10  17   0 18.6811 37.2650  22
  10 -17   0 3.20614 30.2763  27
  10  17   0-1.65069 32.7536  12
  10 -17   0 19.7546 30.3009  23
  10  17   1 73.0060 37.6583  22
  10 -17   1 54.5132 32.9992  27
 -10  17  -1 78.1111 30.5954   8
  10  17   1 35.3260 36.2859  12
  10 -17   1 50.7046 26.1442  23
  10  17   2 417.103 58.8444  22
  10 -17   2 373.078 58.3585  27
 -10  17  -2 402.726 55.1784   8
  10  17   2 366.597 54.3416  12
 -10  17  -3 634.240 66.0462   8
  10 -17   3 684.233 72.7499  27
  10  17   3 721.285 70.9071  22
 -10  17  -4 696.805 69.2184   8
  10 -17   4 730.689 68.7614  27
 -10 -17  -4 780.965 63.4185  26
  10  17   4 760.373 66.3778  22
 -10  17  -5 459.879 54.8696   8
  10 -17   5 449.770 50.8563  27
 -10 -17  -5 492.625 49.9217  26
 -10 -17  -6 2791.98 119.365   9
 -10  17  -6 2977.96 126.372   8
 -10 -17  -6 2698.39 112.447  26
  10 -18  -6 734.728 54.8484   5
  10  18  -6 751.353 54.4781  25
  10 -18  -5 264.852 38.8941   5
  10  18  -5 146.325 30.4688  25
  10  18  -4 8.70018 18.1655  22
  10 -18  -4 38.1248 27.0476  23
  10  18  -3 128.718 33.5087  22
  10 -18  -3 153.401 33.3493  27
  10 -18  -3 145.824 38.6111  23
  10 -18  -2 1345.26 91.1472  27
  10 -18  -2 1354.01 95.9768  23
  10  18  -2 1346.79 93.4004  22
  10 -18  -1 708.141 70.7388  27
  10  18  -1 701.874 68.9656  12
  10 -18  -1 647.335 68.9241  23
  10  18  -1 729.656 72.5705  22
  10  18   0 356.901 54.5259  22
  10 -18   0 274.201 48.2101  27
  10  18   0 358.328 54.7068  12
  10 -18   0 319.712 51.1209  23
 -10  18  -1 3634.71 148.337   8
  10 -18   1 3520.52 161.443  27
  10  18   1 3336.24 154.791  12
  10  18   1 3312.10 153.663  22
 -10  18  -2 3232.81 142.928   8
  10 -18   2 3282.76 153.836  27
  10  18   2 3287.78 148.119  22
  10  18   3 369.289 49.0235  22
  10 -18   3 274.516 46.9519  27
 -10  18  -3 276.532 45.5399   8
  10  18   4 23.8439 22.2742  22
  10 -18   4 77.4148 27.5803  27
 -10  18  -4 23.1196 21.4444   8
 -10 -18  -4 40.7656 19.8325  26
 -10 -18  -5 2720.90 119.479   9
 -10  18  -5 2670.85 120.957   8
  10 -18   5 2664.27 113.384  27
 -10 -18  -5 2737.50 110.875  26
 -10 -18  -6 61.8102 21.8207   9
 -10  18  -6 73.2829 24.7222   8
  10 -19  -5 4120.34 139.151   5
  10  19  -5 4064.90 139.194  25
  10 -19  -4 994.313 69.5038   5
  10  19  -4 1047.91 70.9212  25
  10  19  -4 1015.82 63.9597  22
  10  19  -3 262.248 39.6925  22
  10 -19  -3 260.375 37.3491  27
  10  19  -2 248.652 42.4953  22
  10 -19  -2 217.023 38.0638  27
  10 -19  -1 514.445 57.8129  27
  10  19  -1 598.566 62.5190  12
  10  19  -1 544.400 60.3892  22
  10 -19   0 5133.63 190.255  27
  10  19   0 5227.25 191.580  12
  10  19   0 5055.79 187.832  22
  10 -19   1 420.575 56.1005  27
  10  19   1 431.958 56.9075  12
  10  19   1 522.828 59.7877  22
  10  19   2 135.626 36.1590  22
  10 -19   2 142.639 40.2498  27
 -10  19  -2 155.123 33.8223   8
  10  19   3 169.038 32.3937  22
  10 -19   3 113.244 32.6971  27
 -10  19  -3 189.188 36.8539   8
 -10  19  -4 2626.39 117.140   8
  10 -19   4 2534.85 114.629  27
  10  19   4 2658.70 107.785  22
 -10 -19  -5 2260.55 100.548   9
 -10  19  -5 2033.16 98.6068   8
  10 -20  -4 2514.36 103.321   5
  10  20  -4 2591.68 106.945  25
  10 -20  -3 750.251 54.1059  27
  10  20  -3 770.316 58.4116  22
  10 -20  -2 975.064 68.8766  27
  10  20  -2 1068.77 73.8869  22
  10 -20  -1 722.473 62.8568  27
  10  20  -1 710.177 63.4260  22
  10  20   0 287.866 44.4765  22
  10 -20   0 300.974 45.9837  27
  10  20   1 8.95907 22.5411  22
  10 -20   1 39.7994 26.8560  27
 -10  20  -2 2060.13 96.2195   8
  10 -20   2 2351.01 114.086  27
  10  20   2 2320.99 109.425  22
 -10  20  -3 576.162 50.3314   8
  10 -20   3 614.896 56.0441  27
  10  20   3 554.351 50.0936  22
 -10  20  -4 465.248 45.0316   8
  10 -20   4 496.389 44.9371  27
  10  21  -2 6.39167 19.1571  22
  10 -21  -2-5.58483 16.7915  27
  10 -21  -1 1472.24 82.8366  27
  10  21  -1 1501.45 84.8476  22
  10  21   0 81.0528 26.5648  22
  10 -21   0 88.1787 26.2580  27
  10 -21   1 891.714 66.9227  27
  10  21   1 913.933 66.5422  22
  10  21   2 277.563 36.4962  22
  10 -21   2 306.943 39.5345  27
  10 -21   3 5006.69 155.319  27
  10  22  -1 455.681 42.5429  22
  10  22   0 24.0112 18.0258  22
  10 -22   0 19.7183 18.1764  27
  10  22   1 207.070 30.2189  22
  10 -22   1 222.126 31.9340  27
  11   0  -9 781.580 61.2103  25
  11   0  -8 2.51166 30.6432  25
  11   0  -8 955.382 77.5707  24
  11   0  -7 3822.93 165.976  25
  11   0  -7 4185.39 165.261  24
  11   0  -7 3947.36 164.028  23
  11   0  -6-16.8109 33.4660  25
  11   0  -6-68.4685 36.0446  23
  11   0  -5 422.263 59.5992  25
  11   0  -5 463.682 60.5242  23
  11   0  -4-23.7615 32.9110  25
  11   0  -4 23.1417 37.3190  23
  11   0  -3 276.068 47.7715  25
  11   0  -2 46.3998 29.2388  22
  11   0  -2-25.8592 29.5243  25
  11   0  -1 3447.76 176.484  22
  11   0   0-16.6351 32.3710  22
  11   0   1 180.827 50.8307  22
  11   0   1 270.063 54.1398  23
  11   0   2 12.8042 35.1014  22
  11   0   2 33.7613 25.0054  23
 -11   0  -3 1556.06 109.222   9
  11   0   3 1612.14 121.728  22
  11   0   4 28.9071 34.6301  22
 -11   0  -4 3.23397 23.3021   9
 -11   0  -4 25.7322 23.4589  26
 -11   0  -5 19842.0 474.545  26
  11   0   5 18242.7 476.090  22
 -11   0  -6 10.5953 26.3664  26
 -11   0  -6 19.5570 26.2049   8
  11   0   6-43.9664 29.5753  22
 -11   0  -7 145.121 35.0276  26
 -11   0  -8 4.77245 23.3395  26
 -11   0  -9 164.659 30.1986  26
  11  -1  -9 6.86908 19.9077  25
  11   1  -9 10.2419 21.7377  25
  11  -1  -8 94.9300 33.1785  25
  11   1  -8 154.866 37.7744  25
  11  -1  -7 292.543 50.2994  25
  11   1  -7 321.672 52.5707  25
  11  -1  -7 265.364 43.7414  23
  11   1  -7 309.823 44.2582  23
  11  -1  -6 55.6093 31.8731  25
  11   1  -6 51.7994 32.9262  25
  11  -1  -6 29.6587 32.5821  23
  11   1  -6-32.6001 35.7961  23
  11  -1  -5 2344.90 136.408  25
  11   1  -5 2281.68 134.832  25
  11  -1  -5 2308.27 137.769  23
  11   1  -5 2557.94 143.669  23
  11  -1  -4 6023.24 227.395  25
  11   1  -4 5988.00 226.964  25
  11  -1  -4 5677.34 231.505  23
  11  -1  -3 3159.51 159.157  25
  11   1  -3 3272.16 162.061  25
  11  -1  -3 2908.21 165.059  23
  11   1  -3 3319.74 163.397  22
  11  -1  -2 120.406 36.8200  22
  11   1  -2 124.546 42.1466  22
  11  -1  -2 106.150 30.7830  25
  11   1  -2 128.759 35.9535  25
  11  -1  -2 199.305 51.5648  23
  11  -1  -1 5.56016 29.9206  22
  11   1  -1 34.8482 31.9810  22
  11  -1   0-11.6198 37.4292  22
  11   1   0 0.07051 36.3538  22
  11  -1   0 2.75123 27.9870  23
  11  -1   1 516.126 70.6748  22
  11   1   1 520.738 69.0692  22
  11  -1   1 648.423 76.7256  23
  11  -1   2-11.9554 32.9236  22
  11   1   2 1.92778 36.0736  22
  11  -1   2-14.5837 29.8078  23
  11   1   2-23.4546 31.2072  23
  11  -1   3 77.1733 38.4088  22
  11   1   3 122.099 47.0273  22
 -11  -1  -3 66.2773 26.8033   9
 -11  -1  -4 1028.13 91.6479   9
 -11   1  -4 1173.49 93.4414  26
 -11  -1  -4 1072.30 91.9865  26
  11  -1   4 1000.11 96.6057  22
  11   1   4 1088.27 98.5815  22
 -11  -1  -5 2322.04 139.702   9
 -11   1  -5 2276.28 132.928  26
 -11  -1  -5 2365.39 134.514  26
  11  -1   5 2188.09 137.571  22
  11   1   5 2262.65 138.427  22
 -11   1  -6 595.081 68.1394   8
 -11  -1  -6 754.055 74.5468   8
 -11   1  -6 546.321 65.2048  26
 -11  -1  -6 645.042 69.9689  26
  11  -1   6 587.217 67.5700  22
  11   1   6 578.825 67.6909  22
 -11   1  -7 714.357 68.2900   8
 -11   1  -7 712.756 70.9558  26
 -11  -1  -7 792.569 74.3204  26
 -11   1  -8 0.32056 23.8376  26
 -11  -1  -8 34.3134 23.0312  26
 -11   1  -9 1267.76 78.8757  26
 -11  -1  -9 1275.18 78.6280  26
  11  -2  -9 7.45974 20.4595  25
  11   2  -9-3.12941 19.7543  25
  11  -2  -8 1157.87 82.9520  25
  11   2  -8 1233.38 84.5936  25
  11  -2  -7 691.150 70.3993  25
  11   2  -7 795.872 76.1807  25
  11   2  -7 769.703 69.8229  24
  11  -2  -7 731.870 68.2040  23
  11   2  -7 750.456 68.3004  23
  11  -2  -6 15.3837 28.7442  25
  11   2  -6-4.75552 37.4222  25
  11  -2  -6-28.2247 34.7338  23
  11   2  -6-17.1247 28.4401  23
  11  -2  -5 1053.02 91.3446  25
  11   2  -5 1014.29 90.7242  25
  11  -2  -5 948.857 89.5202  23
  11  -2  -4 80.5990 34.1322  25
  11   2  -4 99.2814 30.8608  25
  11  -2  -4 73.1339 41.3779  23
  11   2  -3-0.99443 28.6050  22
  11  -2  -3 42.2711 29.8655  25
  11   2  -3-20.8101 36.7220  25
  11  -2  -3-8.11338 31.6075  23
  11  -2  -2 346.274 56.9044  22
  11   2  -2 502.679 66.8216  22
  11   2  -2 396.905 58.1948  25
  11  -2  -2 341.640 59.8245  23
  11  -2  -1 1510.23 116.373  23
  11  -2  -1 1406.47 111.842  22
  11   2  -1 1445.03 111.895  22
  11  -2   0 1509.87 116.669  23
  11  -2   0 1547.75 118.439  22
  11   2   0 1572.30 117.262  22
  11  -2   1 342.572 59.9136  22
  11   2   1 355.913 61.6902  22
  11  -2   1 383.854 58.6021  23
  11  -2   2 365.850 58.7736  22
  11   2   2 524.229 75.7403  22
  11  -2   2 426.387 60.5073  23
  11  -2   3 232.405 51.0188  22
  11   2   3 260.691 53.4895  22
 -11  -2  -3 295.306 51.2973   9
 -11  -2  -4 1493.09 110.327   9
 -11   2  -4 1968.19 121.629  26
 -11  -2  -4 1704.17 113.220  26
  11  -2   4 1674.27 124.299  22
  11   2   4 1675.07 121.637  22
 -11  -2  -5 1062.97 93.3076   9
 -11   2  -5 942.742 85.2675  26
 -11  -2  -5 964.408 85.3238  26
  11  -2   5 922.583 88.5783  22
  11   2   5 935.842 88.5969  22
 -11  -2  -6 2952.14 153.734   9
 -11   2  -6 3303.46 162.856   8
 -11   2  -6 3236.29 155.796  26
 -11  -2  -6 3152.74 153.343  26
  11  -2   6 3270.14 158.464  22
  11   2   6 3309.89 158.050  22
 -11   2  -7 578.774 63.0021   8
 -11   2  -7 541.961 63.4684  26
 -11  -2  -7 594.516 68.0220  26
 -11   2  -8-5.95179 21.3017  26
 -11  -2  -8-24.9572 23.8219  26
 -11   2  -9 2176.37 104.950  26
 -11  -2  -9 2160.61 104.263  26
  11  -3  -9 54.8016 24.5822  25
  11   3  -9 18.7134 20.4297  25
  11  -3  -8 2751.04 126.279  25
  11   3  -8 2609.29 123.708  25
  11   3  -8 2593.41 115.225  24
  11  -3  -7 4266.47 174.187  25
  11   3  -7 4247.78 173.810  25
  11   3  -7 4143.35 159.931  24
  11  -3  -7 4235.97 169.541  23
  11   3  -7 4294.27 169.539  23
  11  -3  -6 45.4929 31.9615  25
  11   3  -6 43.7290 32.3302  25
  11  -3  -6 79.2419 35.5413  23
  11   3  -6 67.1715 38.4160  23
  11  -3  -5 118.908 38.1570  25
  11   3  -5 73.4909 35.1801  25
  11  -3  -5 53.4915 30.5617  23
  11  -3  -4 96.9624 35.2760  25
  11   3  -4-3.27212 35.7551  25
  11  -3  -4 22.5321 33.2997  23
  11  -3  -3 1108.41 93.0282  25
  11   3  -3 1082.85 91.8392  25
  11  -3  -3 1044.65 99.0923  23
  11   3  -3 1003.08 88.5572  22
  11  -3  -2 267.448 49.6431  22
  11   3  -2 241.129 45.6658  22
  11   3  -2 255.367 45.4050  25
  11  -3  -2 315.710 57.7226  23
  11  -3  -1 2214.46 140.915  23
  11  -3  -1 2180.93 138.796  22
  11   3  -1 2244.69 140.956  22
  11  -3   0 676.437 77.1444  23
  11  -3   0 640.427 77.5344  22
  11   3   0 635.982 77.7106  22
  11  -3   1 2006.31 131.652  23
  11  -3   1 1835.83 129.936  22
  11   3   1 2010.01 136.415  22
  11  -3   2 1661.29 116.479  23
  11  -3   2 1545.85 119.931  22
  11   3   2 1678.02 124.897  22
 -11  -3  -3 2767.97 150.015   9
  11  -3   3 2731.58 160.918  22
  11   3   3 2598.56 153.749  22
 -11  -3  -4 2884.04 153.115   9
 -11   3  -4 2757.90 145.354  26
 -11  -3  -4 2731.75 144.049  26
  11  -3   4 2710.39 156.187  22
  11   3   4 2559.56 151.441  22
 -11  -3  -5 1236.96 99.8752   9
 -11   3  -5 1419.33 110.141   8
 -11   3  -5 1353.80 100.326  26
 -11  -3  -5 1454.40 103.916  26
  11  -3   5 1369.47 108.855  22
  11   3   5 1304.22 103.333  22
 -11  -3  -6 19.2836 26.7742   9
 -11   3  -6 0.55965 23.4831  26
 -11  -3  -6 48.6373 29.6312  26
 -11   3  -6 9.37139 25.6334   8
  11   3   6 37.3204 32.8833  22
 -11   3  -7 7043.46 231.630   8
 -11   3  -7 6984.48 233.591  26
 -11  -3  -7 7076.15 233.865  26
 -11   3  -8 2082.36 111.342  26
 -11  -3  -8 1940.12 107.072  26
 -11   3  -9 1633.71 88.3297  26
 -11  -3  -9 1642.44 89.7280  26
  11  -4  -9-2.67819 20.9270  25
  11   4  -9 48.3253 24.0415  25
  11  -4  -8 1391.32 88.5340  25
  11   4  -8 1394.67 87.9374  25
  11   4  -8 1287.41 78.4602  24
  11  -4  -7 1529.32 99.1358  25
  11   4  -7 1433.91 98.4547  25
  11   4  -7 1335.87 85.3383  24
  11  -4  -7 1535.61 97.1347  23
  11   4  -7 1382.23 91.5250  23
  11  -4  -6 5891.06 217.961  25
  11   4  -6 5965.22 219.006  25
  11  -4  -6 6264.06 225.114  23
  11  -4  -5 616.933 69.0361  25
  11   4  -5 568.112 68.2149  25
  11  -4  -5 740.786 78.1616  23
  11   4  -4 589.184 70.6035  25
  11  -4  -4 493.470 63.4235  25
  11  -4  -4 441.526 66.1826  23
  11   4  -3 84.5615 31.1637  22
  11  -4  -3 64.3122 30.2996  25
  11   4  -3 45.9918 27.1206  25
  11  -4  -3 40.0118 40.0606  23
  11   4  -2 12822.4 361.514  25
  11  -4  -2 12604.8 378.115  23
  11  -4  -2 12725.6 367.316  22
  11   4  -2 12887.4 371.816  22
  11  -4  -1 1634.64 121.501  23
  11  -4  -1 1403.98 111.663  22
  11   4  -1 1798.14 126.370  22
  11   4   0 30.8487 33.4267  22
  11  -4   0 60.4139 37.8550  23
  11  -4   0 75.0808 39.5678  22
  11  -4   1 1766.38 123.825  23
  11  -4   1 1554.07 121.807  22
  11   4   1 1668.91 124.138  22
  11  -4   2 764.822 78.7334  23
  11  -4   2 922.092 93.4375  22
  11   4   2 760.182 87.2653  22
  11   4   3-78.0791 42.5338  22
 -11  -4  -3-18.1760 22.7125   9
  11  -4   3 4.85657 33.9482  22
 -11  -4  -4 1182.02 97.0923   9
 -11   4  -4 1079.37 89.1623  26
  11  -4   4 989.587 95.1045  22
  11   4   4 1163.47 101.205  22
 -11  -4  -5 1283.28 101.389   9
 -11   4  -5 1191.89 101.087   8
 -11   4  -5 1291.62 96.9373  26
 -11  -4  -5 1369.93 99.5273  26
  11  -4   5 1234.15 102.521  22
  11   4   5 1408.65 106.348  22
  11   4   6 94.7558 37.9133  22
 -11  -4  -6 51.4220 33.2569   9
 -11   4  -6 101.990 32.6681  26
 -11   4  -6 96.5525 37.6797   8
 -11  -4  -6 90.0301 33.5368  26
 -11  -4  -7 706.218 73.1559   9
 -11   4  -7 704.917 70.6039   8
 -11   4  -7 622.747 67.7011  26
 -11  -4  -7 676.247 70.4369  26
 -11   4  -8 685.717 64.0548  26
 -11  -4  -8 724.538 64.6141  26
 -11   4  -9 1145.14 73.1179  26
 -11  -4  -9 967.616 66.7786  26
  11  -5  -9 4575.89 151.830  25
  11   5  -9 4881.07 154.099  25
  11  -5  -8 35.0870 25.6455  25
  11   5  -8 26.5915 25.0167  25
  11   5  -8 25.2221 19.3511  24
  11  -5  -7 68.2646 29.3919  25
  11   5  -7 48.9779 29.8746  25
  11   5  -7-44.6366 30.1283  24
  11  -5  -7 28.5160 21.4644  23
  11   5  -7-43.7022 30.1752  23
  11  -5  -6 1801.24 112.911  25
  11   5  -6 1920.15 118.791  25
  11  -5  -6 1845.31 115.389  23
  11  -5  -5 1178.23 92.7186  25
  11   5  -5 1256.68 98.3823  25
  11  -5  -5 1180.59 99.3710  23
  11  -5  -4 1205.34 95.9720  25
  11   5  -4 1275.23 100.356  25
  11  -5  -4 1466.10 111.296  23
  11  -5  -3 1304.77 98.7513  25
  11   5  -3 1476.40 106.415  25
  11  -5  -3 1298.62 107.126  23
  11   5  -3 1508.03 108.225  22
  11   5  -2 95.8451 40.1292  22
  11   5  -2 78.6617 35.1485  25
  11  -5  -2 61.7613 41.3058  23
  11  -5  -2 112.968 38.9897  22
  11   5  -1 3298.39 158.739  25
  11  -5  -1 3118.29 168.967  23
  11  -5  -1 2912.76 160.638  22
  11   5  -1 3012.11 165.982  22
  11  -5   0 949.998 91.1471  23
  11  -5   0 947.284 92.1524  22
  11   5   0 869.727 90.6590  22
  11  -5   1 7967.05 278.965  23
  11  -5   1 7236.69 275.309  22
  11   5   1 7816.51 279.778  22
  11  -5   2 1344.54 103.199  23
  11  -5   2 1312.39 112.447  22
  11   5   2 1411.24 114.205  22
 -11  -5  -3 908.545 85.6632   9
  11  -5   3 798.419 86.8270  22
  11   5   3 986.540 95.1024  22
  11   5   4-0.32757 37.1023  22
 -11  -5  -4-14.0279 28.3653   9
 -11   5  -4 9.33415 24.7688  26
  11  -5   4 2.56811 31.5949  22
  11   5   5 44.8586 28.8892  22
 -11  -5  -5 70.1122 35.7778   9
 -11   5  -5-5.30074 27.7254  26
 -11  -5  -5 47.9040 26.5427  26
 -11  -5  -6 5924.19 218.995   9
 -11   5  -6 5626.41 220.406   8
 -11   5  -6 5911.14 215.764  26
 -11  -5  -6 5786.41 211.571  26
  11   5   6 5922.06 211.405  22
 -11  -5  -7 2956.96 143.975   9
 -11   5  -7 2804.66 138.444   8
 -11   5  -7 3260.38 147.014  26
 -11  -5  -7 3077.95 141.611  26
 -11   5  -8 271.300 41.6436  26
 -11  -5  -8 302.511 42.9432  26
 -11  -5  -9 338.453 39.9996  26
 -11   5  -9 328.825 39.2977  26
  11  -6  -9 859.530 61.8555  25
  11   6  -9 675.881 52.6715  25
  11  -6  -8 24.5969 24.1346  25
  11   6  -8 37.7947 17.8039  24
  11  -6  -7 90.7249 32.6986  25
  11   6  -7 96.1019 32.9470  25
  11  -6  -7 55.4203 23.1364  23
  11   6  -7 70.9710 28.3428  23
  11  -6  -6 739.411 73.7717  25
  11   6  -6 812.991 76.9402  25
  11  -6  -6 728.249 73.1547  23
  11  -6  -5 10457.2 306.684  25
  11   6  -5 10235.5 308.953  25
  11  -6  -5 10558.1 318.901  23
  11  -6  -4 21.8805 25.6639  25
  11   6  -4-33.6284 33.5570  25
  11  -6  -4 21.2406 35.0322  23
  11  -6  -3 3713.10 168.042  25
  11   6  -3 3713.39 172.179  25
  11  -6  -3 3310.76 175.501  23
  11   6  -3 3545.95 170.515  22
  11   6  -2 3046.60 154.513  25
  11  -6  -2 2926.74 165.307  23
  11  -6  -2 3058.25 159.132  22
  11   6  -2 2891.45 157.587  22
  11   6  -1 8095.29 264.275  25
  11  -6  -1 7459.28 276.786  23
  11  -6  -1 7817.53 275.035  22
  11   6  -1 7437.15 272.778  22
  11  -6   0 1312.34 108.453  23
  11  -6   0 1233.56 105.442  22
  11   6   0 1367.06 109.886  22
  11  -6   1 3179.63 166.999  23
  11  -6   1 3062.65 167.817  22
  11   6   1 2954.47 167.062  22
 -11  -6  -2 1925.92 122.214   9
  11  -6   2 1859.85 122.391  23
  11  -6   2 1810.14 130.353  22
  11   6   2 1869.95 130.711  22
  11   6   3 17.7506 30.8074  22
 -11  -6  -3 20.4178 23.9527   9
  11  -6   3 18.0696 34.5376  22
 -11  -6  -4 3323.51 165.203   9
 -11   6  -4 3222.88 173.523   8
 -11   6  -4 3388.22 160.441  26
  11  -6   4 3186.38 169.742  22
  11   6   4 3142.34 164.303  22
  11   6   5 288.604 52.2405  22
 -11  -6  -5 291.580 51.8540   9
 -11   6  -5 383.493 53.5673  26
 -11   6  -5 293.580 55.4260   8
 -11  -6  -5 335.081 53.0169  26
  11   6   6 299.745 47.8718  22
 -11  -6  -6 285.544 51.9043   9
 -11   6  -6 300.480 53.4533   8
 -11   6  -6 248.366 45.1355  26
 -11  -6  -6 363.977 53.1267  26
 -11  -6  -7 382.212 53.9783   9
 -11   6  -7 354.333 50.3296   8
 -11   6  -7 338.955 48.9997  26
 -11  -6  -7 342.536 49.4500  26
 -11   6  -8 749.032 58.8983   8
 -11   6  -8 922.692 70.3691  26
 -11  -6  -8 938.788 71.0385  26
 -11   6  -9 65.2512 21.0944  26
 -11  -6  -9 74.1686 21.9135  26
  11  -7  -9 1180.87 71.2267  25
  11  -7  -8 364.425 47.3402  25
  11   7  -8 291.831 41.6509  25
  11  -7  -7 305.991 46.8965  25
  11   7  -7 452.091 55.7098  25
  11  -7  -7 302.089 43.4231  23
  11   7  -7 296.299 42.4222  23
  11  -7  -6 709.884 65.2835   5
  11  -7  -6 782.218 73.3729  25
  11   7  -6 878.748 80.3295  25
  11  -7  -6 766.176 74.7532  23
  11  -7  -5 2466.39 132.715  25
  11   7  -5 2511.25 137.603  25
  11  -7  -5 2629.92 144.500  23
  11  -7  -4 142.089 37.7246  25
  11   7  -4 146.834 38.6044  25
  11  -7  -4 90.3041 42.1159  23
  11   7  -3 843.396 81.3823  25
  11  -7  -3 838.604 87.1229  23
  11   7  -3 826.532 79.8756  22
  11   7  -2 1993.29 124.635  25
  11  -7  -2 1910.97 130.454  23
  11   7  -2 2200.87 133.976  22
  11   7  -1 5828.26 218.386  25
  11  -7  -1 5388.00 227.547  23
  11  -7  -1 5476.48 222.988  22
  11   7  -1 5344.23 224.552  22
  11   7   0 272.537 57.0133  22
  11  -7   0 262.404 51.4009  23
  11  -7   0 322.283 56.4173  22
  11   7   1 553.283 73.8922  22
  11  -7   1 688.155 76.7632  23
  11  -7   1 579.337 75.5069  22
 -11  -7  -2 4484.01 191.055   9
  11  -7   2 3994.44 184.539  23
  11  -7   2 4041.82 196.810  22
  11   7   2 4114.29 195.786  22
 -11  -7  -3 3011.55 155.340   9
 -11   7  -3 2841.28 165.282   8
  11  -7   3 2665.17 158.000  22
  11   7   3 3044.90 162.363  22
  11   7   4 305.150 55.0932  22
 -11  -7  -4 354.599 55.0681   9
 -11   7  -4 381.250 55.2881  26
  11   7   5 517.110 61.1574  22
 -11  -7  -5 507.471 63.9980   9
 -11  -7  -5 455.948 56.9479  26
 -11   7  -5 433.549 56.7771  26
 -11   7  -5 530.621 69.4089   8
 -11  -7  -6 656.841 69.7240   9
 -11   7  -6 715.636 74.1136   8
 -11   7  -6 758.071 71.7295  26
 -11  -7  -6 694.325 68.3850  26
  11   7   6 792.944 70.4003  22
 -11  -7  -7 1724.49 106.120   9
 -11   7  -7 1777.94 105.517   8
 -11   7  -7 1785.17 105.162  26
 -11  -7  -7 1719.04 103.189  26
 -11   7  -8 684.038 55.5433   8
 -11   7  -8 712.523 61.7023  26
 -11  -7  -8 733.662 62.0621  26
  11  -8  -8 605.490 59.6819  25
  11   8  -8 406.313 46.4938  25
  11  -8  -7 832.642 63.6911   5
  11  -8  -7 941.377 73.2903  25
  11   8  -7 1060.65 78.4915  25
  11  -8  -7 877.838 68.2747  23
  11   8  -7 978.232 72.3201  23
  11  -8  -6 7116.32 222.244   5
  11  -8  -6 6538.42 220.120  25
  11   8  -6 6812.32 228.580  25
  11  -8  -6 6962.75 230.989  23
  11  -8  -5 1062.87 86.2206  25
  11   8  -5 1119.88 90.8833  25
  11  -8  -5 1080.36 92.0446  23
  11  -8  -4 1216.80 91.8113  25
  11   8  -4 945.557 85.8525  25
  11  -8  -4 1086.38 97.0412  23
  11   8  -3-19.0918 26.6739  22
  11   8  -3 13.9727 31.2741  25
  11  -8  -3-6.37470 34.3065  23
  11   8  -2 2939.54 151.268  25
  11  -8  -2 2987.37 162.706  23
  11   8  -2 2904.03 155.901  22
  11   8  -1 450.229 65.4076  22
  11   8  -1 469.892 58.6934  25
  11  -8  -1 330.274 55.8345  23
  11   8   0 81.2174 38.9779  22
  11  -8   0 35.5192 33.1749  23
  11   8   1 14.8594 33.7221  22
  11  -8   1-31.4634 33.4923  23
  11   8   2 24.7594 35.6441  22
 -11  -8  -2 29.7797 26.5474   9
 -11   8  -2 19.2690 34.0653   8
  11  -8   2 30.2757 27.5069  23
  11   8   3 555.168 68.8713  22
 -11  -8  -3 531.708 65.7953   9
 -11   8  -3 640.967 78.7247   8
  11   8   4 42.4527 32.8277  22
 -11  -8  -4 62.9507 31.1368   9
 -11   8  -4 50.7021 25.0823  26
 -11   8  -4 78.0473 40.8531   8
  11   8   5 52.8413 35.9718  22
 -11  -8  -5 96.7112 37.4177   9
 -11   8  -5 61.4489 27.3325  26
 -11   8  -5 74.9943 34.4145   8
 -11  -8  -5 97.7078 32.2296  26
  11   8   6 374.053 49.7599  22
 -11  -8  -6 260.237 49.1322   9
 -11   8  -6 385.614 55.4139   8
 -11   8  -6 351.613 50.2498  26
 -11  -8  -6 364.031 51.3860  26
 -11  -8  -7 2592.34 128.145   9
 -11   8  -7 2441.12 123.535   8
 -11   8  -7 2674.97 127.526  26
 -11  -8  -7 2687.07 125.805  26
 -11   8  -8 798.928 58.9632   8
 -11   8  -8 872.176 65.1828  26
 -11  -8  -8 831.529 63.6510  26
  11  -9  -8 2412.31 107.921  25
  11   9  -8 2057.04 98.7021  25
  11  -9  -7 522.024 49.8841   5
  11   9  -7 582.148 57.2005  25
  11  -9  -7 445.554 48.7921  23
  11  -9  -6 95.4411 29.2843   5
  11  -9  -6 84.2188 34.3732  25
  11   9  -6 74.5362 33.0499  25
  11  -9  -6 50.4814 28.7371  23
  11  -9  -5 65.7001 26.6902  25
  11   9  -5 60.5263 31.5730  25
  11  -9  -4 8123.32 256.180  25
  11   9  -4 8489.98 271.592  25
  11  -9  -4 8697.09 284.063  23
  11   9  -3 924.253 84.2092  25
  11  -9  -3 915.311 90.3852  23
  11   9  -3 1100.48 91.4896  22
  11   9  -2 351.781 56.5195  22
  11  -9  -2 360.025 55.4166  27
  11   9  -2 304.981 51.8135  25
  11  -9  -2 342.355 60.0943  23
  11   9  -1 25.7036 29.8839  22
 -11   9   1 8.95552 26.9275   8
  11   9  -1 10.9867 23.5914  25
  11  -9  -1-4.86969 30.3757  23
  11   9   0 446.958 67.4978  22
 -11   9   0 448.484 63.2771   8
  11  -9   0 417.660 61.0774  23
 -11   9  -1 1575.76 117.492   8
  11  -9   1 1547.05 112.637  23
  11   9   1 1477.06 113.872  22
 -11  -9  -2 2064.32 126.222   9
 -11   9  -2 2289.74 142.552   8
  11  -9   2 2036.54 124.896  23
  11   9   2 2350.59 143.680  22
  11   9   3-1.96832 30.0523  22
 -11  -9  -3-16.6195 22.6590   9
 -11   9  -3 45.9583 33.7878   8
  11   9   4 108.997 38.1943  22
 -11  -9  -4 98.6831 32.8976   9
 -11   9  -4 157.591 38.0503  26
 -11   9  -4 134.375 44.5404   8
 -11  -9  -5 1653.96 108.962   9
 -11   9  -5 1509.46 111.793   8
 -11   9  -5 1809.67 109.544  26
 -11  -9  -5 1833.06 108.548  26
  11   9   5 1814.18 111.446  22
 -11  -9  -6 4983.05 192.602   9
 -11   9  -6 5215.52 200.915   8
 -11   9  -6 5236.89 190.553  26
 -11  -9  -6 5184.09 187.152  26
 -11  -9  -7 48.9491 29.9522   9
  11  -9   7-9.79873 20.8402  27
 -11   9  -7 31.4482 23.7592   8
 -11   9  -7-13.4818 21.4482  26
 -11  -9  -7 20.1752 21.4099  26
 -11  -9  -8-5.63124 16.7232   9
 -11   9  -8-6.41553 16.1562  26
 -11  -9  -8 6.95274 16.8861  26
  11  10  -8 3897.31 134.407  25
  11 -10  -7 58.7649 22.0102   5
  11  10  -7 66.1695 27.6660  25
  11 -10  -7 63.5220 23.1665  23
  11 -10  -6-15.8413 22.0485   5
  11  10  -6 13.7052 25.8768  25
  11 -10  -6-9.34489 24.4537  23
  11 -10  -5 154.555 36.7731  25
  11  10  -5 165.127 39.8575  25
  11 -10  -5 105.202 36.6934  23
  11 -10  -4 270.398 46.0304  25
  11  10  -4 279.304 52.2926  25
  11 -10  -4 273.167 55.7378  23
  11  10  -3 1303.91 97.8600  25
  11 -10  -3 1313.27 106.718  23
  11  10  -3 1392.23 100.383  22
  11  10  -2 74.5890 33.1838  22
  11 -10  -2 122.190 35.1999  27
  11  10  -2 156.524 40.9553  25
  11 -10  -2 79.8904 38.8532  23
  11  10  -1 213.145 49.1536  22
  11 -10  -1 312.713 55.6891  27
 -11  10   1 279.790 51.1736   8
  11  10  -1 254.136 46.8238  25
  11 -10  -1 157.011 46.7717  23
 -11  10   0 2423.95 140.896   8
  11 -10   0 2179.12 135.332  23
  11  10   0 2191.69 135.853  22
  11  10   1-20.1017 32.4745  22
 -11  10  -1 0.39753 27.1895   8
  11 -10   1 34.6064 30.4469  23
 -11 -10  -2 1777.92 115.540   9
 -11  10  -2 1902.09 127.340   8
  11 -10   2 1720.78 112.421  23
  11  10   2 1747.68 122.092  22
 -11 -10  -3 975.193 85.4746   9
 -11  10  -3 1011.90 94.8896   8
  11  10   3 1086.16 94.0618  22
 -11 -10  -4 514.211 61.5683   9
 -11  10  -4 636.133 76.3811   8
 -11  10  -4 628.431 64.4149  26
  11  10   4 671.260 71.3159  22
  11  10   5 51.1775 32.7594  22
 -11 -10  -5 8.73418 26.1180   9
 -11  10  -5 14.4427 22.5223  26
 -11  10  -5 17.2912 31.7669   8
 -11 -10  -5 30.6805 26.6405  26
 -11 -10  -6 6400.14 216.041   9
 -11  10  -6 6011.19 216.530   8
  11 -10   6 6401.47 214.414  27
 -11  10  -6 6563.61 212.220  26
 -11 -10  -6 6131.80 204.887  26
 -11 -10  -7 21.6009 22.1684   9
  11 -10   7-19.9594 21.8334  27
 -11  10  -7 58.9791 26.8578   8
 -11 -10  -7 14.5178 21.4885  26
 -11 -10  -8 29.1305 19.9578   9
 -11 -10  -8-4.45944 16.4987  26
  11 -11  -7 2310.13 102.753   5
  11  11  -7 2431.29 110.291  25
  11 -11  -7 2161.40 97.1999  23
  11  11  -6 25.5466 23.6107  25
  11 -11  -6 13.4991 22.1387  23
  11 -11  -5 4004.82 156.568  25
  11  11  -5 3847.60 162.099  25
  11 -11  -5 3752.83 163.605  23
  11  11  -4 172.333 41.7870  25
  11 -11  -4 207.104 48.2241  23
  11  11  -3 5613.54 209.781  25
  11 -11  -3 5579.88 220.964  23
  11  11  -3 5954.50 214.977  22
  11  11  -2 134.290 40.1813  22
  11 -11  -2 261.900 50.8050  27
  11  11  -2 264.723 47.6429  25
  11 -11  -2 267.333 53.4486  23
 -11  11   1 1795.98 114.573   8
  11 -11  -1 1835.13 122.704  27
  11 -11  -1 1688.84 118.800  23
  11  11  -1 1819.60 121.562  22
  11  11   0-23.7716 37.1568  22
  11 -11   0 6.11960 30.1204  27
 -11  11   0 2.75750 25.5909   8
  11 -11   0 40.8902 30.2921  23
  11  11   1 44.3959 35.7867  22
 -11  11  -1 14.9850 28.7195   8
  11 -11   1 20.6713 30.2633  23
 -11  11  -2 1843.75 122.399   8
  11 -11   2 1659.27 108.942  23
  11  11   2 1758.94 119.983  22
  11  11   3 278.205 55.6560  22
 -11 -11  -3 297.683 51.8957   9
 -11  11  -3 259.688 51.7298   8
  11  11   4 72.9291 28.8021  22
 -11 -11  -4 72.7422 33.9101   9
 -11  11  -4 27.1846 31.6573   8
 -11 -11  -5 1973.46 114.768   9
 -11  11  -5 1823.85 116.393   8
  11 -11   5 1748.58 111.481  27
 -11 -11  -5 1680.43 99.8881  26
  11  11   5 1906.82 108.610  22
 -11 -11  -6 547.839 59.9498   9
 -11  11  -6 591.716 64.3761   8
  11 -11   6 666.268 62.8617  27
 -11 -11  -6 700.302 61.4892  26
 -11 -11  -7 1370.25 83.7993   9
 -11  11  -7 1298.22 81.4880   8
 -11 -11  -7 1133.20 73.5863  26
 -11 -11  -8 83.2710 21.8337   9
  11 -12  -7 2589.71 105.942   5
  11  12  -7 2582.62 111.232  25
  11  12  -6 144.277 35.9785  25
  11 -12  -6 91.0863 30.0244  23
  11 -12  -5 13.1624 20.7108   5
  11  12  -5 74.7261 31.4560  25
  11 -12  -5 7.37593 24.2497  23
  11  12  -4 25.4294 33.1446  25
  11 -12  -4 53.1009 34.2922  23
  11  12  -3 835.912 76.2444  25
  11 -12  -3 914.231 85.1765  23
  11  12  -3 891.934 78.4680  22
  11  12  -2 264.336 49.4992  22
  11 -12  -2 248.645 45.0471  27
  11  12  -2 231.790 43.7509  25
  11 -12  -2 309.505 54.3273  23
  11  12  -1 182.867 43.6751  22
  11 -12  -1 168.682 41.3511  27
  11 -12  -1 176.753 45.7784  23
  11  12   0-38.8831 36.5142  22
  11 -12   0-13.0379 29.0179  27
 -11  12   0 2.77877 22.9941   8
  11 -12   0-40.9697 32.1385  23
  11  12   1 630.906 73.4775  22
  11 -12   1 598.016 73.5197  27
 -11  12  -1 519.818 65.2972   8
  11 -12   1 552.503 66.1691  23
  11  12   2 313.448 53.4970  22
  11 -12   2 383.093 61.3205  27
 -11  12  -2 404.800 58.7093   8
  11 -12   2 346.629 50.3240  23
  11  12   3 418.063 60.6546  22
 -11 -12  -3 360.967 51.3328   9
  11 -12   3 320.492 56.1851  27
 -11  12  -3 374.872 57.0426   8
  11  12   4 290.038 47.1442  22
 -11 -12  -4 227.839 42.6264   9
  11 -12   4 237.388 47.7439  27
 -11  12  -4 199.063 44.6676   8
 -11 -12  -5 6583.14 217.778   9
 -11  12  -5 6432.52 223.599   8
  11 -12   5 6381.84 219.090  27
 -11 -12  -5 6023.76 198.868  26
  11  12   5 6479.62 207.444  22
 -11 -12  -6 1203.94 82.8493   9
 -11  12  -6 1306.89 88.7756   8
  11 -12   6 1386.79 85.6072  27
 -11 -12  -6 1311.88 80.8201  26
 -11 -12  -7 457.670 47.9797   9
 -11  12  -7 468.176 47.4164   8
 -11 -12  -7 414.310 42.3865  26
  11  13  -7 368.742 39.7487  25
  11 -13  -6 489.608 48.1723   5
  11  13  -6 600.287 55.8688  25
  11 -13  -6 498.002 49.8314  23
  11 -13  -5 226.036 42.3602   5
  11  13  -5 244.560 42.9571  25
  11 -13  -5 220.322 40.8454  23
  11  13  -4 7444.41 235.220  25
  11 -13  -4 7475.24 242.516  23
  11  13  -3 46.8837 29.6576  22
  11  13  -3 4.72927 26.6994  25
  11 -13  -3 47.8240 33.1017  23
  11  13  -2 123.839 43.1803  22
  11 -13  -2 68.4510 29.8384  27
  11 -13  -2 64.5597 29.8109  23
  11  13  -1-5.32745 29.5743  22
  11 -13  -1 20.8649 27.7077  27
  11 -13  -1 0.58561 27.9408  23
  11  13   0 53.3278 31.0376  22
  11 -13   0 81.2148 36.9901  27
 -11  13   0 59.9766 26.9329   8
  11 -13   0 101.185 35.3592  23
 -11  13  -1 859.206 78.8733   8
  11 -13   1 871.986 85.0372  27
  11 -13   1 871.430 78.4160  23
  11  13   1 757.572 78.6986  22
  11  13   2 432.746 61.2182  22
  11 -13   2 502.596 66.8860  27
 -11  13  -2 396.223 57.9467   8
  11  13   3 471.276 60.8105  22
 -11 -13  -3 530.770 60.6764   9
  11 -13   3 532.555 67.4092  27
 -11  13  -3 469.912 61.9914   8
  11  13   4 81.3545 30.2694  22
 -11 -13  -4 55.3613 27.4091   9
  11 -13   4 29.2841 31.1943  27
 -11  13  -4 27.0840 27.8282   8
 -11 -13  -5 545.206 58.7875   9
 -11  13  -5 616.386 65.5337   8
  11 -13   5 550.152 60.5438  27
 -11 -13  -5 578.098 54.0905  26
  11  13   5 593.560 55.8456  22
 -11 -13  -6 841.126 66.5315   9
 -11  13  -6 893.481 70.4060   8
  11 -13   6 778.394 61.5286  27
 -11 -13  -6 831.732 60.6308  26
 -11 -13  -7 514.726 46.2350   9
 -11  13  -7 582.679 50.5833   8
  11 -14  -6 93.0618 24.3519   5
  11  14  -6 76.9164 23.8800  25
  11 -14  -6 88.1719 23.8700  23
  11 -14  -5 689.202 61.2669   5
  11  14  -5 841.672 65.9799  25
  11 -14  -5 708.920 63.3654  23
  11  14  -4 258.455 43.8600  25
  11 -14  -4 311.486 49.0827  23
  11  14  -3 578.656 60.9482  25
  11 -14  -3 606.292 67.7808  23
  11  14  -3 573.116 59.4072  22
  11 -14  -2 1527.81 99.3863  27
  11 -14  -2 1510.05 103.010  23
  11  14  -2 1468.62 100.299  22
  11  14  -1 17.4162 29.6514  22
  11 -14  -1 36.9593 31.3458  27
  11 -14  -1 20.0055 28.7286  23
  11  14   0 544.228 66.6286  22
 -11  14   0 501.055 58.0260   8
  11 -14   0 469.272 65.5334  27
  11 -14   0 576.803 66.9448  23
  11  14   1 56.2317 32.1754  22
  11 -14   1 65.0421 38.2772  27
 -11  14  -1 20.5971 25.7532   8
  11 -14   1 7.32884 25.5822  23
 -11  14  -2 2658.66 136.643   8
  11 -14   2 2467.29 137.562  27
  11  14   2 2381.87 131.141  22
 -11 -14  -3 457.593 54.1347   9
  11 -14   3 348.197 53.3151  27
 -11  14  -3 438.138 57.9508   8
  11  14   3 506.199 60.2063  22
  11  14   4 39.5197 24.9446  22
 -11 -14  -4-13.2992 24.1698   9
  11 -14   4 21.9942 25.9341  27
 -11  14  -4 19.7599 25.7017   8
 -11 -14  -5 1208.08 80.3145   9
 -11  14  -5 1218.98 84.4225   8
  11 -14   5 1258.75 83.3536  27
 -11 -14  -5 1084.31 69.0514  26
  11  14   5 1111.16 71.9007  22
 -11 -14  -6 497.776 49.7666   9
 -11  14  -6 510.147 51.1721   8
 -11 -14  -6 454.794 42.2792  26
  11 -15  -6 582.203 48.0370   5
  11  15  -6 721.442 53.3390  25
  11 -15  -5 458.028 48.7231   5
  11  15  -5 393.465 45.8111  25
  11 -15  -5 388.930 45.9860  23
  11  15  -4 7.78340 21.2777  25
  11 -15  -4-3.46729 24.5938  23
  11  15  -3 27.0570 23.2538  22
  11  15  -3 9.64795 23.7039  25
  11 -15  -3 43.7843 35.4431  23
  11  15  -2 437.837 54.9491  22
  11 -15  -2 312.462 46.2550  27
  11 -15  -2 300.903 49.1933  23
  11 -15  -1 2976.65 142.718  27
  11 -15  -1 2826.68 141.229  23
  11  15  -1 3060.83 145.812  22
  11 -15   0 947.098 83.0934  27
  11 -15   0 894.047 78.3042  23
  11  15   0 771.134 77.2074  22
  11  15   1 57.3560 31.0895  22
  11 -15   1-31.1116 32.6756  27
 -11  15  -1 5.00849 21.8123   8
  11 -15   1 45.8461 30.1219  23
 -11  15  -2 1359.63 94.2200   8
  11 -15   2 1403.92 99.4530  27
  11  15   2 1509.38 99.7065  22
  11  15   3 8.56507 23.1171  22
 -11 -15  -3-2.19005 21.3429   9
  11 -15   3-5.60472 29.3763  27
 -11  15  -3-10.6023 26.6011   8
  11  15   4 194.788 34.6845  22
 -11 -15  -4 226.105 38.4558   9
  11 -15   4 207.278 39.0124  27
 -11  15  -4 184.061 36.6960   8
 -11 -15  -5 124.389 30.0533   9
  11 -15   5 129.643 29.3818  27
 -11  15  -5 108.904 31.1430   8
 -11 -15  -6 865.815 59.6708   9
 -11  15  -6 743.277 57.7762   8
  11 -16  -5 899.250 61.7153   5
  11  16  -5 872.840 62.3695  25
  11 -16  -5 834.164 60.1612  23
  11 -16  -4 121.023 28.4608   5
  11  16  -4 126.130 30.7222  25
  11 -16  -4 157.525 35.0166  23
  11  16  -3 2122.00 107.195  25
  11 -16  -3 2329.70 117.893  23
  11  16  -3 2318.32 109.454  22
  11 -16  -2 1407.19 89.2280  27
  11 -16  -2 1434.98 94.5748  23
  11  16  -2 1500.38 93.3579  22
  11 -16  -1 1137.75 83.5680  27
  11 -16  -1 1197.03 86.3853  23
  11  16  -1 1141.51 84.6903  22
  11 -16   0 2345.76 123.850  27
  11 -16   0 2200.13 117.491  23
  11  16   0 2268.55 122.147  22
  11  16   1 105.113 34.7238  22
  11 -16   1 92.1102 31.6670  27
 -11  16  -1 81.7724 25.1047   8
  11 -16   1 67.0575 26.3204  23
  11  16   2 88.1192 30.0720  22
  11 -16   2 107.089 32.9121  27
 -11  16  -2 173.662 33.2669   8
 -11 -16  -3 669.470 60.8793   9
 -11  16  -3 803.874 67.2465   8
  11 -16   3 596.055 62.1497  27
  11  16   3 721.718 62.7638  22
 -11 -16  -4 447.043 49.2407   9
 -11  16  -4 546.451 54.8127   8
  11 -16   4 524.553 53.5515  27
  11  16   4 518.264 49.3196  22
 -11 -16  -5 207.537 31.5322   9
 -11  16  -5 218.280 35.5932   8
  11 -17  -4 448.501 45.6582   5
  11  17  -4 568.574 50.5136  25
  11 -17  -4 513.933 49.2102  23
  11  17  -3 335.645 39.9793  22
  11  17  -3 372.567 44.3550  25
  11 -17  -3 369.996 46.4160  23
  11 -17  -2 878.812 65.8377  27
  11  17  -2 964.739 69.7416  25
  11 -17  -2 842.888 70.3075  23
  11  17  -2 1069.77 74.8164  22
  11  17  -1-10.7686 24.1662  22
  11 -17  -1-16.6022 23.6856  27
  11 -17  -1 28.9712 22.9111  23
  11  17   0 192.182 38.6883  22
  11 -17   0 141.234 34.5870  27
  11 -17   0 91.5612 26.8453  23
  11 -17   1 1945.25 107.788  27
  11  17   1 1890.89 105.296  22
  11  17   2 70.9585 28.9826  22
  11 -17   2 83.8702 25.3201  27
 -11  17  -2 41.4858 20.6530   8
 -11 -17  -3 2614.29 114.481   9
 -11  17  -3 2658.47 115.377   8
  11 -17   3 2662.94 121.523  27
  11  17   3 2557.40 113.699  22
 -11 -17  -4 376.431 41.8085   9
 -11  17  -4 369.503 43.8170   8
  11 -17   4 300.534 38.9047  27
  11 -18  -4 214.635 29.2512   5
  11  18  -4 202.347 28.4483  25
  11  18  -3 2607.81 107.940  25
  11 -18  -2 2696.70 109.969  27
  11  18  -2 2808.74 114.977  25
  11  18  -2 2937.20 119.065  22
  11  18  -1 19.7473 20.3294  22
  11 -18  -1 30.7628 22.6632  27
  11 -18   0 2097.68 105.393  27
  11  18   0 2087.07 105.530  22
  11  18   1 5.00631 20.8715  22
  11 -18   1 4.52805 21.2693  27
  11  18   2 110.762 28.6675  22
 -11 -18  -2 172.905 30.1309   9
  11 -18   2 102.023 26.3378  27
  11  18   3 72.6047 21.1195  22
 -11 -18  -3 74.4269 21.3804   9
  11 -18   3 55.7008 22.7567  27
  11  19  -2 32.9700 17.6906  25
  11  19  -1 159.879 31.9189  22
  11 -19  -1 189.688 30.5240  27
  11  19  -1 188.510 29.5426  25
  11 -19   0 547.967 50.0157  27
  11  19   0 571.995 52.0984  22
  11  19   1 14.0141 19.9923  22
  11 -19   1 23.5467 19.1828  27
  11 -19   2 2227.47 99.6817  27
  11  19   2 2234.23 96.4665  22
  12   0  -8 3.71276 22.7677  25
  12   0  -7 29.9021 26.0333  25
  12   0  -7-60.1808 24.7416  23
  12   0  -6 33.2940 25.4341  25
  12   0  -6-19.5235 29.0966  23
  12   0  -5 9.59374 25.7219  25
  12   0  -5-5.61855 30.7702  23
  12   0  -4 549.432 61.8546  25
  12   0  -4 636.739 70.8122  23
  12   0  -3-37.5514 27.6335  25
  12   0  -3-43.8211 38.9005  23
  12   0  -2 11714.4 350.700  23
  12   0  -2 12425.4 346.121  22
  12   0  -1-0.74551 29.8691  22
  12   0  -1 50.4908 37.6318  23
  12   0   0 5952.93 228.927  23
  12   0   0 5777.70 228.799  22
  12   0   1-55.5198 46.8556  22
  12   0   1-31.8019 34.4956  23
  12   0   2 2.06744 38.1395  22
  12   0   3-2.19165 33.8016  22
  12   0   4 51.3192 30.9315  22
 -12   0  -5-10.2598 23.4218   8
  12   0   5 26.1626 30.2022  22
 -12   0  -6 333.147 42.9838  26
 -12   0  -6 324.939 45.7057   8
 -12   0  -7 28.3327 23.0781  26
  12  -1  -8 5539.24 165.790  25
  12   1  -8 5708.78 168.854  25
  12  -1  -7 802.373 64.8771  25
  12   1  -7 834.039 65.6554  25
  12  -1  -7 772.802 59.0289  23
  12   1  -7 775.853 60.2380  23
  12  -1  -6 9.84109 23.8479  25
  12   1  -6-0.85804 24.2829  25
  12  -1  -6-37.2244 30.0367  23
  12   1  -6-21.7665 27.5441  23
  12  -1  -5 3557.27 153.686  25
  12   1  -5 3625.19 156.055  25
  12  -1  -5 3663.89 162.892  23
  12   1  -5 3600.80 162.749  23
  12  -1  -4 25.1493 23.9167  25
  12   1  -4 41.0922 24.5761  25
  12  -1  -4-8.16389 40.7179  23
  12   1  -4-40.0294 39.6500  23
  12  -1  -3 25.5146 24.2015  25
  12   1  -3 10.0040 23.4279  25
  12  -1  -3-24.9451 38.9218  23
  12   1  -3-11.5502 37.4659  23
  12  -1  -2 1317.76 105.446  23
  12   1  -2 1266.63 102.634  23
  12  -1  -2 1194.40 94.0357  22
  12   1  -2 1220.47 95.3457  22
  12  -1  -1 266.567 51.8205  22
  12   1  -1 262.579 54.2869  22
  12  -1  -1 300.573 57.0780  23
  12   1  -1 288.640 57.1216  23
  12  -1   0 64.1807 32.1121  22
  12   1   0 46.4982 37.6879  22
  12  -1   0 67.3620 35.5400  23
  12   1   0 74.0247 36.0261  23
  12  -1   1 401.400 64.2640  22
  12   1   1 435.687 63.1428  22
  12  -1   1 355.545 51.9574  23
  12   1   1 372.244 54.3492  23
  12  -1   2 323.714 58.9378  22
  12   1   2 373.927 62.3252  22
  12   1   3 229.365 58.3733  22
  12  -1   3 195.009 46.2826  22
  12  -1   4 567.609 70.2405  22
  12   1   4 539.327 66.5612  22
 -12   1  -5 1859.84 114.563   8
  12  -1   5 1974.85 116.958  22
  12   1   5 1777.68 110.857  22
 -12   1  -6-6.27764 22.5172  26
 -12  -1  -6 31.8162 21.9837  26
 -12   1  -6 12.3165 20.5200   8
 -12  -1  -6 36.4990 24.2501   8
  12   1   6 10.5676 20.0582  22
 -12   1  -7 1936.36 97.4643  26
 -12  -1  -7 2085.52 100.790  26
  12  -2  -8 971.299 61.3990  25
  12   2  -8 931.976 61.6672  25
  12  -2  -7 87.1549 29.2752  25
  12   2  -7 67.3828 27.1065  25
  12  -2  -7 124.568 28.6332  23
  12   2  -7 63.8985 22.4627  23
  12  -2  -6 800.154 67.5829  25
  12   2  -6 770.641 68.8882  25
  12  -2  -6 726.890 66.6779  23
  12   2  -6 775.582 68.2775  23
  12  -2  -5 670.428 65.2141  25
  12   2  -5 707.563 68.9859  25
  12   2  -5 623.824 68.1500  23
  12  -2  -5 585.019 64.3403  23
  12  -2  -4 362.674 52.2400  25
  12   2  -4 368.337 51.2363  25
  12  -2  -4 364.892 56.4357  23
  12   2  -4 334.711 54.6415  23
  12  -2  -3 91.8992 33.1214  25
  12   2  -3 95.2789 29.7794  25
  12  -2  -3 68.8836 36.2447  23
  12   2  -3 105.626 38.2685  23
  12   2  -2 13.8357 29.8265  22
  12  -2  -2 8.14930 36.7326  23
  12   2  -2 9.13148 33.6366  23
  12  -2  -2 4.18527 26.3273  22
  12  -2  -1 6037.58 232.813  23
  12   2  -1 5908.91 230.640  23
  12  -2  -1 6394.00 234.748  22
  12   2  -1 6113.30 233.270  22
  12   2   0 68.2015 34.6429  22
  12  -2   0 24.1037 28.9791  23
  12   2   0 44.9365 27.4036  23
  12  -2   0 79.4752 36.6900  22
  12  -2   1 831.842 79.9221  23
  12   2   1 839.353 80.0639  23
  12  -2   1 784.783 85.3563  22
  12   2   1 792.064 83.3428  22
  12  -2   2 2365.31 142.292  22
  12   2   2 2381.95 142.342  22
  12   2   3-11.3902 34.6272  22
  12  -2   3-23.8123 36.6830  22
  12  -2   4 1933.96 122.709  22
  12   2   4 1866.81 120.336  22
 -12   2  -5 222.037 43.9208   8
  12  -2   5 237.313 45.9733  22
  12   2   5 282.380 49.4040  22
 -12   2  -6 187.987 34.2845  26
 -12   2  -6 165.066 32.3568   8
 -12  -2  -6 170.685 32.5133  26
 -12  -2  -6 180.591 33.1263   8
  12   2   6 143.833 33.1442  22
 -12   2  -7 285.005 38.3242  26
 -12  -2  -7 316.341 39.3235  26
  12   3  -8 1531.78 77.6158  25
  12  -3  -7 77.8029 24.0860  25
  12   3  -7 101.247 30.3698  25
  12  -3  -7 39.1522 20.0737  23
  12   3  -7 49.0806 18.5562  23
  12  -3  -6 827.067 67.7033  25
  12   3  -6 809.380 70.0565  25
  12  -3  -6 864.812 70.6789  23
  12   3  -6 819.240 69.6130  23
  12  -3  -5 1555.41 96.0984  25
  12   3  -5 1516.33 97.9112  25
  12  -3  -5 1491.84 100.781  23
  12   3  -5 1447.36 100.169  23
  12  -3  -4 922.522 77.2238  25
  12   3  -4 869.581 76.4508  25
  12  -3  -4 884.348 81.5933  23
  12   3  -4 918.474 84.7199  23
  12   3  -3 1168.85 87.6954  25
  12  -3  -3 1112.80 96.7326  23
  12   3  -2 1891.29 111.800  25
  12  -3  -2 1889.50 124.835  23
  12  -3  -2 2045.68 122.475  22
  12   3  -2 1874.36 119.187  22
  12   3  -1 303.694 54.9982  22
  12  -3  -1 306.124 52.6826  23
  12  -3  -1 286.369 50.9893  22
  12   3   0 254.227 53.8145  22
  12  -3   0 198.852 44.0735  23
  12  -3   0 232.720 48.1949  22
  12  -3   1 1987.77 122.744  23
  12   3   1 2015.41 123.621  23
  12  -3   1 2067.20 133.832  22
  12   3   1 2268.03 140.205  22
  12   3   2 73.5365 40.2075  22
  12  -3   2 8.54761 36.3963  22
  12   3   3 198.708 48.5703  22
  12  -3   3 288.173 53.8907  22
 -12  -3  -4 1693.31 104.485   9
 -12   3  -4 1847.97 121.110   8
  12  -3   4 1507.57 109.453  22
  12   3   4 1544.73 109.769  22
 -12   3  -5 2162.22 123.860   8
  12   3   5 2209.43 121.942  22
 -12   3  -6 33.3018 25.7361   8
 -12   3  -6 14.4626 19.3295  26
 -12  -3  -6 9.72135 17.6076  26
  12   3   6 7.23208 19.1736  22
 -12   3  -7 31.4832 18.8551   8
 -12   3  -7 1.81829 17.8262  26
 -12  -3  -7 12.6410 16.2009  26
  12  -4  -7 782.707 60.6313  25
  12   4  -7 857.001 65.3176  25
  12  -4  -7 840.033 59.0552  23
  12   4  -7 835.843 59.0796  23
  12  -4  -6 432.959 52.3315  25
  12   4  -6 371.726 48.0490  25
  12  -4  -6 351.239 45.6313  23
  12   4  -6 396.734 49.8107  23
  12   4  -5 474.150 57.9724  25
  12  -4  -5 334.057 48.1203  25
  12  -4  -5 292.044 49.0271  23
  12   4  -5 430.213 57.6163  23
  12  -4  -4 1765.35 104.629  25
  12   4  -4 1555.39 101.532  25
  12  -4  -4 1595.75 109.422  23
  12   4  -3 3767.20 163.117  25
  12  -4  -3 3647.72 174.027  23
  12   4  -3 4125.67 169.755  22
  12   4  -2 1436.26 96.9229  25
  12  -4  -2 1440.11 108.777  23
  12  -4  -2 1488.20 102.734  22
  12   4  -2 1559.05 107.355  22
  12   4  -1 372.847 59.5037  22
  12  -4  -1 247.341 49.7217  23
  12  -4  -1 279.108 52.3288  22
  12  -4   0 795.966 81.8663  23
  12  -4   0 915.838 88.5053  22
  12   4   0 973.499 93.3333  22
  12  -4   1 2388.03 135.553  23
  12  -4   1 2399.25 143.242  22
  12   4   1 2502.68 145.568  22
  12  -4   2 1155.26 99.5075  22
  12   4   2 1300.01 108.446  22
  12   4   3 463.627 63.9264  22
  12  -4   3 418.110 58.9697  22
  12   4   4 529.324 66.5736  22
 -12  -4  -4 515.490 58.6342   9
 -12   4  -4 540.976 68.4446   8
  12  -4   4 431.256 61.4454  22
 -12  -4  -5 2824.32 134.787   9
 -12   4  -5 2836.66 142.292   8
  12   4   5 2692.99 134.911  22
 -12   4  -6 646.082 62.3945   8
 -12   4  -6 560.743 54.7650  26
 -12  -4  -6 563.929 54.2832  26
  12   4   6 588.731 57.4688  22
 -12   4  -7 164.180 28.5590   8
 -12   4  -7 163.762 30.3248  26
 -12  -4  -7 82.1678 22.5187  26
  12  -5  -7 20.1668 20.8298  25
  12   5  -7 74.1749 25.8940  25
  12  -5  -7 43.1141 16.5157  23
  12   5  -7 25.1873 15.5425  23
  12  -5  -6 214.350 36.1398  25
  12   5  -6 264.417 42.1042  25
  12  -5  -6 234.696 42.8656  23
  12   5  -6 176.521 37.2699  23
  12  -5  -5 540.408 58.5640  25
  12   5  -5 581.130 61.6395  25
  12  -5  -5 542.172 62.1866  23
  12   5  -5 540.297 61.6081  23
  12  -5  -4 3390.99 146.343  25
  12   5  -4 3568.49 155.474  25
  12  -5  -4 3394.07 161.024  23
  12   5  -3 1904.46 112.518  25
  12  -5  -3 1973.97 126.712  23
  12   5  -3 2050.28 115.773  22
  12   5  -2 755.531 70.4458  25
  12  -5  -2 856.900 85.0745  23
  12   5  -2 792.116 78.2336  22
  12   5  -1-16.9755 30.6032  22
  12  -5  -1 11.8830 30.8493  23
  12  -5  -1-45.8020 35.1944  22
  12  -5   0 6780.93 247.109  23
  12  -5   0 7330.73 255.587  22
  12   5   0 7233.31 257.211  22
  12  -5   1 1970.96 121.639  23
  12  -5   1 1954.69 127.533  22
  12   5   1 1987.74 128.666  22
  12  -5   2 10291.2 319.680  22
  12   5   2 10211.3 317.785  22
  12   5   3-1.24406 31.5011  22
 -12  -5  -3 12.4728 19.1688   9
 -12   5  -3 82.0929 40.6143   8
  12  -5   3 20.1799 37.7895  22
 -12  -5  -4 655.429 64.3912   9
 -12   5  -4 599.471 70.9385   8
  12   5   4 605.053 67.7957  22
  12   5   5 73.8848 28.7036  22
 -12  -5  -5 54.9358 30.1353   9
 -12   5  -5 32.9746 29.9611   8
 -12   5  -6 4839.89 174.968   8
 -12   5  -6 4718.87 163.671  26
 -12  -5  -6 4557.04 158.780  26
  12   5   6 4589.81 160.794  22
 -12   5  -7-6.21167 19.6207   8
 -12   5  -7 47.1469 19.8335  26
 -12  -5  -7 29.1698 16.9918  26
  12  -6  -7 142.363 30.2280  25
  12   6  -7 69.0426 26.0049  25
  12  -6  -6 4199.77 153.901  25
  12   6  -6 4485.40 162.782  25
  12  -6  -6 4464.20 162.674  23
  12   6  -6 4761.70 166.929  23
  12  -6  -5-13.1315 20.8327  25
  12   6  -5 67.1711 29.4100  25
  12  -6  -5 65.7084 31.7996  23
  12   6  -5 11.0699 24.9863  23
  12  -6  -4 2717.16 126.843  25
  12   6  -4 3015.45 140.339  25
  12  -6  -4 3022.53 148.732  23
  12   6  -3 957.605 81.2808  25
  12  -6  -3 1175.91 96.7901  23
  12   6  -3 1257.00 89.3942  22
  12   6  -2 512.911 62.6557  22
  12   6  -2 531.607 57.9586  25
  12  -6  -2 551.593 71.5469  23
  12   6  -1-11.8986 29.7856  22
  12  -6  -1 99.3441 42.5255  23
  12   6   0 237.513 51.4609  22
  12  -6   0 157.348 43.0329  23
  12  -6   0 227.946 49.5170  22
  12   6   1 242.755 52.6217  22
  12  -6   1 218.013 44.2242  23
  12  -6   1 295.018 58.1577  22
  12   6   2 320.875 57.4713  22
 -12   6  -2 423.652 63.3410   8
  12  -6   2 383.773 64.2291  22
  12   6   3 65.2104 33.8645  22
 -12  -6  -3 88.2653 29.1237   9
 -12   6  -3 43.9688 30.9076   8
 -12  -6  -4 1138.47 84.5626   9
 -12   6  -4 1081.34 91.2531   8
  12   6   4 1064.77 86.5255  22
 -12  -6  -5 1182.42 84.1511   9
 -12   6  -5 1165.68 88.6061   8
  12   6   5 1192.39 84.4995  22
 -12   6  -6 1673.26 96.4696   8
 -12   6  -6 1496.54 85.1164  26
 -12  -6  -6 1466.71 82.5985  26
  12   6   6 1411.79 81.3012  22
 -12   6  -7 17.1643 18.0891   8
 -12   6  -7 11.7453 14.0686  26
  12  -7  -7 462.169 48.8947  25
  12   7  -7 262.122 36.7028  25
  12  -7  -6 95.2649 28.9242  25
  12   7  -6-4.54844 23.0726  25
  12  -7  -6 64.2636 25.2378  23
  12   7  -6 80.5339 27.6899  23
  12  -7  -5 335.066 42.8430  25
  12  -7  -5 428.071 55.0993  23
  12   7  -4 538.429 60.6181  25
  12  -7  -4 572.606 65.4056  23
  12   7  -3 2061.30 115.395  25
  12  -7  -3 2068.62 123.975  23
  12   7  -3 2275.34 119.956  22
  12   7  -2 466.095 63.1897  22
 -12   7   2 413.842 55.1410   8
  12   7  -2 473.341 56.8443  25
  12  -7  -2 398.759 59.2324  23
  12   7  -1 19.0936 30.9140  22
  12  -7  -1 54.7221 40.8062  23
  12  -7   0 1187.46 94.4937  23
  12   7   0 1267.24 101.213  22
 -12   7  -1 2297.78 136.161   8
  12  -7   1 2186.90 126.541  23
  12   7   1 2470.84 140.812  22
 -12   7  -2 2191.59 133.004   8
  12   7   2 2137.10 130.349  22
  12   7   3 14.5887 33.5444  22
 -12  -7  -3 18.5317 19.8527   9
 -12   7  -3 30.5557 30.6276   8
 -12  -7  -4 609.132 60.7476   9
 -12   7  -4 675.422 73.4673   8
  12   7   4 662.808 67.3295  22
 -12  -7  -5 1018.20 77.0098   9
 -12   7  -5 939.944 79.1878   8
  12   7   5 1033.81 76.9907  22
 -12  -7  -6 588.939 55.5392   9
 -12   7  -6 614.238 59.7152   8
 -12   7  -6 722.450 57.7931  26
 -12  -7  -6 647.105 52.7735  26
  12   8  -7 3225.78 119.213  25
  12  -8  -6 855.909 63.6849  25
  12   8  -6 729.990 60.9654  25
  12  -8  -6 704.284 58.8148  23
  12   8  -6 795.594 61.6911  23
  12  -8  -5 1170.04 75.8797  25
  12   8  -5 1213.12 81.3687  25
  12  -8  -5 1235.69 86.0459  23
  12   8  -4 990.731 76.7253  25
  12  -8  -4 884.513 78.6053  23
  12   8  -3 513.145 57.3695  25
  12  -8  -3 546.558 65.2647  23
  12   8  -3 538.735 58.3937  22
  12  -8  -2 6045.65 210.098  27
  12   8  -2 5648.71 201.505  25
  12  -8  -2 5941.51 221.626  23
  12   8  -2 6092.90 216.579  22
 -12   8   1 949.094 82.7885   8
  12  -8  -1 974.211 85.1949  27
  12  -8  -1 938.756 88.7903  23
  12   8  -1 1035.06 89.0116  22
 -12   8   0 5383.26 209.018   8
  12  -8   0 5277.38 205.977  23
  12   8   0 5517.92 213.588  22
  12   8   1 106.866 41.9238  22
 -12   8  -1 165.856 44.9591   8
  12  -8   1 83.8082 29.4998  23
 -12   8  -2 3958.32 179.460   8
  12   8   2 3838.99 173.361  22
 -12  -8  -3 1163.46 84.0213   9
 -12   8  -3 1115.83 91.4789   8
  12   8   3 1230.18 94.5282  22
  12   8   4 244.327 44.2882  22
 -12  -8  -4 204.696 36.2033   9
 -12   8  -4 270.691 48.8190   8
  12   8   5 86.6834 27.0826  22
 -12  -8  -5 121.844 31.3915   9
 -12   8  -5 132.751 29.6010   8
 -12  -8  -6 96.6717 25.6527   9
  12  -8   6 57.7854 25.1277  27
 -12   8  -6 63.2525 25.7434   8
 -12  -8  -6 47.0485 19.6681  26
  12  -9  -6 3.10059 17.9454  23
  12   9  -6-10.6094 19.8808  23
  12  -9  -5 881.822 62.8891   5
  12  -9  -5 1118.07 71.7498  25
  12   9  -5 1031.97 73.2113  25
  12  -9  -5 982.016 75.0769  23
  12   9  -4 58.4892 23.9425  25
  12  -9  -4 5.53332 27.3954  23
  12   9  -3 18.2928 24.6333  22
  12   9  -3-4.09561 22.7673  25
  12  -9  -3 27.9257 32.2823  23
  12  -9  -2 3578.44 152.712  27
  12   9  -2 3111.13 141.863  25
  12  -9  -2 3409.90 160.567  23
  12   9  -2 3699.77 160.160  22
  12   9  -1 277.147 53.1819  22
  12  -9  -1 250.927 48.3117  27
 -12   9   1 215.488 44.5116   8
  12   9  -1 184.032 36.5941  25
  12  -9  -1 228.470 51.8225  23
 -12   9   0 1822.02 112.899   8
  12  -9   0 1557.64 109.045  27
  12  -9   0 1741.05 110.909  23
  12   9   0 1719.12 115.378  22
  12   9   1 579.622 68.2305  22
 -12   9  -1 656.887 72.2549   8
  12  -9   1 604.654 66.2030  23
  12   9   2 16.5362 31.8486  22
 -12   9  -2 50.9631 30.9890   8
 -12  -9  -3 645.558 61.9699   9
 -12   9  -3 599.373 69.5592   8
  12   9   3 551.122 64.0023  22
 -12  -9  -4 653.630 60.8772   9
 -12   9  -4 617.489 65.4504   8
  12   9   4 674.663 64.0777  22
 -12  -9  -5 1434.62 87.9239   9
 -12   9  -5 1509.43 95.2460   8
  12  -9   5 1426.20 91.5318  27
  12   9   5 1367.86 84.3697  22
 -12  -9  -6 1501.04 83.3351   9
 -12   9  -6 1451.75 85.1529   8
  12  -9   6 1413.45 80.9883  27
  12  10  -6-31.1352 24.4775  25
  12 -10  -6 26.3380 16.6880  23
  12  10  -6 14.6760 17.3720  23
  12 -10  -5-11.5117 15.1278   5
  12  10  -5 19.1121 20.2509  25
  12 -10  -5-2.84572 22.4298  23
  12  10  -4 0.29744 20.9766  25
  12 -10  -4 1.34589 24.7173  23
  12  10  -3 646.440 62.2333  25
  12 -10  -3 590.150 65.2135  23
  12  10  -3 680.101 62.0196  22
  12 -10  -2 2815.53 132.156  27
  12  10  -2 2813.60 130.202  25
  12 -10  -2 2867.33 143.128  23
  12  10  -2 3052.56 141.097  22
 -12  10   1 5962.00 201.813   8
  12 -10  -1 5779.89 207.328  27
  12  10  -1 5696.32 191.179  25
  12 -10  -1 5547.04 208.615  23
  12  10  -1 5429.63 204.967  22
 -12  10   0 1393.68 96.1904   8
  12 -10   0 1296.20 96.4008  27
  12 -10   0 1366.80 96.8244  23
  12  10   0 1151.58 91.0150  22
 -12  10  -1 1544.50 102.473   8
  12 -10   1 1584.45 107.847  27
  12 -10   1 1312.38 91.7017  23
  12  10   1 1369.19 100.696  22
  12  10   2 38.1255 29.3537  22
  12 -10   2 1.53876 29.4321  27
 -12  10  -2 35.0660 25.6797   8
 -12 -10  -3 2430.92 116.801   9
 -12  10  -3 2209.72 123.671   8
  12 -10   3 2382.00 129.801  27
  12  10   3 2163.47 119.593  22
 -12 -10  -4 711.382 62.3821   9
 -12  10  -4 757.104 69.1680   8
  12 -10   4 684.641 66.9490  27
  12  10   4 727.991 65.5398  22
 -12 -10  -5 1064.48 73.1999   9
 -12  10  -5 995.144 75.1505   8
  12 -10   5 999.540 75.1217  27
  12  10   5 940.989 65.8033  22
 -12 -10  -6 480.668 46.0077   9
 -12  10  -6 509.643 48.9023   8
  12  11  -6 883.224 59.1101  25
  12 -11  -5 1466.18 78.1228   5
  12  11  -5 1552.05 86.3062  25
  12 -11  -5 1554.72 87.4139  23
  12 -11  -4 280.746 38.3746   5
  12  11  -4 307.221 41.9987  25
  12 -11  -4 206.154 37.0656  23
  12  11  -3 1020.81 75.4335  25
  12 -11  -3 1133.74 85.1458  23
  12  11  -3 1186.84 78.2797  22
  12 -11  -2 989.449 75.1878  27
  12  11  -2 1008.40 74.8333  25
  12 -11  -2 899.979 77.8802  23
  12  11  -2 1110.02 82.0367  22
  12  11  -1 95.0247 37.1273  22
  12 -11  -1 39.9023 27.1900  27
  12  11  -1 48.8033 25.1035  25
  12 -11  -1 20.3638 27.3591  23
  12  11   0 333.220 52.7650  22
  12 -11   0 399.432 55.9181  27
 -12  11   0 378.356 49.2762   8
  12 -11   0 311.868 47.2319  23
 -12  11  -1 811.487 73.7023   8
  12 -11   1 956.986 82.5421  27
  12 -11   1 777.266 69.4390  23
  12  11   1 900.075 79.0316  22
 -12  11  -2 556.217 61.5683   8
  12 -11   2 528.255 63.8791  27
  12  11   2 645.463 67.9393  22
  12  11   3 379.584 50.4189  22
 -12 -11  -3 439.719 48.1502   9
  12 -11   3 353.753 53.0017  27
 -12  11  -3 411.988 53.3978   8
 -12 -11  -4 1536.91 87.9408   9
 -12  11  -4 1618.40 98.2359   8
  12 -11   4 1528.95 95.3541  27
  12  11   4 1520.78 90.8368  22
 -12 -11  -5 899.797 64.7128   9
 -12  11  -5 1002.07 72.9207   8
  12 -11   5 833.508 66.1958  27
  12  11   5 872.222 59.9295  22
 -12  11  -6 2149.66 96.3966   8
  12 -12  -5 2598.75 102.810   5
  12  12  -5 2622.09 109.524  25
  12 -12  -5 2680.38 111.326  23
  12 -12  -4 336.344 40.4615   5
  12  12  -4 338.258 42.4530  25
  12 -12  -4 345.217 46.6201  23
  12  12  -3 266.716 38.9973  22
  12  12  -3 219.265 35.9785  25
  12 -12  -3 251.855 44.4877  23
  12 -12  -2 4032.09 150.976  27
  12  12  -2 3775.10 147.001  25
  12 -12  -2 3974.18 162.348  23
  12  12  -2 4104.94 158.001  22
  12 -12  -1 1682.56 100.285  27
  12  12  -1 1558.50 88.9778  25
  12 -12  -1 1518.17 97.9169  23
  12  12  -1 1620.38 100.158  22
 -12  12   0 587.194 57.8043   8
  12 -12   0 603.831 63.2165  27
  12 -12   0 636.819 62.4172  23
  12  12   0 563.982 62.3987  22
  12  12   1 408.592 52.9392  22
  12 -12   1 465.714 58.2075  27
 -12  12  -1 360.916 46.9214   8
  12 -12   1 471.811 51.7700  23
 -12  12  -2 584.420 60.4473   8
  12 -12   2 615.579 66.2068  27
  12  12   2 644.484 65.0912  22
  12  12   3 89.4797 31.7643  22
 -12 -12  -3 16.3051 16.5279   9
  12 -12   3 52.2856 29.7947  27
 -12  12  -3 34.2746 22.5540   8
  12  12   4 177.879 32.5993  22
 -12 -12  -4 157.787 31.8542   9
  12 -12   4 181.292 36.3158  27
 -12  12  -4 204.743 38.1584   8
 -12 -12  -5 72.1973 23.6054   9
  12 -12   5 47.9743 21.8423  27
 -12  12  -5 46.0725 23.4429   8
  12  13  -5 3656.45 126.359  25
  12 -13  -4 4334.03 145.143   5
  12  13  -4 4027.25 142.293  25
  12 -13  -4 4074.73 148.807  23
  12  13  -3 875.157 65.2956  25
  12 -13  -3 999.473 74.4008  23
  12  13  -3 977.399 65.0370  22
  12  13  -2 17.2552 22.2136  22
  12 -13  -2 12.4771 18.6110  27
  12  13  -2 50.2801 24.8370  25
  12 -13  -2 60.6153 29.6047  23
  12  13  -1 20.8080 25.5488  22
  12 -13  -1 59.9763 29.3398  27
  12  13  -1 12.6646 18.5244  25
  12 -13  -1 38.7753 28.8718  23
 -12  13   0 3239.73 130.646   8
  12 -13   0 3548.96 148.904  27
  12 -13   0 3296.42 139.719  23
  12  13   0 3534.91 148.283  22
  12  13   1 80.0601 32.4600  22
  12 -13   1 75.3645 28.5102  27
 -12  13  -1 77.8778 24.8585   8
  12 -13   1 101.553 29.3425  23
 -12  13  -2 1593.06 93.1598   8
  12 -13   2 1583.57 98.1477  27
  12  13   2 1486.75 92.8287  22
  12  13   3 165.777 33.1954  22
 -12 -13  -3 198.371 31.8791   9
  12 -13   3 176.780 37.4743  27
 -12  13  -3 260.268 40.3930   8
  12  13   4 234.617 33.6274  22
 -12 -13  -4 251.486 34.0286   9
  12 -13   4 223.227 36.0985  27
 -12  13  -4 269.978 39.1582   8
 -12  13  -5 3407.82 125.988   8
  12 -14  -4 2445.82 100.423   5
  12  14  -4 2441.54 101.227  25
  12 -14  -4 2586.70 107.268  23
  12  14  -3 5851.11 177.864  25
  12 -14  -3 6313.68 191.352  23
  12 -14  -2 1198.73 70.8900  27
  12  14  -2 1303.56 76.0921  25
  12 -14  -2 1361.13 85.2109  23
  12  14  -2 1336.60 79.7155  22
  12 -14  -1 3369.37 134.526  27
  12  14  -1 3052.55 120.412  25
  12 -14  -1 3440.79 138.312  23
  12  14  -1 3415.16 138.038  22
  12  14   0 83.4776 31.6816  22
  12 -14   0 74.7344 31.3751  27
  12 -14   0 104.502 28.6876  23
 -12  14  -1 1353.28 79.6246   8
  12 -14   1 1528.16 92.5588  27
  12 -14   1 1423.36 80.2174  23
  12  14   1 1443.12 89.0942  22
 -12  14  -2 1770.39 92.6503   8
  12 -14   2 1632.61 96.0646  27
  12  14   2 1696.12 94.0840  22
  12  14   3 62.1780 24.4551  22
 -12 -14  -3 48.7925 18.5780   9
  12 -14   3 16.3959 21.0764  27
 -12  14  -3 44.8725 21.9984   8
 -12  14  -4 886.385 62.4002   8
  12 -14   4 918.366 62.6192  27
  12  15  -3 363.259 37.9254  25
  12 -15  -3 384.999 42.3157  23
  12  15  -2 759.009 54.6040  25
  12 -15  -2 899.601 64.9868  23
  12  15  -2 837.806 59.3439  22
  12 -15  -1 519.027 49.5550  27
  12 -15  -1 591.991 54.1124  23
  12  15  -1 515.294 49.9077  22
  12  15   0 50.6154 23.4248  22
  12 -15   0 29.6166 21.9723  27
  12 -15   0 61.6649 23.4608  23
  12 -15   1 5082.11 173.089  27
  12  15   1 5353.76 174.348  22
  12  15   2 354.378 42.3847  22
  12 -15   2 271.783 38.3357  27
 -12  15  -2 305.631 35.6228   8
  12 -15   3 453.976 46.0041  27
  12 -16  -2 881.950 59.3381  23
  12 -16  -1 523.390 46.5353  23
  12  16  -1 558.049 48.1887  22
  12 -16   0 635.554 52.2711  27
  12  16   0 640.625 53.1929  22
  12  16   1 349.517 39.2931  22
  12 -16   1 352.048 40.8739  27
  12 -16   2 618.782 51.7702  27
  13   0  -5 64.5063 20.2182  25
  13   0  -5 98.9620 27.8779  23
  13   0  -4-10.3185 19.8855  25
  13   0  -4-53.9585 34.2688  23
  13   0  -3 225.663 41.5896  23
  13   0  -2-44.3753 31.4459  23
  13   0  -2-22.0405 25.0253  22
  13   0  -1 2773.47 137.638  23
  13   0  -1 2868.66 135.625  22
  13   0   0-10.2600 27.3797  23
  13   0   0-54.9788 36.1195  22
  13   0   1 3774.71 153.385  23
  13   0   1 4076.72 171.718  22
  13   0   2-10.7264 28.9855  22
  13   0   3 42.7911 28.8713  22
 -13   0  -4-11.5119 21.9972   8
  13   0   4-31.4941 26.6685  22
 -13   0  -5 35.4924 19.5341   8
  13  -1  -5 1684.11 83.4531  25
  13   1  -5 1670.47 85.4367  25
  13  -1  -5 1810.62 95.4076  23
  13   1  -5 1834.52 95.6333  23
  13  -1  -4 1308.92 75.6155  25
  13   1  -4 1412.10 80.0935  25
  13  -1  -4 1490.72 93.1292  23
  13   1  -4 1507.86 93.0236  23
  13  -1  -3 634.559 64.5990  23
  13   1  -3 708.083 66.7697  23
  13  -1  -2 39.6938 27.4403  23
  13   1  -2 0.54672 27.4744  23
  13  -1  -2 31.4627 26.7320  22
  13   1  -2 65.3600 25.8165  22
  13  -1  -1 1130.59 86.9288  23
  13   1  -1 1101.13 85.5060  23
  13  -1  -1 1189.11 85.8543  22
  13   1  -1 1126.91 84.1655  22
  13  -1   0 59.4747 28.1068  23
  13   1   0 4.83882 28.0804  23
  13  -1   0 14.9159 28.6884  22
  13   1   0 24.1234 28.0178  22
  13  -1   1 2271.46 116.532  23
  13   1   1 2370.46 117.864  23
  13  -1   1 2363.71 128.256  22
  13   1   1 2369.26 128.405  22
  13  -1   2 2611.46 134.183  22
  13   1   2 2545.29 133.665  22
  13  -1   3 2071.19 116.170  22
  13   1   3 2060.67 115.561  22
 -13   1  -4 329.751 48.4500   8
 -13  -1  -4 305.138 43.4807   8
  13  -1   4 327.439 45.5707  22
  13   1   4 377.322 49.0878  22
 -13   1  -5 267.933 37.3630   8
 -13  -1  -5 216.050 32.9226   8
  13   2  -5-13.2049 21.8540  25
  13  -2  -5 10.6864 20.1429  23
  13   2  -5-57.4827 27.8965  23
  13   2  -4 1600.64 86.0974  25
  13  -2  -4 1681.34 98.6567  23
  13   2  -4 1687.78 99.3204  23
  13  -2  -3-45.9163 33.6451  23
  13   2  -3-23.9289 31.2598  23
  13  -2  -2 1871.30 110.043  23
  13   2  -2 1799.18 109.419  23
  13   2  -2 1847.07 101.847  22
  13  -2  -1 4.49018 27.7145  23
  13   2  -1-2.87426 30.0447  23
  13  -2  -1 16.5178 25.0701  22
  13   2  -1-24.2116 29.9962  22
  13   2   0 266.879 47.8369  22
  13  -2   0 270.528 43.3539  23
  13   2   0 268.605 44.8708  23
  13  -2   0 257.876 45.9331  22
  13   2   1 43.2530 30.3725  22
  13  -2   1 80.4517 26.2934  23
  13   2   1 65.3344 27.0773  23
  13  -2   1 120.750 37.7010  22
  13  -2   2 586.080 65.3008  22
  13   2   2 411.432 57.0578  22
 -13   2  -3 849.266 75.8914   8
  13  -2   3 893.854 76.0168  22
  13   2   3 885.839 75.8506  22
 -13   2  -4 990.955 75.3835   8
  13   2   4 919.767 72.7613  22
 -13   2  -5 289.681 39.2455   8
 -13  -2  -5 213.306 34.1383   8
  13   2   5 318.175 39.9868  22
  13   3  -5 1169.40 70.4447  25
  13  -3  -5 1311.75 80.1416  23
  13   3  -5 1367.39 80.7300  23
  13   3  -4 3302.08 128.453  25
  13  -3  -4 3691.47 148.523  23
  13   3  -4 3705.05 148.412  23
  13  -3  -3 443.260 53.5672  23
  13   3  -3 445.997 55.7489  23
  13  -3  -2 310.696 48.0155  23
  13   3  -2 275.248 46.4516  23
  13   3  -2 321.934 45.0000  22
  13   3  -1 332.662 47.2334  22
  13  -3  -1 356.120 50.1703  23
  13   3  -1 346.764 51.6141  23
  13  -3  -1 364.073 47.5561  22
  13  -3   0 998.122 80.0348  23
  13   3   0 948.561 76.2879  23
  13  -3   0 1030.87 82.1227  22
  13   3   0 1027.49 83.1367  22
  13  -3   1 607.551 58.3867  23
  13   3   1 640.757 59.9834  23
  13  -3   1 751.180 69.4772  22
  13   3   1 668.439 68.2191  22
  13   3   2-20.1643 31.6408  22
  13  -3   2 17.3469 31.3503  22
 -13   3  -3 61.5358 28.4727   8
  13   3   3 41.3125 24.4718  22
 -13   3  -4 302.809 44.7595   8
  13   3   4 393.657 50.0122  22
 -13   3  -5 2034.43 100.803   8
  13   3   5 1969.45 94.8950  22
  13   4  -5 2284.03 98.8498  25
  13  -4  -5 2311.66 105.898  23
  13   4  -5 2245.45 104.111  23
  13   4  -4 11.2122 18.6597  25
  13  -4  -4-45.4691 29.5986  23
  13   4  -4-27.1051 26.7212  23
  13   4  -3 1955.39 95.8716  25
  13  -4  -3 2141.52 113.598  23
  13   4  -3 1959.44 109.454  23
  13   4  -2 411.981 49.7771  22
  13  -4  -2 301.876 46.6352  23
  13   4  -2 369.130 52.1870  23
  13   4  -1-8.48651 26.1280  22
  13  -4  -1 3.82343 27.8875  23
  13   4  -1 47.4127 27.1197  23
  13  -4   0 2297.37 119.459  23
  13   4   0 2380.65 121.436  23
  13   4   0 2505.53 127.987  22
  13   4   1 26.0607 28.4812  22
  13  -4   1 71.7006 24.9682  23
  13   4   1 42.9035 23.9683  23
  13   4   2 501.381 60.9151  22
 -13   4  -2 681.565 70.2015   8
  13   4   3 213.615 40.1676  22
 -13   4  -3 317.934 48.1612   8
 -13   4  -4 1337.50 86.3928   8
  13   4   4 1308.67 83.8234  22
 -13   4  -5 531.160 50.4274   8
  13   4   5 443.486 45.1220  22
  13   5  -5 1481.94 76.8450  25
  13  -5  -5 1516.98 82.7815  23
  13   5  -5 1578.55 84.6004  23
  13   5  -4 380.519 41.8962  25
  13  -5  -4 333.993 45.2569  23
  13   5  -4 346.522 44.5356  23
  13   5  -3 800.170 59.3884  25
  13  -5  -3 882.615 72.5383  23
  13   5  -3 884.203 73.1016  23
 -13   5   2 942.268 68.9832   8
  13  -5  -2 896.182 76.1732  23
  13   5  -2 886.585 74.8066  23
  13   5  -2 956.825 71.6447  22
 -13   5   1 1476.07 93.4322   8
  13  -5  -1 1499.38 91.2099  27
  13  -5  -1 1456.53 95.2017  23
  13   5  -1 1472.69 95.0914  23
  13   5  -1 1605.28 98.7103  22
  13   5   0 296.597 48.1842  22
 -13   5   0 312.789 48.8840   8
  13  -5   0 306.316 48.2676  23
  13   5   0 281.908 45.3968  23
  13   5   1 19.9907 25.9466  22
 -13   5  -1 54.6707 28.6451   8
  13  -5   1 43.0909 24.1440  23
  13   5   1 31.6020 21.9938  23
 -13   5  -2 3450.16 152.686   8
  13   5   2 3438.00 150.965  22
 -13   5  -3 1004.56 78.4338   8
  13   5   3 1234.63 86.4083  22
 -13   5  -4 119.565 31.0440   8
  13   5   4 95.1564 29.3369  22
 -13   5  -5 211.909 33.7491   8
  13  -6  -5 543.322 48.5108  23
  13   6  -5 556.396 49.5311  23
  13   6  -4 1006.38 65.1742  25
  13  -6  -4 1272.08 81.0746  23
  13   6  -4 1221.24 78.7649  23
  13   6  -3-45.4146 23.8375  25
  13  -6  -3 28.4719 25.3430  23
  13   6  -3 23.1035 26.0931  23
  13  -6  -2 1417.90 91.3120  23
  13   6  -2 1545.60 95.7170  23
  13   6  -2 1476.50 87.5679  22
 -13   6   1 1641.99 94.7443   8
  13  -6  -1 1410.58 87.1295  27
  13  -6  -1 1307.21 89.8796  23
  13   6  -1 1496.47 94.8815  23
  13   6  -1 1456.56 92.5476  22
  13   6   0 370.850 50.7573  22
 -13   6   0 400.543 51.1155   8
  13  -6   0 368.545 48.3593  23
  13   6   0 391.126 48.0021  23
  13   6   1-2.66109 25.2139  22
 -13   6  -1 26.2629 24.8795   8
  13  -6   1 49.7111 25.5712  23
  13   6   1 11.6634 18.6860  23
  13   6   2 406.604 56.2657  22
 -13   6  -2 464.284 57.3525   8
 -13   6  -3 8261.26 244.759   8
  13   6   3 8098.55 238.973  22
 -13   6  -4 51.7672 25.5185   8
  13   6   4 35.3200 20.9852  22
 -13   6  -5 164.638 30.1390   8
  13  -7  -4 3016.67 124.717  23
  13   7  -4 3209.20 127.121  23
  13   7  -3 936.754 62.6432  25
  13  -7  -3 944.039 71.9828  23
  13   7  -3 1013.73 74.8512  23
  13   7  -2-11.4610 19.0724  22
  13  -7  -2 29.3674 29.2250  23
  13   7  -2-27.7113 23.9221  23
  13   7  -1 347.966 47.9182  22
  13  -7  -1 334.680 42.5977  27
 -13   7   1 388.760 45.1406   8
  13  -7  -1 362.535 47.8040  23
  13   7  -1 338.218 45.6656  23
 -13   7   0 730.304 63.8369   8
  13  -7   0 602.301 59.5545  27
  13  -7   0 692.884 62.4782  23
  13   7   0 618.353 58.7110  23
  13   7   0 564.474 60.6113  22
  13   7   1 383.070 51.9071  22
 -13   7  -1 348.928 46.5727   8
  13  -7   1 233.265 35.1510  23
  13   7   1 290.832 39.0387  23
  13   7   2 298.102 47.8597  22
 -13   7  -2 308.690 45.5509   8
  13   7   3 51.7860 28.6293  22
 -13   7  -3 78.4497 32.4142   8
 -13   7  -4 16.9768 18.8112   8
  13   7   4-10.8758 18.9111  22
  13  -8  -4 40.7471 21.7285  23
  13   8  -4 48.8175 24.1133  23
  13   8  -3 1124.88 66.8411  25
  13  -8  -3 1329.31 82.2720  23
  13   8  -3 1254.48 80.1337  23
  13   8  -2 57.7297 23.0131  22
  13  -8  -2 21.7357 21.3164  23
  13   8  -2 24.5717 23.0316  23
 -13   8   1 444.127 46.2084   8
  13  -8  -1 397.395 45.1563  27
  13   8  -1 440.891 51.1368  23
  13  -8  -1 368.012 46.5031  23
  13   8  -1 472.985 52.8462  22
  13   8   0 34.7863 26.0687  22
  13  -8   0-34.3341 28.5614  27
 -13   8   0 10.9317 18.6905   8
  13  -8   0-5.08008 22.8113  23
  13   8   0 15.2605 21.7841  23
 -13   8  -1 1262.51 84.2582   8
  13  -8   1 1405.79 89.6204  27
  13  -8   1 1206.22 73.9821  23
  13   8   1 1278.56 75.6307  23
  13   8   1 1201.24 84.1829  22
 -13   8  -2 1067.44 76.9142   8
  13  -8   2 1022.29 78.0611  27
  13   8   2 1125.89 79.6610  22
 -13   8  -3 1009.08 71.7380   8
  13  -8   3 965.844 72.9367  27
  13   8   3 872.478 67.8792  22
 -13   8  -4 1273.30 77.2941   8
  13  -8   4 1334.26 79.1861  27
  13   8   4 1170.48 70.7116  22
  13  -9  -4 113.041 25.0439  23
  13   9  -4 163.203 29.2715  23
  13  -9  -3 1481.31 84.3973  23
  13   9  -3 1475.42 85.2225  23
  13   9  -2 0.03395 16.4885  22
  13  -9  -2-33.3163 25.7194  23
  13  -9  -1 219.942 31.8743  27
  13  -9  -1 211.611 36.3793  23
 -13   9   0 1544.80 86.2974   8
  13  -9   0 1547.73 89.3849  27
  13  -9   0 1536.70 87.2240  23
  13   9   0 1529.67 86.7910  23
  13   9   0 1546.64 92.4660  22
  13   9   1 404.235 50.3307  22
 -13   9  -1 432.502 48.1727   8
  13  -9   1 458.245 51.2505  27
 -13   9  -2 2958.27 125.877   8
  13  -9   2 2915.01 128.085  27
  13   9   2 2720.62 122.177  22
  13   9   3 30.0233 20.0544  22
  13  -9   3 5.29344 19.9145  27
 -13   9  -3 19.5555 18.8879   8
 -13   9  -4 464.296 44.9595   8
  13  -9   4 506.369 48.1073  27
  13 -10  -3 35.4006 21.1876  23
  13  10  -3-8.71331 17.3392  23
  13 -10  -2 1131.05 72.9715  23
  13  10  -2 1171.76 68.8314  22
  13  10  -1 3.14453 18.7213  22
  13 -10  -1-0.57827 15.4829  27
  13 -10  -1-10.5549 19.9781  23
 -13  10   0 1749.33 87.3081   8
  13 -10   0 1907.40 96.4387  27
  13 -10   0 1809.69 90.6882  23
  13  10   0 1912.30 92.8213  23
  13  10   0 1871.20 98.6477  22
 -13  10  -1 373.204 42.5783   8
  13 -10   1 321.709 42.7852  27
  13  10   1 407.326 48.7934  22
 -13  10  -2 638.963 55.2170   8
  13 -10   2 770.147 62.2057  27
  13  10   2 690.442 59.1036  22
  13  10   3 28.5446 20.4153  22
  13 -10   3 47.0574 23.2329  27
 -13  10  -3-7.04199 20.4109   8
  13 -11  -2 15.3186 17.6960  23
  13  11  -1 59.1428 22.4151  22
  13 -11  -1 7.11258 18.9399  23
  13 -11   0 1821.15 89.7634  27
  13  11   0 1671.36 90.2144  22
  13 -11   1 2877.99 117.867  27
  13  11   1 2918.81 120.453  22
  13 -11   2 368.911 43.0981  27
  13  11   2 379.227 42.9892  22
  13  12   0 2458.80 104.530  22
  13  12   1 177.700 32.9011  22
 -14   0  -1 19.1871 19.3164   8
 -14   0  -2 26.0856 18.7004   8
 -14   1   0 652.015 55.2466   8
  14   1   0 728.748 56.9784  22
 -14   1  -1 1249.30 77.0961   8
  14   1   1 1349.94 77.8004  22
 -14   1  -2 325.705 40.3352   8
 -14  -1  -2 266.448 37.0860   8
 -14   2   0 7823.54 213.632   8
  14   2   0 7792.39 209.334  22
 -14   2  -1 661.099 54.4900   8
  14   2   1 636.601 53.5649  22
 -14   2  -2 556.662 49.2921   8
  14   2   2 456.984 45.2315  22
 -14   3  -1 591.925 50.5450   8
  14   3   1 629.795 52.5136  22
   0   0   0    0.00    0.00   0
TITL Mohamed-EB-43 in P2(1)/n
REM P2(1)/n (#14 in standard setting)
CELL 1.54184  11.522703  25.529255  12.474918  90.0000  90.0384  90.0000
ZERR    6.00   0.000116   0.000264   0.000130   0.0000   0.0009   0.0000
LATT  1
SYMM -x+1/2, y+1/2,-z+1/2
SFAC C H N O S
UNIT 180.00 120.00 12.00 18.00 6.00
TREF
HKLF 4
END
;
_shelx_hkl_checksum              69539
_shelx_res_file
;
TITL zp4010 in P2(1)/n
 shelx.res created by SHELXL-2016/4 at 11:03:49 on 26-Oct-2016
CELL  1.54184  11.5227  25.5293  12.4749   90.000   90.038   90.000
ZERR     8.00   0.0001   0.0003   0.0001    0.000    0.001    0.000
LATT   1
SYMM  1/2 - X, 1/2 + Y, 1/2 - Z
SFAC  C    H    N    O    S
UNIT  176 144 16 24 8
MERG   2
SADI C6A C17A C6A C17C
SADI C17A C18A C17C C18C
SADI C18A C19A C18C C19C
SADI C19A C20A C19C C20C
SADI C20A O3A C20C O3C
SADI O3A C17A O3C C17C
EADP C17A C17C
EADP C18A C18C
EADP C19A C19C
EADP C20A C20C
EADP O3A O3C
HTAB N2A O1A
HTAB N2A O1B
HTAB N2A O3A
HTAB N2B O1A
HTAB N2B O1B
FMAP   2
PLAN    3
ACTA
BOND   $H
CONF
L.S.  13
WGHT    0.074800    1.465800
FVAR       2.10042   0.73452
S1A   5    0.224901    0.339845    0.860418    11.00000    0.02406    0.01813 =
         0.03450    0.00198    0.00498   -0.00011
O1A   4    0.560950    0.338647    0.806438    11.00000    0.02390    0.03098 =
         0.04742   -0.00096    0.00160    0.00205
O2A   4    0.427202    0.275909    0.838210    11.00000    0.03041    0.02273 =
         0.03773    0.00182    0.00237    0.00454
N1A   3    0.059712    0.412760    0.862451    11.00000    0.02257    0.02114 =
         0.02859   -0.00102    0.00256   -0.00094
N2A   3    0.462571    0.437279    0.753391    11.00000    0.02267    0.02527 =
         0.05430    0.00453    0.00720    0.00047
HN2A  2    0.522212    0.419098    0.747539    11.00000   -1.20000
HN2B  2    0.462487    0.470493    0.742174    11.00000   -1.20000
C1A   1    0.460674    0.325713    0.821234    11.00000    0.02760    0.02435 =
         0.02521   -0.00063    0.00087    0.00262
C2A   1    0.363027    0.361418    0.822710    11.00000    0.02236    0.02322 =
         0.03051   -0.00064    0.00317   -0.00057
C3A   1    0.366898    0.413727    0.793076    11.00000    0.02302    0.02260 =
         0.02803   -0.00238    0.00134   -0.00097
C4A   1    0.254019    0.438561    0.805286    11.00000    0.02346    0.02126 =
         0.02473   -0.00125    0.00280   -0.00176
C5A   1    0.170464    0.402535    0.841251    11.00000    0.02493    0.01924 =
         0.02550   -0.00105    0.00135   -0.00105
C6A   1    0.215241    0.490429    0.786778    11.00000    0.02549    0.02043 =
         0.02629   -0.00045    0.00313   -0.00119
C7A   1    0.098787    0.501956    0.805716    11.00000    0.02582    0.02121 =
         0.02541    0.00037    0.00176    0.00022
C8A   1    0.024902    0.461965    0.845835    11.00000    0.02355    0.02249 =
         0.02471   -0.00115    0.00076   -0.00089
C9A   1   -0.096663    0.474366    0.874983    11.00000    0.02294    0.02604 =
         0.02583    0.00013   -0.00018    0.00061
C10A  1   -0.176352    0.434195    0.894467    11.00000    0.02577    0.02910 =
         0.03291   -0.00108    0.00156   -0.00199
AFIX  43
H10A  2   -0.153863    0.399475    0.885679    11.00000   -1.20000
AFIX   0
C11A  1   -0.288509    0.445649    0.926746    11.00000    0.02543    0.03896 =
         0.03698    0.00140    0.00270   -0.00535
AFIX  43
H11A  2   -0.341193    0.418752    0.939354    11.00000   -1.20000
AFIX   0
C12A  1   -0.321848    0.497446    0.940170    11.00000    0.02274    0.04561 =
         0.03774    0.00282    0.00439    0.00595
AFIX  43
H12A  2   -0.396979    0.505315    0.962087    11.00000   -1.20000
AFIX   0
C13A  1   -0.243274    0.537516    0.920946    11.00000    0.02994    0.03303 =
         0.03438    0.00197    0.00328    0.00741
AFIX  43
H13A  2   -0.266326    0.572119    0.930411    11.00000   -1.20000
AFIX   0
C14A  1   -0.130534    0.526765    0.887733    11.00000    0.02551    0.02806 =
         0.02696    0.00184    0.00051    0.00337
C15A  1   -0.043487    0.569748    0.868934    11.00000    0.03020    0.02114 =
         0.03960    0.00145    0.00547    0.00478
AFIX  23
H15A  2   -0.003843    0.577505    0.935690    11.00000   -1.20000
H15B  2   -0.083923    0.601183    0.846270    11.00000   -1.20000
AFIX   0
C16A  1    0.045871    0.554859    0.784156    11.00000    0.02787    0.02290 =
         0.03461    0.00513    0.00544    0.00179
AFIX  23
H16A  2    0.008902    0.554493    0.714280    11.00000   -1.20000
H16B  2    0.106769    0.581082    0.782748    11.00000   -1.20000
AFIX   0
PART    1
C17A  1    0.297864    0.531443    0.752385    21.00000    0.02393    0.01901 =
         0.03573    0.00073    0.00790    0.00280
C18A  1    0.296129    0.566224    0.670690    21.00000    0.04452    0.02787 =
         0.03840    0.00918    0.01202   -0.00228
AFIX  43
H18A  2    0.240017    0.569180    0.617413    21.00000   -1.20000
AFIX   0
C19A  1    0.399236    0.597868    0.683031    21.00000    0.04936    0.02600 =
         0.05852    0.00262    0.02476   -0.00943
AFIX  43
H19A  2    0.422671    0.625051    0.638384    21.00000   -1.20000
AFIX   0
C20A  1    0.453883    0.581103    0.769182    21.00000    0.03742    0.02549 =
         0.06217   -0.00290    0.01669   -0.01275
AFIX  43
H20A  2    0.523515    0.594683    0.794691    21.00000   -1.20000
AFIX   0
O3A   4    0.393788    0.540855    0.815963    21.00000    0.02834    0.02820 =
         0.04444    0.00116    0.00240   -0.01036
PART    2
C17C  1    0.281867    0.534572    0.740732   -21.00000    0.02393    0.01901 =
         0.03573    0.00073    0.00790    0.00280
C18C  1    0.378803    0.558549    0.772877   -21.00000    0.04452    0.02787 =
         0.03840    0.00918    0.01202   -0.00228
AFIX  43
H18C  2    0.422078    0.551525    0.834168   -21.00000   -1.20000
AFIX   0
C19C  1    0.402103    0.597659    0.692306   -21.00000    0.04936    0.02600 =
         0.05852    0.00262    0.02476   -0.00943
AFIX  43
H19C  2    0.462936    0.621598    0.691796   -21.00000   -1.20000
AFIX   0
C20C  1    0.321130    0.592739    0.620649   -21.00000    0.03742    0.02549 =
         0.06217   -0.00290    0.01669   -0.01275
AFIX  43
H20C  2    0.315117    0.614125    0.560551   -21.00000   -1.20000
AFIX   0
O3C   4    0.244953    0.552541    0.642814   -21.00000    0.02834    0.02820 =
         0.04444    0.00116    0.00240   -0.01036
PART    0
C21A  1    0.518850    0.237121    0.835631    11.00000    0.03842    0.02725 =
         0.03860   -0.00090   -0.00543    0.01098
AFIX  23
H21A  2    0.570214    0.241588    0.896586    11.00000   -1.20000
H21B  2    0.564068    0.240675    0.770478    11.00000   -1.20000
AFIX   0
C22A  1    0.461952    0.184390    0.839561    11.00000    0.05915    0.02625 =
         0.05176    0.00082   -0.01508    0.00840
AFIX 137
H22A  2    0.417416    0.179079    0.775411    11.00000   -1.50000
H22B  2    0.411632    0.182600    0.900753    11.00000   -1.50000
H22C  2    0.520348    0.157701    0.845037    11.00000   -1.50000
AFIX   0
S1B   5    1.024240    0.424306    0.566740    11.00000    0.02241    0.02259 =
         0.03701    0.00390    0.00525    0.00243
O1B   4    0.696724    0.430204    0.656575    11.00000    0.02477    0.03623 =
         0.04880    0.00773    0.00694    0.00530
O2B   4    0.825457    0.491301    0.601539    11.00000    0.02931    0.02917 =
         0.05305    0.00597    0.00804    0.00701
O3B   4    0.865456    0.214418    0.609040    11.00000    0.04568    0.05166 =
         0.04397   -0.00186   -0.00762   -0.01836
N1B   3    1.186422    0.348706    0.564420    11.00000    0.02142    0.02388 =
         0.02865    0.00097    0.00270    0.00077
N2B   3    0.789630    0.330342    0.693222    11.00000    0.02154    0.02792 =
         0.04835    0.00345    0.00524    0.00027
HN2C  2    0.797613    0.300666    0.719473    11.00000   -1.20000
HN2D  2    0.730158    0.350039    0.706873    11.00000   -1.20000
C1B   1    0.793657    0.442039    0.627137    11.00000    0.02402    0.03087 =
         0.03270    0.00318    0.00203    0.00293
C2B   1    0.888444    0.405213    0.616520    11.00000    0.02126    0.02799 =
         0.03077    0.00079    0.00231    0.00112
C3B   1    0.883676    0.353487    0.648929    11.00000    0.02056    0.02790 =
         0.02676   -0.00238   -0.00128   -0.00026
C4B   1    0.992952    0.326990    0.629832    11.00000    0.02191    0.02545 =
         0.02413   -0.00059   -0.00091   -0.00025
C5B   1    1.076896    0.361295    0.587995    11.00000    0.02393    0.02260 =
         0.02693   -0.00018   -0.00066    0.00031
C6B   1    1.025691    0.274314    0.643582    11.00000    0.02340    0.02352 =
         0.02398   -0.00109   -0.00274   -0.00269
C7B   1    1.138742    0.259938    0.619245    11.00000    0.02612    0.02301 =
         0.02607    0.00063   -0.00192    0.00086
C8B   1    1.216952    0.298833    0.582451    11.00000    0.02389    0.02440 =
         0.02467   -0.00160   -0.00019    0.00138
C9B   1    1.339370    0.284656    0.563138    11.00000    0.02498    0.02819 =
         0.02287    0.00204    0.00060    0.00436
C10B  1    1.425852    0.323032    0.563023    11.00000    0.02681    0.03088 =
         0.02517   -0.00004   -0.00096    0.00301
AFIX  43
H10B  2    1.406239    0.357947    0.574158    11.00000   -1.20000
AFIX   0
C11B  1    1.540653    0.309236    0.546384    11.00000    0.02382    0.04131 =
         0.02966    0.00250   -0.00164    0.00045
AFIX  43
H11B  2    1.598095    0.334818    0.547796    11.00000   -1.20000
AFIX   0
C12B  1    1.570215    0.257407    0.527625    11.00000    0.02401    0.04729 =
         0.03708    0.00479    0.00187    0.01007
AFIX  43
H12B  2    1.647229    0.248335    0.515318    11.00000   -1.20000
AFIX   0
C13B  1    1.485106    0.219181    0.527220    11.00000    0.03313    0.03331 =
         0.03931    0.00351    0.00302    0.01200
AFIX  43
H13B  2    1.505379    0.184524    0.513931    11.00000   -1.20000
AFIX   0
C14B  1    1.369358    0.231944    0.546473    11.00000    0.02840    0.02837 =
         0.03029    0.00264    0.00114    0.00630
C15B  1    1.274302    0.191470    0.547641    11.00000    0.03481    0.02299 =
         0.04647   -0.00113    0.00235    0.00525
AFIX  23
H15C  2    1.307342    0.157309    0.562736    11.00000   -1.20000
H15D  2    1.237743    0.189993    0.477643    11.00000   -1.20000
AFIX   0
C16B  1    1.183139    0.204664    0.632466    11.00000    0.02993    0.02525 =
         0.04425    0.00523    0.00391    0.00201
AFIX  23
H16C  2    1.118817    0.180319    0.626580    11.00000   -1.20000
H16D  2    1.216931    0.200740    0.703249    11.00000   -1.20000
AFIX   0
C17B  1    0.940797    0.235002    0.681321    11.00000    0.02087    0.02266 =
         0.03203   -0.00017   -0.00252    0.00070
C18B  1    0.917810    0.217569    0.780112    11.00000    0.03533    0.04816 =
         0.02604    0.00405    0.00007   -0.00031
AFIX  43
H18B  2    0.956365    0.226416    0.843077    11.00000   -1.20000
AFIX   0
C19B  1    0.821298    0.182359    0.768982    11.00000    0.03831    0.03894 =
         0.07473    0.02762    0.02147    0.00599
AFIX  43
H19B  2    0.785630    0.163445    0.823494    11.00000   -1.20000
AFIX   0
C20B  1    0.793083    0.182044    0.666617    11.00000    0.03791    0.03605 =
         0.08686   -0.00563    0.00297   -0.01595
AFIX  43
H20B  2    0.732602    0.162626    0.637295    11.00000   -1.20000
AFIX   0
C21B  1    0.738546    0.531996    0.617790    11.00000    0.03883    0.03389 =
         0.04845   -0.00041    0.00559    0.00754
AFIX  23
H21C  2    0.776869    0.565605    0.625701    11.00000   -1.20000
H21D  2    0.696033    0.524921    0.683296    11.00000   -1.20000
AFIX   0
C22B  1    0.655356    0.534453    0.525474    11.00000    0.04594    0.04282 =
         0.05550    0.00589    0.00117    0.01320
AFIX 137
H22D  2    0.697369    0.541281    0.460532    11.00000   -1.50000
H22E  2    0.600206    0.562013    0.537528    11.00000   -1.50000
H22F  2    0.615224    0.501639    0.519249    11.00000   -1.50000
AFIX   0
HKLF 4
REM  zp4010 in P2(1)/n
REM R1 =  0.0424 for    6264 Fo > 4sig(Fo)  and  0.0478 for all    7070 data
REM    535 parameters refined using      6 restraints
END
WGHT      0.0748      1.4658
REM Highest difference peak  0.509,  deepest hole -0.347,  1-sigma level  0.061
Q1    1   0.9143  0.2404  0.7738  11.00000  0.05    0.51
Q2    1   0.8045  0.4783  0.5365  11.00000  0.05    0.51
Q3    1   0.7202  0.5176  0.5374  11.00000  0.05    0.42
;
_shelx_res_checksum              22087
loop_
_space_group_symop_operation_xyz
'x, y, z'
'-x+1/2, y+1/2, -z+1/2'
'-x, -y, -z'
'x-1/2, -y-1/2, z-1/2'
loop_
_atom_site_type_symbol
_atom_site_label
_atom_site_fract_x
_atom_site_fract_y
_atom_site_fract_z
_atom_site_U_iso_or_equiv
_atom_site_adp_type
_atom_site_calc_flag
_atom_site_occupancy
_atom_site_disorder_assembly
_atom_site_disorder_group
S S1A 0.22490(3) 0.33984(2) 0.86042(3) 0.02556(12) Uani d 1 . .
O O1A 0.56095(11) 0.33865(5) 0.80644(11) 0.0341(3) Uani d 1 . .
O O2A 0.42720(11) 0.27591(5) 0.83821(10) 0.0303(3) Uani d 1 . .
N N1A 0.05971(12) 0.41276(5) 0.86245(11) 0.0241(3) Uani d 1 . .
N N2A 0.46257(14) 0.43728(7) 0.75339(14) 0.0341(3) Uani d 1 . .
H HN2A 0.522(2) 0.4191(10) 0.7475(19) 0.041 Uiso d 1 . .
H HN2B 0.462(2) 0.4705(10) 0.7422(19) 0.041 Uiso d 1 . .
C C1A 0.46067(15) 0.32571(7) 0.82123(13) 0.0257(3) Uani d 1 . .
C C2A 0.36303(14) 0.36142(6) 0.82271(13) 0.0254(3) Uani d 1 . .
C C3A 0.36690(14) 0.41373(6) 0.79308(13) 0.0245(3) Uani d 1 . .
C C4A 0.25402(14) 0.43856(6) 0.80529(13) 0.0231(3) Uani d 1 . .
C C5A 0.17046(14) 0.40254(6) 0.84125(13) 0.0232(3) Uani d 1 . .
C C6A 0.21524(14) 0.49043(6) 0.78678(13) 0.0241(3) Uani d 1 . .
C C7A 0.09879(14) 0.50196(6) 0.80572(13) 0.0241(3) Uani d 1 . .
C C8A 0.02490(14) 0.46196(6) 0.84584(12) 0.0236(3) Uani d 1 . .
C C9A -0.09666(14) 0.47437(7) 0.87498(13) 0.0249(3) Uani d 1 . .
C C10A -0.17635(15) 0.43420(7) 0.89447(14) 0.0293(4) Uani d 1 . .
H H10A -0.153863 0.399475 0.885679 0.035 Uiso calc 1 . .
C C11A -0.28851(16) 0.44565(8) 0.92675(15) 0.0338(4) Uani d 1 . .
H H11A -0.341193 0.418752 0.939354 0.041 Uiso calc 1 . .
C C12A -0.32185(16) 0.49745(8) 0.94017(15) 0.0354(4) Uani d 1 . .
H H12A -0.396979 0.505315 0.962087 0.042 Uiso calc 1 . .
C C13A -0.24327(16) 0.53752(7) 0.92095(15) 0.0324(4) Uani d 1 . .
H H13A -0.266326 0.572119 0.930411 0.039 Uiso calc 1 . .
C C14A -0.13053(15) 0.52677(7) 0.88773(13) 0.0268(3) Uani d 1 . .
C C15A -0.04349(16) 0.56975(7) 0.86893(15) 0.0303(4) Uani d 1 . .
H H15A -0.003843 0.577505 0.935690 0.036 Uiso calc 1 . .
H H15B -0.083923 0.601183 0.846270 0.036 Uiso calc 1 . .
C C16A 0.04587(15) 0.55486(6) 0.78416(14) 0.0285(3) Uani d 1 . .
H H16A 0.008902 0.554493 0.714280 0.034 Uiso calc 1 . .
H H16B 0.106769 0.581082 0.782748 0.034 Uiso calc 1 . .
C C17A 0.2979(7) 0.5314(4) 0.7524(8) 0.0262(10) Uani d 0.735(3) A 1
C C18A 0.2961(3) 0.56622(11) 0.6707(2) 0.0369(6) Uani d 0.735(3) A 1
H H18A 0.240017 0.569180 0.617413 0.044 Uiso calc 0.735(3) A 1
C C19A 0.3992(16) 0.5979(7) 0.6830(12) 0.0446(9) Uani d 0.735(3) A 1
H H19A 0.422671 0.625051 0.638384 0.054 Uiso calc 0.735(3) A 1
C C20A 0.4539(2) 0.58110(10) 0.7692(3) 0.0417(6) Uani d 0.735(3) A 1
H H20A 0.523515 0.594683 0.794691 0.050 Uiso calc 0.735(3) A 1
O O3A 0.39379(15) 0.54085(8) 0.81596(17) 0.0337(4) Uani d 0.735(3) A 1
C C17C 0.282(2) 0.5346(11) 0.741(2) 0.0262(10) Uani d 0.265(3) A 2
C C18C 0.3788(7) 0.5585(3) 0.7729(7) 0.0369(6) Uani d 0.265(3) A 2
H H18C 0.422078 0.551525 0.834168 0.044 Uiso calc 0.265(3) A 2
C C19C 0.402(4) 0.598(2) 0.692(3) 0.0446(9) Uani d 0.265(3) A 2
H H19C 0.462936 0.621598 0.691796 0.054 Uiso calc 0.265(3) A 2
C C20C 0.3211(7) 0.5927(3) 0.6206(7) 0.0417(6) Uani d 0.265(3) A 2
H H20C 0.315117 0.614125 0.560551 0.050 Uiso calc 0.265(3) A 2
O O3C 0.2450(5) 0.5525(2) 0.6428(4) 0.0337(4) Uani d 0.265(3) A 2
C C21A 0.51885(17) 0.23712(7) 0.83563(16) 0.0348(4) Uani d 1 . .
H H21A 0.570214 0.241588 0.896586 0.042 Uiso calc 1 . .
H H21B 0.564068 0.240675 0.770478 0.042 Uiso calc 1 . .
C C22A 0.4620(2) 0.18439(8) 0.83956(18) 0.0457(5) Uani d 1 . .
H H22A 0.417416 0.179079 0.775411 0.069 Uiso calc 1 . .
H H22B 0.411632 0.182600 0.900753 0.069 Uiso calc 1 . .
H H22C 0.520348 0.157701 0.845037 0.069 Uiso calc 1 . .
S S1B 1.02424(3) 0.42431(2) 0.56674(3) 0.02733(12) Uani d 1 . .
O O1B 0.69672(11) 0.43020(5) 0.65658(11) 0.0366(3) Uani d 1 . .
O O2B 0.82546(11) 0.49130(5) 0.60154(12) 0.0372(3) Uani d 1 . .
O O3B 0.86546(14) 0.21442(6) 0.60904(12) 0.0471(4) Uani d 1 . .
N N1B 1.18642(12) 0.34871(5) 0.56442(11) 0.0246(3) Uani d 1 . .
N N2B 0.78963(13) 0.33034(7) 0.69322(14) 0.0326(3) Uani d 1 . .
H HN2C 0.798(2) 0.3007(10) 0.7195(19) 0.039 Uiso d 1 . .
H HN2D 0.730(2) 0.3500(10) 0.7069(18) 0.039 Uiso d 1 . .
C C1B 0.79366(15) 0.44204(7) 0.62714(14) 0.0292(4) Uani d 1 . .
C C2B 0.88844(14) 0.40521(7) 0.61652(14) 0.0267(3) Uani d 1 . .
C C3B 0.88368(14) 0.35349(7) 0.64893(13) 0.0251(3) Uani d 1 . .
C C4B 0.99295(14) 0.32699(6) 0.62983(12) 0.0238(3) Uani d 1 . .
C C5B 1.07690(14) 0.36130(6) 0.58800(13) 0.0245(3) Uani d 1 . .
C C6B 1.02569(14) 0.27431(6) 0.64358(12) 0.0236(3) Uani d 1 . .
C C7B 1.13874(14) 0.25994(6) 0.61924(13) 0.0251(3) Uani d 1 . .
C C8B 1.21695(14) 0.29883(6) 0.58245(13) 0.0243(3) Uani d 1 . .
C C9B 1.33937(14) 0.28466(7) 0.56314(13) 0.0253(3) Uani d 1 . .
C C10B 1.42585(15) 0.32303(7) 0.56302(13) 0.0276(3) Uani d 1 . .
H H10B 1.406239 0.357947 0.574158 0.033 Uiso calc 1 . .
C C11B 1.54065(15) 0.30924(8) 0.54638(14) 0.0316(4) Uani d 1 . .
H H11B 1.598095 0.334818 0.547796 0.038 Uiso calc 1 . .
C C12B 1.57021(16) 0.25741(8) 0.52763(15) 0.0361(4) Uani d 1 . .
H H12B 1.647229 0.248335 0.515318 0.043 Uiso calc 1 . .
C C13B 1.48511(17) 0.21918(8) 0.52722(15) 0.0352(4) Uani d 1 . .
H H13B 1.505379 0.184524 0.513931 0.042 Uiso calc 1 . .
C C14B 1.36936(15) 0.23194(7) 0.54647(14) 0.0290(4) Uani d 1 . .
C C15B 1.27430(17) 0.19147(7) 0.54764(16) 0.0348(4) Uani d 1 . .
H H15C 1.307342 0.157309 0.562736 0.042 Uiso calc 1 . .
H H15D 1.237743 0.189993 0.477643 0.042 Uiso calc 1 . .
C C16B 1.18314(16) 0.20466(7) 0.63247(16) 0.0331(4) Uani d 1 . .
H H16C 1.118817 0.180319 0.626580 0.040 Uiso calc 1 . .
H H16D 1.216931 0.200740 0.703249 0.040 Uiso calc 1 . .
C C17B 0.94080(14) 0.23500(6) 0.68132(14) 0.0252(3) Uani d 1 . .
C C18B 0.91781(17) 0.21757(8) 0.78011(15) 0.0365(4) Uani d 1 . .
H H18B 0.956365 0.226416 0.843077 0.044 Uiso calc 1 . .
C C19B 0.82130(19) 0.18236(9) 0.7690(2) 0.0507(6) Uani d 1 . .
H H19B 0.785630 0.163445 0.823494 0.061 Uiso calc 1 . .
C C20B 0.7931(2) 0.18204(9) 0.6666(2) 0.0536(6) Uani d 1 . .
H H20B 0.732602 0.162626 0.637295 0.064 Uiso calc 1 . .
C C21B 0.73855(18) 0.53200(8) 0.61779(17) 0.0404(4) Uani d 1 . .
H H21C 0.776869 0.565605 0.625701 0.048 Uiso calc 1 . .
H H21D 0.696033 0.524921 0.683296 0.048 Uiso calc 1 . .
C C22B 0.6554(2) 0.53445(9) 0.52547(19) 0.0481(5) Uani d 1 . .
H H22D 0.697369 0.541281 0.460532 0.072 Uiso calc 1 . .
H H22E 0.600206 0.562013 0.537528 0.072 Uiso calc 1 . .
H H22F 0.615224 0.501639 0.519249 0.072 Uiso calc 1 . .
loop_
_atom_site_aniso_label
_atom_site_aniso_U_11
_atom_site_aniso_U_22
_atom_site_aniso_U_33
_atom_site_aniso_U_12
_atom_site_aniso_U_13
_atom_site_aniso_U_23
S1A 0.0241(2) 0.01813(19) 0.0345(2) -0.00011(14) 0.00498(15) 0.00198(14)
O1A 0.0239(6) 0.0310(6) 0.0474(7) 0.0021(5) 0.0016(5) -0.0010(5)
O2A 0.0304(6) 0.0227(6) 0.0377(6) 0.0045(5) 0.0024(5) 0.0018(5)
N1A 0.0226(7) 0.0211(6) 0.0286(7) -0.0009(5) 0.0026(5) -0.0010(5)
N2A 0.0227(7) 0.0253(8) 0.0543(10) 0.0005(6) 0.0072(7) 0.0045(7)
C1A 0.0276(8) 0.0244(8) 0.0252(8) 0.0026(7) 0.0009(6) -0.0006(6)
C2A 0.0224(8) 0.0232(8) 0.0305(8) -0.0006(6) 0.0032(6) -0.0006(6)
C3A 0.0230(8) 0.0226(8) 0.0280(8) -0.0010(6) 0.0013(6) -0.0024(6)
C4A 0.0235(8) 0.0213(7) 0.0247(7) -0.0018(6) 0.0028(6) -0.0012(6)
C5A 0.0249(8) 0.0192(7) 0.0255(7) -0.0010(6) 0.0014(6) -0.0010(6)
C6A 0.0255(8) 0.0204(7) 0.0263(8) -0.0012(6) 0.0031(6) -0.0004(6)
C7A 0.0258(8) 0.0212(8) 0.0254(8) 0.0002(6) 0.0018(6) 0.0004(6)
C8A 0.0235(8) 0.0225(8) 0.0247(7) -0.0009(6) 0.0008(6) -0.0012(6)
C9A 0.0229(8) 0.0260(8) 0.0258(8) 0.0006(6) -0.0002(6) 0.0001(6)
C10A 0.0258(8) 0.0291(8) 0.0329(9) -0.0020(7) 0.0016(7) -0.0011(7)
C11A 0.0254(9) 0.0390(10) 0.0370(9) -0.0054(7) 0.0027(7) 0.0014(8)
C12A 0.0227(8) 0.0456(11) 0.0377(9) 0.0060(7) 0.0044(7) 0.0028(8)
C13A 0.0299(9) 0.0330(9) 0.0344(9) 0.0074(7) 0.0033(7) 0.0020(7)
C14A 0.0255(8) 0.0281(8) 0.0270(8) 0.0034(6) 0.0005(6) 0.0018(6)
C15A 0.0302(9) 0.0211(8) 0.0396(9) 0.0048(7) 0.0055(7) 0.0014(7)
C16A 0.0279(8) 0.0229(8) 0.0346(9) 0.0018(6) 0.0054(7) 0.0051(7)
C17A 0.024(3) 0.0190(14) 0.036(2) 0.0028(19) 0.0079(15) 0.0007(10)
C18A 0.0445(16) 0.0279(12) 0.0384(13) -0.0023(11) 0.0120(12) 0.0092(10)
C19A 0.0494(16) 0.0260(9) 0.059(3) -0.0094(10) 0.0248(18) 0.0026(18)
C20A 0.0374(13) 0.0255(12) 0.0622(17) -0.0127(10) 0.0167(12) -0.0029(11)
O3A 0.0283(8) 0.0282(9) 0.0444(10) -0.0104(7) 0.0024(7) 0.0012(8)
C17C 0.024(3) 0.0190(14) 0.036(2) 0.0028(19) 0.0079(15) 0.0007(10)
C18C 0.0445(16) 0.0279(12) 0.0384(13) -0.0023(11) 0.0120(12) 0.0092(10)
C19C 0.0494(16) 0.0260(9) 0.059(3) -0.0094(10) 0.0248(18) 0.0026(18)
C20C 0.0374(13) 0.0255(12) 0.0622(17) -0.0127(10) 0.0167(12) -0.0029(11)
O3C 0.0283(8) 0.0282(9) 0.0444(10) -0.0104(7) 0.0024(7) 0.0012(8)
C21A 0.0384(10) 0.0273(9) 0.0386(10) 0.0110(7) -0.0054(8) -0.0009(7)
C22A 0.0592(13) 0.0262(9) 0.0518(12) 0.0084(9) -0.0151(10) 0.0008(8)
S1B 0.0224(2) 0.0226(2) 0.0370(2) 0.00243(14) 0.00525(16) 0.00390(15)
O1B 0.0248(6) 0.0362(7) 0.0488(8) 0.0053(5) 0.0069(5) 0.0077(6)
O2B 0.0293(7) 0.0292(6) 0.0531(8) 0.0070(5) 0.0080(6) 0.0060(6)
O3B 0.0457(8) 0.0517(9) 0.0440(8) -0.0184(7) -0.0076(6) -0.0019(7)
N1B 0.0214(7) 0.0239(7) 0.0286(7) 0.0008(5) 0.0027(5) 0.0010(5)
N2B 0.0215(7) 0.0279(8) 0.0483(9) 0.0003(6) 0.0052(6) 0.0035(7)
C1B 0.0240(8) 0.0309(9) 0.0327(9) 0.0029(7) 0.0020(7) 0.0032(7)
C2B 0.0213(8) 0.0280(8) 0.0308(8) 0.0011(6) 0.0023(6) 0.0008(6)
C3B 0.0206(8) 0.0279(8) 0.0268(8) -0.0003(6) -0.0013(6) -0.0024(6)
C4B 0.0219(8) 0.0255(8) 0.0241(7) -0.0003(6) -0.0009(6) -0.0006(6)
C5B 0.0239(8) 0.0226(8) 0.0269(8) 0.0003(6) -0.0007(6) -0.0002(6)
C6B 0.0234(8) 0.0235(8) 0.0240(7) -0.0027(6) -0.0027(6) -0.0011(6)
C7B 0.0261(8) 0.0230(8) 0.0261(8) 0.0009(6) -0.0019(6) 0.0006(6)
C8B 0.0239(8) 0.0244(8) 0.0247(7) 0.0014(6) -0.0002(6) -0.0016(6)
C9B 0.0250(8) 0.0282(8) 0.0229(7) 0.0044(6) 0.0006(6) 0.0020(6)
C10B 0.0268(8) 0.0309(8) 0.0252(8) 0.0030(7) -0.0010(6) 0.0000(6)
C11B 0.0238(8) 0.0413(10) 0.0297(8) 0.0004(7) -0.0016(6) 0.0025(7)
C12B 0.0240(8) 0.0473(11) 0.0371(9) 0.0101(8) 0.0019(7) 0.0048(8)
C13B 0.0331(10) 0.0333(9) 0.0393(10) 0.0120(7) 0.0030(7) 0.0035(8)
C14B 0.0284(9) 0.0284(8) 0.0303(8) 0.0063(7) 0.0011(7) 0.0026(7)
C15B 0.0348(9) 0.0230(8) 0.0465(10) 0.0052(7) 0.0023(8) -0.0011(7)
C16B 0.0299(9) 0.0253(9) 0.0443(10) 0.0020(7) 0.0039(7) 0.0052(7)
C17B 0.0209(7) 0.0227(8) 0.0320(8) 0.0007(6) -0.0025(6) -0.0002(6)
C18B 0.0353(10) 0.0482(11) 0.0260(8) -0.0003(8) 0.0001(7) 0.0041(8)
C19B 0.0383(11) 0.0389(11) 0.0747(16) 0.0060(9) 0.0215(11) 0.0276(11)
C20B 0.0379(11) 0.0360(11) 0.0869(18) -0.0159(9) 0.0030(11) -0.0056(11)
C21B 0.0388(10) 0.0339(10) 0.0485(11) 0.0075(8) 0.0056(9) -0.0004(8)
C22B 0.0459(12) 0.0428(12) 0.0555(13) 0.0132(9) 0.0012(10) 0.0059(10)
loop_
_atom_type_symbol
_atom_type_description
_atom_type_scat_dispersion_real
_atom_type_scat_dispersion_imag
_atom_type_scat_source
C C 0.0181 0.0091 'International Tables Vol C Tables 4.2.6.8 and 6.1.1.4'
H H 0.0000 0.0000 'International Tables Vol C Tables 4.2.6.8 and 6.1.1.4'
N N 0.0311 0.0180 'International Tables Vol C Tables 4.2.6.8 and 6.1.1.4'
O O 0.0492 0.0322 'International Tables Vol C Tables 4.2.6.8 and 6.1.1.4'
S S 0.3331 0.5567 'International Tables Vol C Tables 4.2.6.8 and 6.1.1.4'
loop_
_geom_angle_atom_site_label_1
_geom_angle_atom_site_label_2
_geom_angle_atom_site_label_3
_geom_angle
C5A S1A C2A 90.08(8)
C1A O2A C21A 115.70(14)
C5A N1A C8A 116.25(14)
C3A N2A HN2A 117.3(17)
C3A N2A HN2B 119.9(16)
HN2A N2A HN2B 122(2)
O1A C1A O2A 123.58(15)
O1A C1A C2A 124.71(16)
O2A C1A C2A 111.72(14)
C3A C2A C1A 125.29(15)
C3A C2A S1A 113.86(12)
C1A C2A S1A 120.82(13)
N2A C3A C2A 123.59(16)
N2A C3A C4A 125.07(15)
C2A C3A C4A 111.28(14)
C5A C4A C6A 116.60(15)
C5A C4A C3A 111.16(14)
C6A C4A C3A 132.24(15)
N1A C5A C4A 126.37(15)
N1A C5A S1A 120.04(12)
C4A C5A S1A 113.57(12)
C7A C6A C4A 118.25(15)
C7A C6A C17A 121.3(4)
C4A C6A C17A 120.4(4)
C7A C6A C17C 113.9(14)
C4A C6A C17C 127.7(15)
C6A C7A C8A 119.02(15)
C6A C7A C16A 123.28(15)
C8A C7A C16A 117.69(14)
N1A C8A C7A 123.43(15)
N1A C8A C9A 116.55(14)
C7A C8A C9A 119.99(14)
C10A C9A C14A 119.81(15)
C10A C9A C8A 120.47(15)
C14A C9A C8A 119.66(15)
C11A C10A C9A 120.58(17)
C11A C10A H10A 119.7
C9A C10A H10A 119.7
C10A C11A C12A 119.66(17)
C10A C11A H11A 120.2
C12A C11A H11A 120.2
C13A C12A C11A 120.09(17)
C13A C12A H12A 120.0
C11A C12A H12A 120.0
C12A C13A C14A 121.05(17)
C12A C13A H13A 119.5
C14A C13A H13A 119.5
C13A C14A C9A 118.81(16)
C13A C14A C15A 121.67(16)
C9A C14A C15A 119.48(15)
C14A C15A C16A 112.13(14)
C14A C15A H15A 109.2
C16A C15A H15A 109.2
C14A C15A H15B 109.2
C16A C15A H15B 109.2
H15A C15A H15B 107.9
C7A C16A C15A 111.91(14)
C7A C16A H16A 109.2
C15A C16A H16A 109.2
C7A C16A H16B 109.2
C15A C16A H16B 109.2
H16A C16A H16B 107.9
C18A C17A O3A 109.3(3)
C18A C17A C6A 132.4(5)
O3A C17A C6A 118.1(4)
C17A C18A C19A 106.0(5)
C17A C18A H18A 127.0
C19A C18A H18A 127.0
C20A C19A C18A 107.3(5)
C20A C19A H19A 126.3
C18A C19A H19A 126.3
C19A C20A O3A 110.5(4)
C19A C20A H20A 124.8
O3A C20A H20A 124.8
C20A O3A C17A 106.9(3)
C18C C17C O3C 111.9(10)
C18C C17C C6A 131.8(15)
O3C C17C C6A 116.1(13)
C17C C18C C19C 105.3(15)
C17C C18C H18C 127.3
C19C C18C H18C 127.3
C20C C19C C18C 106.2(16)
C20C C19C H19C 126.9
C18C C19C H19C 126.9
C19C C20C O3C 113.0(11)
C19C C20C H20C 123.5
O3C C20C H20C 123.5
C17C O3C C20C 103.3(8)
O2A C21A C22A 107.13(16)
O2A C21A H21A 110.3
C22A C21A H21A 110.3
O2A C21A H21B 110.3
C22A C21A H21B 110.3
H21A C21A H21B 108.5
C21A C22A H22A 109.5
C21A C22A H22B 109.5
H22A C22A H22B 109.5
C21A C22A H22C 109.5
H22A C22A H22C 109.5
H22B C22A H22C 109.5
C5B S1B C2B 90.01(8)
C1B O2B C21B 116.43(15)
C17B O3B C20B 105.86(17)
C5B N1B C8B 116.09(14)
C3B N2B HN2C 118.1(17)
C3B N2B HN2D 117.4(16)
HN2C N2B HN2D 123(2)
O1B C1B O2B 123.64(16)
O1B C1B C2B 124.09(17)
O2B C1B C2B 112.27(14)
C3B C2B C1B 124.31(15)
C3B C2B S1B 113.89(12)
C1B C2B S1B 121.71(13)
N2B C3B C2B 124.67(16)
N2B C3B C4B 124.03(16)
C2B C3B C4B 111.30(14)
C5B C4B C6B 117.14(15)
C5B C4B C3B 111.62(14)
C6B C4B C3B 131.22(15)
N1B C5B C4B 125.63(15)
N1B C5B S1B 121.24(12)
C4B C5B S1B 113.13(12)
C7B C6B C4B 118.55(15)
C7B C6B C17B 120.77(15)
C4B C6B C17B 120.67(15)
C6B C7B C8B 118.87(15)
C6B C7B C16B 122.78(15)
C8B C7B C16B 118.33(15)
N1B C8B C7B 123.58(15)
N1B C8B C9B 117.15(14)
C7B C8B C9B 119.27(15)
C10B C9B C14B 119.73(16)
C10B C9B C8B 120.65(15)
C14B C9B C8B 119.61(15)
C11B C10B C9B 120.21(17)
C11B C10B H10B 119.9
C9B C10B H10B 119.9
C10B C11B C12B 120.20(17)
C10B C11B H11B 119.9
C12B C11B H11B 119.9
C13B C12B C11B 119.98(17)
C13B C12B H12B 120.0
C11B C12B H12B 120.0
C12B C13B C14B 120.85(17)
C12B C13B H13B 119.6
C14B C13B H13B 119.6
C13B C14B C9B 119.00(17)
C13B C14B C15B 122.50(16)
C9B C14B C15B 118.48(15)
C14B C15B C16B 110.83(15)
C14B C15B H15C 109.5
C16B C15B H15C 109.5
C14B C15B H15D 109.5
C16B C15B H15D 109.5
H15C C15B H15D 108.1
C7B C16B C15B 111.29(15)
C7B C16B H16C 109.4
C15B C16B H16C 109.4
C7B C16B H16D 109.4
C15B C16B H16D 109.4
H16C C16B H16D 108.0
C18B C17B O3B 110.89(16)
C18B C17B C6B 130.61(16)
O3B C17B C6B 118.31(15)
C17B C18B C19B 105.84(18)
C17B C18B H18B 127.1
C19B C18B H18B 127.1
C20B C19B C18B 106.74(18)
C20B C19B H19B 126.6
C18B C19B H19B 126.6
C19B C20B O3B 110.66(19)
C19B C20B H20B 124.7
O3B C20B H20B 124.7
O2B C21B C22B 111.23(17)
O2B C21B H21C 109.4
C22B C21B H21C 109.4
O2B C21B H21D 109.4
C22B C21B H21D 109.4
H21C C21B H21D 108.0
C21B C22B H22D 109.5
C21B C22B H22E 109.5
H22D C22B H22E 109.5
C21B C22B H22F 109.5
H22D C22B H22F 109.5
H22E C22B H22F 109.5
loop_
_geom_bond_atom_site_label_1
_geom_bond_atom_site_label_2
_geom_bond_distance
S1A C5A 1.7355(16)
S1A C2A 1.7489(17)
O1A C1A 1.216(2)
O2A C1A 1.345(2)
O2A C21A 1.448(2)
N1A C5A 1.329(2)
N1A C8A 1.335(2)
N2A C3A 1.350(2)
N2A HN2A 0.83(3)
N2A HN2B 0.86(3)
C1A C2A 1.448(2)
C2A C3A 1.386(2)
C3A C4A 1.455(2)
C4A C5A 1.405(2)
C4A C6A 1.416(2)
C6A C7A 1.394(2)
C6A C17A 1.479(5)
C6A C17C 1.480(12)
C7A C8A 1.421(2)
C7A C16A 1.506(2)
C8A C9A 1.482(2)
C9A C10A 1.398(2)
C9A C14A 1.403(2)
C10A C11A 1.385(3)
C10A H10A 0.9300
C11A C12A 1.387(3)
C11A H11A 0.9300
C12A C13A 1.387(3)
C12A H12A 0.9300
C13A C14A 1.391(2)
C13A H13A 0.9300
C14A C15A 1.505(2)
C15A C16A 1.525(2)
C15A H15A 0.9700
C15A H15B 0.9700
C16A H16A 0.9700
C16A H16B 0.9700
C17A C18A 1.352(6)
C17A O3A 1.381(6)
C18A C19A 1.445(9)
C18A H18A 0.9300
C19A C20A 1.317(12)
C19A H19A 0.9300
C20A O3A 1.370(3)
C20A H20A 0.9300
C17C C18C 1.335(17)
C17C O3C 1.37(2)
C18C C19C 1.442(19)
C18C H18C 0.9300
C19C C20C 1.30(3)
C19C H19C 0.9300
C20C O3C 1.379(8)
C20C H20C 0.9300
C21A C22A 1.498(3)
C21A H21A 0.9700
C21A H21B 0.9700
C22A H22A 0.9600
C22A H22B 0.9600
C22A H22C 0.9600
S1B C5B 1.7395(16)
S1B C2B 1.7530(17)
O1B C1B 1.214(2)
O2B C1B 1.348(2)
O2B C21B 1.457(2)
O3B C17B 1.357(2)
O3B C20B 1.377(3)
N1B C5B 1.335(2)
N1B C8B 1.340(2)
N2B C3B 1.353(2)
N2B HN2C 0.83(3)
N2B HN2D 0.87(3)
C1B C2B 1.447(2)
C2B C3B 1.382(2)
C3B C4B 1.449(2)
C4B C5B 1.406(2)
C4B C6B 1.407(2)
C6B C7B 1.387(2)
C6B C17B 1.479(2)
C7B C8B 1.418(2)
C7B C16B 1.510(2)
C8B C9B 1.476(2)
C9B C10B 1.397(2)
C9B C14B 1.405(2)
C10B C11B 1.385(2)
C10B H10B 0.9300
C11B C12B 1.386(3)
C11B H11B 0.9300
C12B C13B 1.384(3)
C12B H12B 0.9300
C13B C14B 1.394(3)
C13B H13B 0.9300
C14B C15B 1.506(3)
C15B C16B 1.529(3)
C15B H15C 0.9700
C15B H15D 0.9700
C16B H16C 0.9700
C16B H16D 0.9700
C17B C18B 1.337(3)
C18B C19B 1.437(3)
C18B H18B 0.9300
C19B C20B 1.318(4)
C19B H19B 0.9300
C20B H20B 0.9300
C21B C22B 1.499(3)
C21B H21C 0.9700
C21B H21D 0.9700
C22B H22D 0.9600
C22B H22E 0.9600
C22B H22F 0.9600
loop_
_geom_hbond_atom_site_label_D
_geom_hbond_atom_site_label_H
_geom_hbond_atom_site_label_A
_geom_hbond_site_symmetry_A
_geom_hbond_distance_DH
_geom_hbond_distance_HA
_geom_hbond_distance_DA
_geom_hbond_angle_DHA
N2A HN2A O1A . 0.83(3) 2.23(3) 2.839(2) 131(2)
N2A HN2A O1B . 0.83(3) 2.33(3) 2.962(2) 134(2)
N2A HN2B O3A . 0.86(3) 2.17(3) 2.869(3) 138(2)
N2B HN2D O1A . 0.87(3) 2.33(2) 2.998(2) 134(2)
N2B HN2D O1B . 0.87(3) 2.17(2) 2.802(2) 129(2)
N2B HN2C Cg8 1_555 0.83(3) 2.55(3) 3.294(2) 150(2)
C18B H18B Cg11 4_455 0.93 2.53 3.353(2) 148
C21A H21A Cg9 4_455 0.97 2.96 3.718(2) 136
C15A H15A N1A 3_567 0.97 2.61 3.386(2) 137
loop_
_geom_torsion_atom_site_label_1
_geom_torsion_atom_site_label_2
_geom_torsion_atom_site_label_3
_geom_torsion_atom_site_label_4
_geom_torsion
C21A O2A C1A O1A -1.3(2)
C21A O2A C1A C2A 178.60(14)
O1A C1A C2A C3A 9.5(3)
O2A C1A C2A C3A -170.43(15)
O1A C1A C2A S1A -172.33(14)
O2A C1A C2A S1A 7.7(2)
C5A S1A C2A C3A -2.08(13)
C5A S1A C2A C1A 179.55(14)
C1A C2A C3A N2A 3.6(3)
S1A C2A C3A N2A -174.69(14)
C1A C2A C3A C4A -179.28(15)
S1A C2A C3A C4A 2.43(18)
N2A C3A C4A C5A 175.54(16)
C2A C3A C4A C5A -1.5(2)
N2A C3A C4A C6A -3.6(3)
C2A C3A C4A C6A 179.29(17)
C8A N1A C5A C4A 1.3(2)
C8A N1A C5A S1A 179.82(12)
C6A C4A C5A N1A -2.1(2)
C3A C4A C5A N1A 178.59(15)
C6A C4A C5A S1A 179.31(12)
C3A C4A C5A S1A -0.02(18)
C2A S1A C5A N1A -177.56(14)
C2A S1A C5A C4A 1.15(13)
C5A C4A C6A C7A 0.3(2)
C3A C4A C6A C7A 179.43(16)
C5A C4A C6A C17A 177.9(5)
C3A C4A C6A C17A -2.9(5)
C5A C4A C6A C17C -174.5(14)
C3A C4A C6A C17C 4.6(14)
C4A C6A C7A C8A 2.0(2)
C17A C6A C7A C8A -175.6(5)
C17C C6A C7A C8A 177.5(13)
C4A C6A C7A C16A -177.02(15)
C17A C6A C7A C16A 5.4(5)
C17C C6A C7A C16A -1.5(13)
C5A N1A C8A C7A 1.3(2)
C5A N1A C8A C9A -176.71(14)
C6A C7A C8A N1A -2.9(2)
C16A C7A C8A N1A 176.12(15)
C6A C7A C8A C9A 174.99(15)
C16A C7A C8A C9A -5.9(2)
N1A C8A C9A C10A -14.4(2)
C7A C8A C9A C10A 167.52(15)
N1A C8A C9A C14A 162.75(15)
C7A C8A C9A C14A -15.3(2)
C14A C9A C10A C11A -0.3(3)
C8A C9A C10A C11A 176.87(16)
C9A C10A C11A C12A -0.2(3)
C10A C11A C12A C13A 0.2(3)
C11A C12A C13A C14A 0.2(3)
C12A C13A C14A C9A -0.7(3)
C12A C13A C14A C15A -178.61(17)
C10A C9A C14A C13A 0.7(2)
C8A C9A C14A C13A -176.44(15)
C10A C9A C14A C15A 178.67(16)
C8A C9A C14A C15A 1.5(2)
C13A C14A C15A C16A -150.95(16)
C9A C14A C15A C16A 31.2(2)
C6A C7A C16A C15A -142.57(17)
C8A C7A C16A C15A 38.4(2)
C14A C15A C16A C7A -50.0(2)
C7A C6A C17A C18A -53.5(15)
C4A C6A C17A C18A 128.9(11)
C7A C6A C17A O3A 121.3(7)
C4A C6A C17A O3A -56.3(12)
O3A C17A C18A C19A 1.8(15)
C6A C17A C18A C19A 177.0(16)
C17A C18A C19A C20A -1(2)
C18A C19A C20A O3A -0.7(19)
C19A C20A O3A C17A 1.8(14)
C18A C17A O3A C20A -2.3(10)
C6A C17A O3A C20A -178.2(7)
C7A C6A C17C C18C 125(4)
C4A C6A C17C C18C -60(5)
C7A C6A C17C O3C -61(3)
C4A C6A C17C O3C 114(2)
O3C C17C C18C C19C 4(4)
C6A C17C C18C C19C 178(5)
C17C C18C C19C C20C -1(6)
C18C C19C C20C O3C -2(6)
C18C C17C O3C C20C -5(3)
C6A C17C O3C C20C 180(2)
C19C C20C O3C C17C 4(4)
C1A O2A C21A C22A -171.67(15)
C21B O2B C1B O1B 4.1(3)
C21B O2B C1B C2B -175.31(16)
O1B C1B C2B C3B -7.0(3)
O2B C1B C2B C3B 172.40(16)
O1B C1B C2B S1B 176.55(15)
O2B C1B C2B S1B -4.0(2)
C5B S1B C2B C3B 0.65(14)
C5B S1B C2B C1B 177.45(15)
C1B C2B C3B N2B 1.0(3)
S1B C2B C3B N2B 177.72(14)
C1B C2B C3B C4B -178.74(16)
S1B C2B C3B C4B -2.04(18)
N2B C3B C4B C5B -177.03(16)
C2B C3B C4B C5B 2.7(2)
N2B C3B C4B C6B 4.7(3)
C2B C3B C4B C6B -175.54(16)
C8B N1B C5B C4B 0.3(2)
C8B N1B C5B S1B -178.94(12)
C6B C4B C5B N1B -3.0(2)
C3B C4B C5B N1B 178.47(15)
C6B C4B C5B S1B 176.26(11)
C3B C4B C5B S1B -2.28(18)
C2B S1B C5B N1B -179.74(14)
C2B S1B C5B C4B 0.97(13)
C5B C4B C6B C7B 2.4(2)
C3B C4B C6B C7B -179.40(16)
C5B C4B C6B C17B -176.52(14)
C3B C4B C6B C17B 1.7(3)
C4B C6B C7B C8B 0.5(2)
C17B C6B C7B C8B 179.46(14)
C4B C6B C7B C16B 179.20(15)
C17B C6B C7B C16B -1.9(2)
C5B N1B C8B C7B 3.1(2)
C5B N1B C8B C9B -176.47(14)
C6B C7B C8B N1B -3.5(2)
C16B C7B C8B N1B 177.76(15)
C6B C7B C8B C9B 176.01(14)
C16B C7B C8B C9B -2.7(2)
N1B C8B C9B C10B 21.6(2)
C7B C8B C9B C10B -157.97(15)
N1B C8B C9B C14B -159.47(15)
C7B C8B C9B C14B 21.0(2)
C14B C9B C10B C11B 0.1(2)
C8B C9B C10B C11B 179.05(15)
C9B C10B C11B C12B 1.3(3)
C10B C11B C12B C13B -1.0(3)
C11B C12B C13B C14B -0.6(3)
C12B C13B C14B C9B 2.0(3)
C12B C13B C14B C15B -179.48(18)
C10B C9B C14B C13B -1.7(2)
C8B C9B C14B C13B 179.34(15)
C10B C9B C14B C15B 179.67(15)
C8B C9B C14B C15B 0.7(2)
C13B C14B C15B C16B 143.97(17)
C9B C14B C15B C16B -37.5(2)
C6B C7B C16B C15B 147.24(16)
C8B C7B C16B C15B -34.1(2)
C14B C15B C16B C7B 52.9(2)
C20B O3B C17B C18B -0.7(2)
C20B O3B C17B C6B -176.30(17)
C7B C6B C17B C18B 87.1(2)
C4B C6B C17B C18B -94.0(2)
C7B C6B C17B O3B -98.35(19)
C4B C6B C17B O3B 80.6(2)
O3B C17B C18B C19B 1.1(2)
C6B C17B C18B C19B 175.93(18)
C17B C18B C19B C20B -1.0(2)
C18B C19B C20B O3B 0.6(3)
C17B O3B C20B C19B 0.1(3)
C1B O2B C21B C22B -82.2(2)

_cod_database_fobs_code 1544694
