#------------------------------------------------------------------------------
#$Date: 2019-03-18 09:35:25 +0200 (Mon, 18 Mar 2019) $
#$Revision: 214153 $
#$URL: file:///home/coder/svn-repositories/cod/cif/1/54/49/1544929.cif $
#------------------------------------------------------------------------------
#
# This file is available in the Crystallography Open Database (COD),
# http://www.crystallography.net/
#
# All data on this site have been placed in the public domain by the
# contributors.
#
data_1544929
loop_
_publ_author_name
'Wang, Gaonan'
'You, Xu'
'Gan, Yi'
'Liu, Yuanhong'
_publ_section_title
;
 Synthesis of \d- and \a-Carbolines via Nickel-Catalyzed [2 + 2 + 2]
 Cycloaddition of Functionalized Alkyne-Nitriles with Alkynes.
;
_journal_issue                   1
_journal_name_full               'Organic letters'
_journal_page_first              110
_journal_page_last               113
_journal_paper_doi               10.1021/acs.orglett.6b03385
_journal_volume                  19
_journal_year                    2017
_chemical_absolute_configuration rmad
_chemical_formula_moiety         'C33 H25 N3 O4 S'
_chemical_formula_sum            'C33 H25 N3 O4 S'
_chemical_formula_weight         559.62
_space_group_crystal_system      monoclinic
_space_group_IT_number           9
_space_group_name_Hall           'C -2yc'
_space_group_name_H-M_alt        'C 1 c 1'
_symmetry_space_group_name_Hall  'C -2yc'
_symmetry_space_group_name_H-M   'C 1 c 1'
_atom_sites_solution_hydrogens   geom
_atom_sites_solution_primary     direct
_audit_creation_date             2016-05-30
_audit_creation_method
;
Olex2 1.2
(compiled 2016.02.19 svn.r3266 for OlexSys, GUI svn.r5155)
;
_cell_angle_alpha                90
_cell_angle_beta                 104.224(4)
_cell_angle_gamma                90
_cell_formula_units_Z            4
_cell_length_a                   10.6286(18)
_cell_length_b                   25.115(4)
_cell_length_c                   10.7465(18)
_cell_measurement_reflns_used    1234
_cell_measurement_temperature    130
_cell_measurement_theta_max      21.573
_cell_measurement_theta_min      2.541
_cell_volume                     2780.7(8)
_computing_cell_refinement       'SAINT v7.68A (Bruker, 2009)'
_computing_data_reduction        'SAINT v7.68A (Bruker, 2009)'
_computing_molecular_graphics    'Olex2 (Dolomanov et al., 2009)'
_computing_publication_material  'Olex2 (Dolomanov et al., 2009)'
_computing_structure_refinement  'ShelXL (Sheldrick, 2015)'
_computing_structure_solution    'ShelXT (Sheldrick, 2015)'
_diffrn_ambient_temperature      130
_diffrn_measured_fraction_theta_full 1.000
_diffrn_measured_fraction_theta_max 0.996
_diffrn_measurement_device_type  'Bruker APEX-II CCD'
_diffrn_measurement_method       '\f and \w scans'
_diffrn_radiation_monochromator  graphite
_diffrn_radiation_type           MoK\a
_diffrn_radiation_wavelength     0.71073
_diffrn_reflns_av_R_equivalents  0.0684
_diffrn_reflns_av_unetI/netI     0.1022
_diffrn_reflns_Laue_measured_fraction_full 1.000
_diffrn_reflns_Laue_measured_fraction_max 0.996
_diffrn_reflns_limit_h_max       13
_diffrn_reflns_limit_h_min       -13
_diffrn_reflns_limit_k_max       32
_diffrn_reflns_limit_k_min       -32
_diffrn_reflns_limit_l_max       13
_diffrn_reflns_limit_l_min       -11
_diffrn_reflns_number            11501
_diffrn_reflns_point_group_measured_fraction_full 0.765
_diffrn_reflns_point_group_measured_fraction_max 0.765
_diffrn_reflns_theta_full        26.000
_diffrn_reflns_theta_max         27.670
_diffrn_reflns_theta_min         1.622
_diffrn_standards_number         0
_exptl_absorpt_coefficient_mu    0.161
_exptl_absorpt_correction_T_max  0.7456
_exptl_absorpt_correction_T_min  0.6606
_exptl_absorpt_correction_type   multi-scan
_exptl_absorpt_process_details
;
SADABS-2008/1 (Bruker,2008) was used for absorption correction.
wR2(int) was 0.0697 before and 0.0522 after correction.
The Ratio of minimum to maximum transmission is 0.8860.
The \l/2 correction factor is 0.0015.
;
_exptl_crystal_colour            colourless
_exptl_crystal_density_diffrn    1.337
_exptl_crystal_description       block
_exptl_crystal_F_000             1168
_exptl_crystal_size_max          0.12
_exptl_crystal_size_mid          0.08
_exptl_crystal_size_min          0.05
_refine_diff_density_max         0.238
_refine_diff_density_min         -0.279
_refine_diff_density_rms         0.054
_refine_ls_abs_structure_details
;
 Flack x determined using 767 quotients [(I+)-(I-)]/[(I+)+(I-)]
 (Parsons, Flack and Wagner, Acta Cryst. B69 (2013) 249-259).
;
_refine_ls_abs_structure_Flack   0.22(10)
_refine_ls_extinction_method     none
_refine_ls_goodness_of_fit_ref   0.807
_refine_ls_hydrogen_treatment    constr
_refine_ls_matrix_type           full
_refine_ls_number_parameters     371
_refine_ls_number_reflns         4962
_refine_ls_number_restraints     2
_refine_ls_restrained_S_all      0.807
_refine_ls_R_factor_all          0.0989
_refine_ls_R_factor_gt           0.0497
_refine_ls_shift/su_max          0.001
_refine_ls_shift/su_mean         0.000
_refine_ls_structure_factor_coef Fsqd
_refine_ls_weighting_details
'w=1/[\s^2^(Fo^2^)+(0.1000P)^2^] where P=(Fo^2^+2Fc^2^)/3'
_refine_ls_weighting_scheme      calc
_refine_ls_wR_factor_gt          0.1119
_refine_ls_wR_factor_ref         0.1429
_reflns_Friedel_coverage         0.531
_reflns_Friedel_fraction_full    0.530
_reflns_Friedel_fraction_max     0.532
_reflns_number_gt                3313
_reflns_number_total             4962
_reflns_threshold_expression     'I > 2\s(I)'
_cod_data_source_file            ol6b03385_si_004.cif
_cod_data_source_block           mo_dm16329_0m
_cod_depositor_comments
;
Adding full bibliography for 1544929--1544930.cif.

2019-03-14
Z value and formula fixed to values more according to usual
chemical conventions.                 miguel
;
_cod_original_formula_weight         279.81
_cod_original_formula_moiety         '0.5(C33 H25 N3 O4 S)'
_cod_original_formula_units_Z            8
_cod_original_formula_sum        'C16.50 H12.50 N1.50 O2 S0.50'
_cod_database_code               1544929
_shelx_space_group_comment
;
The symmetry employed for this shelxl refinement is uniquely defined
by the following loop, which should always be used as a source of
symmetry information in preference to the above space-group names.
They are only intended as comments.
;
_shelx_estimated_absorpt_t_max   0.992
_shelx_estimated_absorpt_t_min   0.981
_olex2_refinement_description
;
1. Fixed Uiso
 At 1.2 times of:
  All C(H) groups, All C(H,H) groups
 At 1.5 times of:
  All C(H,H,H) groups
2.a Secondary CH2 refined with riding coordinates:
 C18(H18A,H18B), C19(H19A,H19B)
2.b Aromatic/amide H refined with riding coordinates:
 C8(H8), C9(H9), C10(H10), C11(H11), C13(H13), C14(H14), C15(H15), C16(H16),
 C17(H17), C22(H22), C23(H23), C24(H24), C25(H25), C26(H26), C28(H28), C29(H29),
  C31(H31), C32(H32)
2.c Idealised Me refined as rotating group:
 C33(H33A,H33B,H33C)
;
_shelx_res_file
;
    mo_dm16329_0m.res created by SHELXL-2014/7

TITL mo_dm16329_0m_a.res in Cc
REM Old TITL mo_dm16329_0m in C2/c #15
REM SHELXT solution in Cc
REM R1 0.104, Rweak 0.020, Alpha 0.007, Orientation as input
REM Flack x = 0.187 ( 0.086 ) from Parsons' quotients
REM Formula found by SHELXT: C33 N2 O5 S
CELL 0.71073 10.6286 25.1146 10.7465 90 104.224 90
ZERR 8 0.0018 0.0041 0.0018 0 0.004 0
LATT -7
SYMM +X,-Y,0.5+Z
SFAC C H N O S
UNIT 132 100 12 16 4

L.S. 4
PLAN  20 0 0
SIZE 0.05 0.08 0.12
TEMP -143.15
BOND $H
LIST 6
fmap 2
MORE -1
ACTA 52
CONF
REM <olex2.extras>
REM <HklSrc "%.\\mo_dm16329_0m.hkl">
REM </olex2.extras>

WGHT    0.100000
FVAR       0.34915
S1    5    0.636707    0.282897    0.539279    11.00000    0.02640    0.01742 =
         0.03112   -0.00327    0.00408    0.00134
O1    4    0.187450    0.464207    0.315664    11.00000    0.03453    0.04558 =
         0.02945    0.00992    0.00725    0.00353
O2    4    0.032813    0.465779    0.424115    11.00000    0.02357    0.03600 =
         0.03224    0.00531    0.00363    0.00497
O3    4    0.506857    0.266790    0.482612    11.00000    0.02967    0.02661 =
         0.04270   -0.01062    0.00728   -0.00342
O4    4    0.732224    0.244130    0.596229    11.00000    0.03339    0.01763 =
         0.04082    0.00078    0.00531    0.00890
N1    3    0.577839    0.468397    0.623356    11.00000    0.02544    0.01699 =
         0.02350    0.00054    0.00658   -0.00139
N2    3    0.628320    0.326497    0.658441    11.00000    0.02493    0.01351 =
         0.02488    0.00077    0.00074    0.00181
N3    3    0.227755    0.438417    0.526876    11.00000    0.01853    0.02137 =
         0.02388    0.00079    0.00509    0.00052
C1    1    0.449836    0.473327    0.572069    11.00000    0.02582    0.01845 =
         0.02107    0.00169    0.00700    0.00026
C2    1    0.363946    0.429411    0.554279    11.00000    0.02081    0.01929 =
         0.02024    0.00032    0.00476   -0.00031
C3    1    0.412590    0.376903    0.573628    11.00000    0.02282    0.02015 =
         0.01797   -0.00003    0.00501   -0.00208
C4    1    0.546472    0.372666    0.620864    11.00000    0.02309    0.01477 =
         0.01947   -0.00150    0.00373    0.00038
C5    1    0.621902    0.418752    0.651612    11.00000    0.02437    0.01609 =
         0.02262    0.00249    0.00338    0.00019
C6    1    0.751602    0.403567    0.721016    11.00000    0.02779    0.01588 =
         0.02241    0.00464    0.00441    0.00201
C7    1    0.754801    0.347890    0.725037    11.00000    0.02308    0.01985 =
         0.02203   -0.00105    0.00003   -0.00166
C8    1    0.863802    0.320511    0.790848    11.00000    0.03436    0.01932 =
         0.03032    0.00621    0.00147    0.00451
AFIX  43
H8    2    0.865126    0.282714    0.794465    11.00000   -1.20000
AFIX   0
C9    1    0.970960    0.350384    0.851275    11.00000    0.02207    0.02922 =
         0.03479    0.00904   -0.00333    0.00605
AFIX  43
H9    2    1.047486    0.332596    0.896404    11.00000   -1.20000
AFIX   0
C10   1    0.969466    0.405871    0.847609    11.00000    0.02368    0.02931 =
         0.03485    0.00111    0.00062   -0.00475
AFIX  43
H10   2    1.045136    0.425177    0.888719    11.00000   -1.20000
AFIX   0
C11   1    0.859374    0.433029    0.784975    11.00000    0.02791    0.02091 =
         0.02693    0.00076    0.00551   -0.00526
AFIX  43
H11   2    0.856978    0.470841    0.785369    11.00000   -1.20000
AFIX   0
C12   1    0.407235    0.529305    0.534780    11.00000    0.02106    0.01837 =
         0.02459    0.00104    0.00120   -0.00096
C13   1    0.322516    0.556581    0.591154    11.00000    0.02449    0.02259 =
         0.03265    0.00358    0.01049   -0.00054
AFIX  43
H13   2    0.283328    0.538916    0.650178    11.00000   -1.20000
AFIX   0
C14   1    0.294504    0.610399    0.561054    11.00000    0.02607    0.02761 =
         0.03614   -0.00263    0.00807    0.00351
AFIX  43
H14   2    0.237412    0.629328    0.600675    11.00000   -1.20000
AFIX   0
C15   1    0.350072    0.635727    0.473815    11.00000    0.03412    0.01605 =
         0.03252    0.00271    0.00449    0.00325
AFIX  43
H15   2    0.331064    0.672113    0.453319    11.00000   -1.20000
AFIX   0
C16   1    0.433438    0.608248    0.416099    11.00000    0.03708    0.02353 =
         0.02745    0.00551    0.01069    0.00150
AFIX  43
H16   2    0.471152    0.625825    0.355838    11.00000   -1.20000
AFIX   0
C17   1    0.462448    0.554685    0.446088    11.00000    0.02899    0.02452 =
         0.02459   -0.00192    0.00757    0.00321
AFIX  43
H17   2    0.519401    0.535823    0.406168    11.00000   -1.20000
AFIX   0
C18   1    0.151344    0.430037    0.620633    11.00000    0.02801    0.02778 =
         0.02653    0.00083    0.00975    0.00214
AFIX  23
H18A  2    0.193199    0.446294    0.704515    11.00000   -1.20000
H18B  2    0.136212    0.391704    0.632793    11.00000   -1.20000
AFIX   0
C19   1    0.026739    0.458570    0.556134    11.00000    0.02937    0.03801 =
         0.03596   -0.00086    0.01153    0.00394
AFIX  23
H19A  2   -0.049779    0.436901    0.560790    11.00000   -1.20000
H19B  2    0.021214    0.493385    0.597671    11.00000   -1.20000
AFIX   0
C20   1    0.155234    0.456883    0.414645    11.00000    0.02612    0.02053 =
         0.02736    0.00144    0.00671    0.00181
C21   1    0.319339    0.331147    0.548043    11.00000    0.02186    0.01485 =
         0.03181   -0.00362    0.00641    0.00178
C22   1    0.311998    0.295659    0.644632    11.00000    0.03347    0.02369 =
         0.03125   -0.00125    0.00488   -0.00448
AFIX  43
H22   2    0.366434    0.300188    0.728423    11.00000   -1.20000
AFIX   0
C23   1    0.224847    0.253350    0.618931    11.00000    0.04394    0.02447 =
         0.04848    0.00388    0.01620   -0.00774
AFIX  43
H23   2    0.218538    0.229489    0.685724    11.00000   -1.20000
AFIX   0
C24   1    0.147051    0.245924    0.495833    11.00000    0.03140    0.02540 =
         0.06674   -0.00745    0.00879   -0.00861
AFIX  43
H24   2    0.087801    0.216969    0.478372    11.00000   -1.20000
AFIX   0
C25   1    0.156080    0.280717    0.399010    11.00000    0.02358    0.03151 =
         0.04064   -0.01554   -0.00168    0.00176
AFIX  43
H25   2    0.104151    0.275247    0.314467    11.00000   -1.20000
AFIX   0
C26   1    0.240713    0.323675    0.424612    11.00000    0.02543    0.02142 =
         0.02818   -0.00323    0.00466    0.00304
AFIX  43
H26   2    0.245117    0.347994    0.358103    11.00000   -1.20000
AFIX   0
C27   1    0.693088    0.321673    0.427754    11.00000    0.02890    0.02494 =
         0.02702   -0.00245    0.00464    0.00344
C28   1    0.604052    0.349518    0.334310    11.00000    0.03332    0.03283 =
         0.03049   -0.00252    0.00656    0.00438
AFIX  43
H28   2    0.514013    0.347764    0.331042    11.00000   -1.20000
AFIX   0
C29   1    0.647470    0.379674    0.246491    11.00000    0.03808    0.03516 =
         0.02698    0.00204    0.00564    0.01105
AFIX  43
H29   2    0.586086    0.398611    0.182656    11.00000   -1.20000
AFIX   0
C30   1    0.777886    0.383289    0.248235    11.00000    0.03940    0.02635 =
         0.02859   -0.00211    0.00749   -0.00078
C31   1    0.866206    0.355243    0.344611    11.00000    0.02879    0.03365 =
         0.04341   -0.00174    0.00947   -0.00049
AFIX  43
H31   2    0.956308    0.357159    0.348261    11.00000   -1.20000
AFIX   0
C32   1    0.824683    0.324815    0.434552    11.00000    0.02823    0.03037 =
         0.02909    0.00084    0.00085    0.00456
AFIX  43
H32   2    0.885603    0.306397    0.499864    11.00000   -1.20000
AFIX   0
C33   1    0.824129    0.413707    0.148305    11.00000    0.05422    0.03989 =
         0.03514    0.00222    0.01064   -0.00380
AFIX 137
H33A  2    0.818159    0.391106    0.072735    11.00000   -1.50000
H33B  2    0.914555    0.424529    0.182963    11.00000   -1.50000
H33C  2    0.769967    0.445412    0.123752    11.00000   -1.50000
AFIX   0
HKLF 4

REM  mo_dm16329_0m_a.res in Cc
REM R1 =  0.0497 for    3313 Fo > 4sig(Fo)  and  0.0989 for all    4962 data
REM    371 parameters refined using      2 restraints

END

WGHT      0.0411      0.0000

REM Highest difference peak  0.238,  deepest hole -0.279,  1-sigma level  0.054
Q1    1   0.7415  0.4542 -0.0576  11.00000  0.05    0.24
Q2    1   0.5577  0.2831  0.4441  11.00000  0.05    0.23
Q3    1   0.1244  0.2510  0.6559  11.00000  0.05    0.22
Q4    1   0.5206  0.5897  0.2611  11.00000  0.05    0.22
Q5    1   0.3146  0.5545  0.6957  11.00000  0.05    0.21
Q6    1   0.2571  0.2555  0.5467  11.00000  0.05    0.20
Q7    1   0.3194  0.4621  0.3200  11.00000  0.05    0.20
Q8    1   0.4971  0.2673  0.3978  11.00000  0.05    0.20
Q9    1   0.4568  0.3996  0.2662  11.00000  0.05    0.19
Q10   1   0.9841  0.4062  1.0011  11.00000  0.05    0.19
Q11   1   0.6362  0.4539  0.0427  11.00000  0.05    0.19
Q12   1   0.7247  0.4180  0.0748  11.00000  0.05    0.18
Q13   1   0.1382  0.2673  0.2776  11.00000  0.05    0.18
Q14   1   0.8983  0.3895  0.0847  11.00000  0.05    0.18
Q15   1   0.9007  0.4292 -0.0215  11.00000  0.05    0.18
Q16   1  -0.2070  0.4731  0.4813  11.00000  0.05    0.18
Q17   1   0.6590  0.4122  0.0356  11.00000  0.05    0.18
Q18   1   0.9011  0.3700  0.0835  11.00000  0.05    0.18
Q19   1   0.8886  0.4302  0.8757  11.00000  0.05    0.18
Q20   1   0.8763  0.3292  0.9246  11.00000  0.05    0.17
;
_shelx_res_checksum              41627
_shelx_hkl_file
;
   2   0   0 1473.15   30.60
  -2   0   0 1423.36   33.30
  -2   0   0 1382.76   28.80
   2   0   0 1419.96   29.20
   4   0   0  299.57   13.30
  -4   0   0  295.97    7.80
  -4   0   0  298.57   15.70
  -6   0   0  444.26   21.70
   6   0   0  414.56   18.30
  -8   0   0  153.38   19.10
   8   0   0  154.48   15.40
  10   0   0  427.56   22.70
 -10   0   0  392.96   27.30
  12   0   0   70.49   15.30
 -12   0   0   73.89   21.80
  -1  -1   0  446.36   11.20
  -1  -1   0  420.36   10.00
   1  -1   0  433.56   10.40
  -1   1   0  434.56   10.90
   3  -1   0   21.00    6.70
  -3  -1   0    7.80    7.90
  -3  -1   0   23.00    3.90
   3   1   0   13.90    5.80
  -3   1   0   14.20    8.00
  -5  -1   0  937.71   29.10
  -5  -1   0  951.40   21.00
   5  -1   0  918.11   26.80
  -5   1   0  946.91   29.60
   5   1   0  900.81   26.00
  -7  -1   0  322.97   22.50
   7  -1   0  358.36   19.00
   7   1   0  357.66   18.30
  -7   1   0  339.47   22.30
   9  -1   0   43.10   12.10
  -9  -1   0   39.50   16.80
  -9   1   0   11.90   16.00
   9   1   0   20.70   10.80
  11  -1   0   -3.70   11.90
 -11  -1   0    5.10   17.80
  11   1   0   33.30   11.90
 -11   1   0   15.50   18.50
 -13  -1   0  -12.50   19.80
  13  -1   0    7.10   13.90
 -13   1   0    8.20   20.10
  13   1   0   -7.80   12.10
   0  -2   0   -1.60    0.80
   0  -2   0    0.00    1.40
   0   2   0   -0.90    0.90
   0   2   0    2.30    1.10
  -2  -2   0 1927.21   44.10
  -2  -2   0 1899.11   41.00
   2  -2   0 1990.70   41.30
  -2   2   0 1957.40   44.10
  -4  -2   0   75.79    9.70
  -4  -2   0   58.89    5.20
   4  -2   0   71.19    8.50
   4   2   0   61.89    7.60
  -4   2   0   54.69    8.50
  -6  -2   0  202.48    8.70
   6  -2   0  161.68   13.10
  -6  -2   0  176.58   15.70
  -6   2   0  187.58   16.10
   6   2   0  191.58   13.00
  -8  -2   0  289.97   23.20
   8  -2   0  286.77   19.80
  -8   2   0  291.87   23.60
   8   2   0  276.17   18.00
  10  -2   0   66.59   13.50
 -10  -2   0   60.29   17.80
  10   2   0   45.90   12.00
 -10   2   0   60.09   16.80
 -12  -2   0   29.70   19.90
  12  -2   0   37.10   13.70
 -12   2   0   25.30   19.30
  12   2   0   64.89   14.70
  -1  -3   0 3008.60   63.59
   1  -3   0 3091.19   60.79
   1   3   0 3088.79   65.89
  -1   3   0 3127.39   65.59
   3  -3   0 1136.49   28.20
  -3  -3   0 1099.69   26.80
  -3  -3   0 1107.09   30.10
  -3   3   0 1098.89   29.60
   5  -3   0   90.89    9.80
  -5  -3   0  106.49    7.00
  -5  -3   0   96.69   11.30
  -5   3   0   89.79   11.70
   5   3   0   80.89    8.70
  -7  -3   0  126.69   15.90
   7  -3   0  133.99   14.00
  -7  -3   0  128.59    9.10
   7   3   0  135.29   12.60
  -7   3   0  119.49   17.00
   9  -3   0  258.97   19.40
  -9  -3   0  241.58   23.50
  -9   3   0  237.28   23.40
   9   3   0  266.37   17.80
  11  -3   0   42.70   13.70
 -11  -3   0   31.60   18.00
 -11   3   0   46.00   18.80
  11   3   0   52.59   13.40
 -13  -3   0   28.80   22.10
  13  -3   0   14.10   14.40
  13   3   0   -1.50   12.80
 -13   3   0   22.70   21.50
   0  -4   0  235.18    9.00
   0  -4   0  225.78    6.50
   0   4   0  242.18    7.90
   2  -4   0 2482.25   51.39
  -2  -4   0 2495.35   55.49
  -2  -4   0 2392.36   52.89
  -2   4   0 2413.46   54.49
   2   4   0 2383.26   54.69
   4  -4   0  346.07    9.80
  -4  -4   0  315.67   16.30
  -4  -4   0  335.97   13.30
   4  -4   0  329.57   14.20
  -4   4   0  292.57   15.40
   4   4   0  338.77   12.60
  -6  -4   0  159.48   14.90
   6  -4   0  169.28   13.90
  -6  -4   0  171.58   10.70
  -6   4   0  187.48   16.10
   6   4   0  166.58   12.10
   8  -4   0   49.70   12.00
  -8  -4   0   17.30   15.50
   8   4   0   29.40   10.80
  -8   4   0   40.70   16.20
 -10  -4   0   55.69   17.70
  10  -4   0   39.70   12.70
  10   4   0   33.00   11.20
 -10   4   0   58.29   18.10
  12  -4   0   32.50   13.70
 -12  -4   0   17.70   18.60
 -12   4   0  -26.90   17.60
  12   4   0   19.70   11.70
   1  -5   0   75.09    6.30
  -1  -5   0   61.49    8.10
   1  -5   0   66.99    7.00
   1   5   0   79.09    6.70
  -1   5   0   84.09    6.40
   1   5   0   76.09    3.30
   3  -5   0  337.07   14.50
   3  -5   0  335.17   12.20
  -3  -5   0  333.47   15.30
  -3  -5   0  353.86   15.70
  -3   5   0  325.97   13.80
   5  -5   0  397.26   18.10
  -5  -5   0  454.65   20.30
   5  -5   0  413.76   11.70
  -5  -5   0  403.46   16.00
   5   5   0  434.76   15.60
  -5   5   0  394.76   19.60
   7  -5   0   86.59   13.10
  -7  -5   0   90.09    8.70
  -7  -5   0   59.29   15.40
   7   5   0   88.19   11.30
  -7   5   0   62.99   15.20
  -9  -5   0   14.40   15.60
   9  -5   0   11.40   11.40
  -9   5   0    2.40   15.50
   9   5   0    2.50    9.30
 -11  -5   0  -11.50   16.00
  11  -5   0   -3.20   11.90
 -11   5   0   -6.70   16.70
  11   5   0   -3.40   10.90
 -13  -5   0   22.10   21.60
  13  -5   0   41.00   15.50
 -13   5   0   54.99   22.20
   0  -6   0  774.52   17.70
   0  -6   0  770.22   23.50
   0   6   0  794.62   20.60
   2  -6   0  313.57   13.90
   2  -6   0  329.17   13.50
  -2  -6   0  347.67   16.40
  -2   6   0  331.47   13.70
   2   6   0  331.27   13.90
   4  -6   0  254.27   11.20
   4  -6   0  233.68   13.90
  -4  -6   0  258.67   14.90
  -4  -6   0  241.28   14.40
   4   6   0  247.98   10.50
  -4   6   0  247.28   14.30
   6  -6   0   37.60   10.40
  -6  -6   0   37.30    7.90
  -6  -6   0   22.10   12.00
  -6   6   0   48.20   12.20
   6   6   0   40.00    8.30
   8  -6   0  103.69   14.30
  -8  -6   0   97.99   17.00
  -8  -6   0   74.89    9.20
   8   6   0  100.99   12.70
  -8   6   0   76.09   17.70
 -10  -6   0   44.80   17.10
  10  -6   0   36.60   13.40
 -10   6   0   51.09   17.60
  10   6   0   20.80   10.80
  12  -6   0   24.30   13.70
 -12  -6   0   34.40   19.20
 -12   6   0   15.70   19.10
   1  -7   0  216.48   10.50
  -1  -7   0  189.18   12.70
   1  -7   0  177.58   11.30
  -1  -7   0  194.18    6.00
   1   7   0  187.08   11.00
  -1   7   0  219.08   11.00
  -3  -7   0  172.88   11.70
   3  -7   0  152.88   11.20
   3  -7   0  168.08   11.70
  -3  -7   0  145.69   11.40
   3   7   0  140.39   10.40
  -3   7   0  161.48   12.20
  -5  -7   0   98.09   10.10
   5  -7   0  113.89    7.60
  -5  -7   0   85.59   12.40
   5  -7   0  114.49   11.90
  -5   7   0  119.59   12.70
   5   7   0  112.09    8.80
  -7  -7   0  140.59   18.10
   7  -7   0  136.89   15.30
  -7  -7   0  172.48   12.20
   7   7   0  159.58   12.90
  -7   7   0  157.08   17.90
  -9  -7   0   22.80   15.50
   9  -7   0   28.90   12.20
  -9   7   0   12.50   15.20
   9   7   0   14.30    9.30
  11  -7   0    1.70   12.70
 -11  -7   0    1.50   16.90
 -11   7   0   -2.00   16.60
  11   7   0   12.40   10.80
  13  -7   0   16.40   14.90
 -13  -7   0   58.39   22.30
 -13   7   0   31.40   22.30
   0  -8   0  178.28    7.80
   0  -8   0  153.88   12.00
   0   8   0  195.68   10.30
   2  -8   0  286.87   14.10
  -2  -8   0  292.17   17.00
   2  -8   0  276.27   12.50
   2   8   0  267.17   13.10
  -2   8   0  277.27   12.30
  -4  -8   0  426.86   18.70
  -4  -8   0  405.96   18.80
   4  -8   0  382.06   15.50
   4  -8   0  370.56   17.30
  -4   8   0  403.46   17.50
   4   8   0  373.96   12.30
  -6  -8   0  250.27   17.00
   6  -8   0  225.38   16.70
  -6  -8   0  225.28   18.70
   6  -8   0  242.18   12.20
  -6   8   0  286.37   19.30
   6   8   0  251.27   13.30
  -8  -8   0   68.79   10.40
   8  -8   0   85.59   14.70
  -8  -8   0   60.99   17.20
   8   8   0   64.59   10.80
  -8   8   0   92.49   17.80
  10  -8   0    4.70   12.40
 -10  -8   0  -48.90   14.30
 -10   8   0  -38.20   14.20
  10   8   0   -7.00    9.30
  12  -8   0    1.50   13.20
 -12  -8   0  -21.40   17.00
 -12   8   0  -19.10   17.50
  -1  -9   0 1083.49   22.90
   1  -9   0 1120.89   30.60
   1  -9   0 1133.29   26.60
  -1  -9   0 1067.09   31.20
   1   9   0 1128.09   29.70
  -1   9   0 1115.19   28.80
  -3  -9   0   71.49   10.30
   3  -9   0   65.69    8.90
   3  -9   0   77.09    8.80
   3   9   0   78.69    9.40
  -3   9   0   86.39    9.10
  -5  -9   0    9.30    9.40
  -5  -9   0  -10.30    9.60
   5  -9   0    7.30    8.80
   5  -9   0    1.80    7.00
   5   9   0   -9.40    5.50
  -5   9   0   10.00    9.40
  -7  -9   0  124.49   18.00
  -7  -9   0  109.89   12.30
   7  -9   0  130.29   15.30
  -7   9   0  147.49   17.40
   7   9   0  133.29   11.50
  -9  -9   0  194.18   21.90
   9  -9   0  175.68   17.80
   9   9   0  199.28   15.00
  -9   9   0  216.38   21.60
  11  -9   0   59.99   15.50
 -11  -9   0   61.19   19.30
 -11   9   0   49.30   19.00
   0 -10   0 1831.42   38.70
   0 -10   0 1829.12   45.70
   0  10   0 1893.71   44.80
   2 -10   0   64.59    9.20
  -2 -10   0   49.90    9.40
   2 -10   0   62.79    7.50
  -2  10   0   57.89    7.70
   2  10   0   60.49    8.10
  -4 -10   0  162.28   13.80
   4 -10   0  109.39   11.10
  -4 -10   0  156.48   13.50
   4 -10   0  150.28   11.20
   4  10   0  136.59    7.40
  -4  10   0  132.89   12.20
  -6 -10   0  282.07   21.30
   6 -10   0  304.77   18.30
   6 -10   0  304.97   16.00
  -6 -10   0  308.77   19.10
  -6  10   0  330.67   20.20
   6  10   0  339.17   13.90
  -8 -10   0  115.89   12.60
   8 -10   0   77.99   14.30
  -8 -10   0   70.59   16.00
  -8  10   0   77.19   16.70
   8  10   0  102.49   11.00
  10 -10   0    0.60   12.40
 -10 -10   0    3.40   16.20
 -10  10   0   17.60   15.90
  12 -10   0   13.80   14.10
 -12 -10   0   38.20   19.30
 -12  10   0    1.10   17.80
  -1 -11   0  835.52   28.90
   1 -11   0  809.22   21.90
   1 -11   0  888.01   27.90
  -1 -11   0  818.92   18.60
  -1  11   0  863.11   24.60
   1  11   0  831.42   25.30
   3 -11   0   33.70    8.20
  -3 -11   0   45.50   11.20
   3 -11   0   32.10    9.40
  -3  11   0   51.99    9.10
   3  11   0   58.19    9.40
   5 -11   0   67.89    9.80
   5 -11   0   67.89   11.40
  -5 -11   0   74.49   12.60
  -5 -11   0   55.59   12.80
   5  11   0   66.49    6.50
  -5  11   0   81.89   12.40
   7 -11   0  139.89   15.30
  -7 -11   0  149.19   18.90
  -7 -11   0  152.38   15.10
   7  11   0  149.19   11.00
  -7  11   0  138.99   17.20
  -9 -11   0   -6.00   14.40
   9 -11   0   26.20   11.70
  -9  11   0  -22.90   12.90
 -11 -11   0   23.70   16.10
  11 -11   0   15.20   13.50
 -11  11   0  -28.90   14.20
   0 -12   0  176.98   14.60
   0 -12   0  155.98    8.60
   0  12   0  174.38   12.00
   2 -12   0  542.95   22.80
   2 -12   0  538.65   18.50
  -2 -12   0  534.35   25.20
  -2  12   0  541.65   19.60
   2  12   0  536.55   20.50
  -4 -12   0   49.99   11.50
   4 -12   0   95.29   11.20
  -4 -12   0   76.39   13.00
   4 -12   0   71.09   10.90
  -4  12   0   80.59   10.90
   4  12   0   75.69   11.20
  -6 -12   0   35.30   12.30
   6 -12   0   43.70   12.00
  -6 -12   0   17.50   13.40
   6 -12   0   21.20    9.60
   6  12   0   16.20    6.30
  -6  12   0   32.20   12.50
  -8 -12   0  378.46   22.00
  -8 -12   0  373.26   25.60
   8 -12   0  400.06   23.60
  -8  12   0  362.86   24.10
  10 -12   0  -13.40   12.00
 -10 -12   0   24.80   17.30
 -10  12   0    2.70   15.00
  12 -12   0    2.60   13.80
 -12 -12   0   27.30   19.90
 -12  12   0  -30.70   16.30
   1 -13   0  245.18   17.90
  -1 -13   0  256.27    8.90
  -1 -13   0  256.17   18.70
   1 -13   0  254.97   11.80
   1  13   0  245.98   13.80
  -1  13   0  278.87   14.40
   3 -13   0  233.68   15.20
  -3 -13   0  260.67   19.20
   3 -13   0  223.28   16.10
  -3  13   0  262.17   15.00
   3  13   0  229.68   15.00
   5 -13   0   41.90   10.60
  -5 -13   0   27.60   13.00
  -5 -13   0   30.20   12.50
   5 -13   0   22.10   10.70
  -5  13   0   37.00   11.30
  -7 -13   0  239.08   18.40
   7 -13   0  217.08   19.30
  -7 -13   0  215.88   21.10
  -7  13   0  215.08   20.00
  -9 -13   0   61.39   12.30
   9 -13   0   25.40   12.40
  -9 -13   0   36.40   16.10
  -9  13   0   25.50   15.10
  11 -13   0   49.40   15.50
 -11 -13   0   39.60   18.10
 -11  13   0    9.70   16.80
   0 -14   0  479.75   14.90
   0 -14   0  513.85   25.50
   0  14   0  490.65   18.90
  -2 -14   0   20.30   11.90
   2 -14   0   30.20   11.40
   2 -14   0   22.10    7.60
   2  14   0   14.80    8.00
  -2  14   0   25.70    7.90
   4 -14   0  497.05   20.90
  -4 -14   0  519.05   28.40
   4 -14   0  554.64   25.10
   4  14   0  518.45   23.30
  -4  14   0  547.35   22.90
  -6 -14   0  139.69   18.10
   6 -14   0  131.69   15.70
   6 -14   0  174.08   14.60
  -6 -14   0  166.48   17.50
  -6  14   0  134.39   16.00
  -8 -14   0  190.98   21.20
  -8 -14   0  199.68   17.40
   8 -14   0  177.68   18.60
  -8  14   0  194.58   20.50
 -10 -14   0   55.89   18.10
  10 -14   0   49.80   14.80
 -10  14   0   24.00   16.20
 -12 -14   0  -17.20   18.40
  12 -14   0   38.20   16.70
 -12  14   0   -5.70   18.30
  -1 -15   0   26.40   11.60
  -1 -15   0   20.70    4.40
   1 -15   0   18.00    6.50
   1 -15   0   27.70   12.00
   1  15   0   25.10    8.10
  -1  15   0   26.60    7.70
   3 -15   0   11.60   12.20
   3 -15   0   25.70    9.10
  -3 -15   0   30.10   14.00
  -3  15   0   14.90    9.20
   3  15   0    6.10    9.10
  -5 -15   0  110.69   15.80
  -5 -15   0  136.99   17.40
   5 -15   0  125.59   14.60
   5 -15   0   99.69   13.70
  -5  15   0  111.29   14.00
  -7 -15   0   19.10   13.70
  -7 -15   0   40.00   13.00
   7 -15   0   16.50   11.60
  -7  15   0   30.30   13.30
   9 -15   0   13.80   13.10
  -9 -15   0   15.20   12.30
  -9 -15   0   26.90   15.80
  -9  15   0   34.70   15.20
  11 -15   0  -11.80   12.80
 -11 -15   0   18.90   17.90
 -11  15   0   39.70   18.40
   0 -16   0   88.59   14.30
   0 -16   0   90.09    7.70
   0  16   0  100.89   11.00
   2 -16   0  569.74   20.30
  -2 -16   0  563.74   27.50
   2 -16   0  552.84   27.50
  -2  16   0  547.75   21.40
   2  16   0  537.85   22.60
  -4 -16   0   20.20   13.50
   4 -16   0   15.40   12.90
   4 -16   0    5.40    9.60
   4  16   0   37.70   11.30
  -4  16   0   36.60   11.10
  -6 -16   0  181.88   19.70
   6 -16   0  196.68   16.60
   6 -16   0  205.38   18.30
  -6 -16   0  209.48   20.00
  -6  16   0  199.98   17.80
  -8 -16   0   26.90   15.00
   8 -16   0   27.70   13.00
  -8 -16   0   18.60   13.00
  -8  16   0   28.80   13.90
  10 -16   0  -22.00   11.70
 -10 -16   0  -10.40   15.50
 -10  16   0   11.00   16.10
  -1 -17   0  181.78   18.30
  -1 -17   0  168.08    8.90
   1 -17   0  159.28   18.40
   1 -17   0  197.58   11.80
  -1  17   0  171.18   13.80
   1  17   0  162.28   14.10
   3 -17   0  108.79   12.40
   3 -17   0  110.39   15.90
  -3 -17   0  130.49   19.10
  -3  17   0  103.39   13.00
   3  17   0  112.39   13.60
   5 -17   0  216.18   17.50
  -5 -17   0  213.78   21.80
   5 -17   0  207.68   18.30
  -5 -17   0  186.88   18.90
  -5  17   0  214.58   18.00
   5  17   0  230.78   19.70
   7 -17   0   99.69   15.30
  -7 -17   0   88.89   15.80
  -7 -17   0   96.59   16.70
  -7  17   0   97.39   16.00
   9 -17   0   27.10   12.90
  -9 -17   0   36.10   14.20
  -9 -17   0   72.99   17.60
  -9  17   0   19.00   15.20
 -11 -17   0   28.30   19.70
  11 -17   0   27.40   15.60
 -11  17   0   29.80   17.60
   0 -18   0   27.30   15.70
   0 -18   0    9.70    6.10
   0  18   0   27.20    9.90
  -2 -18   0   85.19   17.90
   2 -18   0   56.19   15.80
   2 -18   0   90.89   10.90
  -2  18   0   87.69   12.00
   2  18   0   74.09   12.00
   4 -18   0   23.00   10.30
  -4 -18   0   22.40   16.80
   4 -18   0    7.80   13.40
   4  18   0    9.20   12.00
  -4  18   0   18.20   11.10
  -6 -18   0  282.67   22.90
   6 -18   0  264.57   18.80
   6 -18   0  286.77   20.20
  -6 -18   0  288.87   22.10
  -6  18   0  230.28   19.30
  -8 -18   0   16.20   15.00
   8 -18   0   26.50   13.40
  -8 -18   0   23.90   14.10
  -8  18   0   25.80   13.40
  10 -18   0   32.30   14.90
 -10 -18   0   -3.10   15.90
 -10  18   0    7.00   15.00
   1 -19   0   24.70   14.10
  -1 -19   0   24.60   14.80
  -1 -19   0   14.30    5.30
   1 -19   0   15.00    7.90
  -1  19   0   30.00   10.30
   1  19   0    9.90    9.50
   3 -19   0  110.59   17.80
   3 -19   0  136.99   13.40
  -3 -19   0  120.79   20.00
  -3  19   0  134.29   14.10
   3  19   0  105.69   14.60
  -5 -19   0   22.40   12.80
   5 -19   0   51.99   13.90
  -5 -19   0    4.20   15.30
   5 -19   0   22.00   10.80
   5  19   0   11.80   11.10
  -5  19   0   26.70   11.10
  -7 -19   0   78.69   16.60
  -7 -19   0   69.49   16.10
   7 -19   0   67.19   14.20
  -7  19   0  102.39   15.50
   9 -19   0   55.29   15.40
  -9 -19   0   56.69   17.50
  -9 -19   0   27.50   14.90
  -9  19   0   34.80   14.80
   0 -20   0  266.97   22.50
   0 -20   0  255.37   12.40
   0  20   0  278.87   18.60
   2 -20   0   78.79   17.20
  -2 -20   0   62.29   18.80
   2 -20   0   56.89   10.00
  -2  20   0   50.59   11.40
   2  20   0   50.89   11.90
  -4 -20   0  304.67   25.90
   4 -20   0  364.96   26.90
   4 -20   0  333.57   19.90
   4  20   0  349.47   22.10
  -4  20   0  338.17   20.80
   6 -20   0   27.50   13.70
  -6 -20   0   34.90   16.00
  -6 -20   0    1.30   12.60
   6 -20   0   42.50   12.30
  -6  20   0   23.70   11.80
  -8 -20   0   59.39   16.90
  -8 -20   0   50.69   15.50
   8 -20   0   36.80   13.90
  -8  20   0   55.49   15.30
 -10 -20   0   51.59   18.60
  10 -20   0   21.10   14.60
 -10  20   0   11.80   15.60
  -1 -21   0  223.58   23.70
   1 -21   0  225.28   13.80
   1 -21   0  206.38   22.40
  -1  21   0  206.38   16.90
   1  21   0  259.37   19.80
   3 -21   0   48.60   10.80
   3 -21   0   60.79   16.00
  -3 -21   0   30.50   17.50
  -3  21   0   53.79   11.20
   3  21   0   67.19   12.60
  -5 -21   0  132.49   20.20
   5 -21   0  102.49   14.20
  -5 -21   0   90.29   15.60
   5 -21   0  130.89   16.90
  -5  21   0  103.29   14.70
   5  21   0   87.79   15.20
  -7 -21   0    3.60   13.60
   7 -21   0   24.40   12.50
  -7 -21   0   -1.00   14.80
  -7  21   0    3.80   11.70
  -9 -21   0    6.80   15.20
  -9 -21   0   22.40   16.30
   9 -21   0   19.00   12.40
  -9  21   0    4.80   13.40
   0 -22   0  -11.70   15.80
   0  22   0   21.00    9.70
   2 -22   0   65.29   17.00
   2 -22   0   58.89   10.00
  -2 -22   0   45.30   17.80
  -2  22   0   44.60   11.00
   2  22   0   49.70   12.00
   4 -22   0   -5.80   13.00
   4 -22   0   -2.40    9.80
  -4 -22   0   -8.10   15.90
  -4  22   0   -9.10    9.10
   4  22   0    4.80   10.40
   6 -22   0   76.19   14.20
  -6 -22   0   69.19   18.70
  -6 -22   0   75.89   16.70
   6 -22   0  103.79   16.60
  -6  22   0   62.69   14.40
  -8 -22   0   10.80   14.10
   8 -22   0    2.60   12.50
  -8 -22   0  -12.40   14.00
  -8  22   0   10.80   12.90
   1 -23   0   83.59   18.60
  -1 -23   0  112.99   20.00
   1 -23   0  122.89   11.10
  -1  23   0  115.29   14.20
   1  23   0  102.19   13.40
   3 -23   0   88.99   12.40
   3 -23   0  107.69   17.80
  -3 -23   0   92.79   18.40
   3  23   0   74.19   13.40
  -3  23   0   90.79   13.70
  -5 -23   0    1.20   16.70
   5 -23   0   27.30   11.20
  -5 -23   0   41.30   14.80
   5 -23   0   22.50   15.00
   5  23   0   20.20   13.10
  -5  23   0   18.50   11.40
  -7 -23   0   20.20   14.40
   7 -23   0   29.80   12.70
  -7 -23   0    0.10   15.50
  -7  23   0    9.60   13.00
  -9 -23   0   12.10   16.80
   9 -23   0   18.90   14.30
  -9 -23   0   45.50   17.40
  -9  23   0   15.20   14.50
   0 -24   0   46.80   17.00
   0  24   0   20.20   10.80
   2 -24   0  143.49   12.80
  -2 -24   0  133.39   21.60
   2 -24   0  141.69   20.00
  -2  24   0  128.69   14.90
   2  24   0  155.68   16.10
  -4 -24   0   14.50   16.30
   4 -24   0   19.20   14.50
   4 -24   0   26.50   10.40
   4  24   0   27.20   12.60
  -4  24   0   32.30   12.00
  -6 -24   0   10.60   13.30
  -6 -24   0   26.60   17.00
   6 -24   0   17.00   11.90
   6 -24   0   12.80   13.50
  -6  24   0   -2.80   12.10
   8 -24   0   65.39   16.00
  -8 -24   0   79.59   17.50
  -8 -24   0   33.50   17.10
  -8  24   0   67.29   16.80
  -1 -25   0   77.99   17.90
   1 -25   0   28.30   15.80
   1  25   0   43.60   11.40
  -1  25   0   52.39   12.40
   3 -25   0   18.00    9.80
   3 -25   0   28.10   15.80
  -3 -25   0    5.10   17.50
   3  25   0   25.00   11.50
  -3  25   0    0.90   10.50
   5 -25   0   30.00   12.10
   5 -25   0   56.69   16.20
  -5 -25   0   45.90   18.80
  -5 -25   0   64.39   16.00
  -5  25   0   32.50   12.10
   5  25   0   25.00   13.80
  -7 -25   0   12.00   15.00
   7 -25   0  -12.70   11.60
  -7 -25   0  -44.20   15.10
  -7  25   0  -15.10   11.40
   0 -26   0   58.69   18.70
   0  26   0   89.79   13.70
   2 -26   0   97.19   18.90
  -2 -26   0   57.29   19.40
   2  26   0   77.99   13.40
  -2  26   0   75.99   14.00
  -4 -26   0   28.80   18.90
   4 -26   0  -17.40   14.20
   4 -26   0   17.80   11.00
   4  26   0    0.70   11.70
  -4  26   0   -1.10   10.90
  -6 -26   0   17.60   17.60
  -6 -26   0   24.70   14.10
   6 -26   0   18.10   11.70
  -6  26   0   -1.10   12.30
   8 -26   0   47.30   15.30
  -8 -26   0   48.70   19.00
  -8 -26   0   76.39   18.50
  -8  26   0   27.30   15.60
  -1 -27   0   66.49   19.70
   1 -27   0   60.39   19.10
   1  27   0   98.59   14.70
  -1  27   0   83.99   14.20
   3 -27   0  -15.70   14.60
  -3 -27   0  -16.20   16.60
   3  27   0   -6.70    9.80
  -3  27   0   17.30   11.50
   5 -27   0   43.80   17.20
   5 -27   0   36.80   12.80
  -5 -27   0   62.49   16.30
  -5 -27   0   48.90   19.60
  -5  27   0   31.60   13.40
   5  27   0   49.50   15.70
  -7 -27   0   37.10   17.10
  -7 -27   0   46.00   19.40
   7 -27   0   11.80   13.20
  -7  27   0   25.00   14.90
   0 -28   0  274.37   25.50
   0  28   0  274.37   21.80
  -2 -28   0  148.79   23.00
   2 -28   0   91.09   18.50
  -2  28   0  113.59   15.80
   2  28   0  104.09   14.80
  -4 -28   0  143.39   23.40
   4 -28   0  110.99   19.80
   4  28   0  141.49   18.50
  -4  28   0  169.18   18.80
  -6 -28   0   36.30   16.10
  -6 -28   0   -6.30   18.10
   6 -28   0  -18.20   11.00
  -6  28   0    6.50   13.10
  -1 -29   0   82.99   20.70
   1 -29   0   56.09   18.80
  -1  29   0   96.89   15.30
   1  29   0   73.09   14.30
  -3 -29   0  -10.70   17.50
   3 -29   0    4.10   15.60
   3  29   0   16.20   12.40
  -3  29   0   19.30   12.50
  -5 -29   0   20.60   14.80
   5 -29   0  -15.40   15.00
  -5 -29   0   -6.20   19.00
   5  29   0  -22.20   13.20
   0 -30   0  -14.40   17.00
   0  30   0   32.20   12.10
  -2 -30   0   91.99   20.50
   2 -30   0   94.89   20.80
   2  30   0  114.39   16.60
  -2  30   0  117.69   16.40
   4 -30   0   22.30   17.50
  -4 -30   0   40.70   20.50
   4  30   0   74.59   16.80
   1 -31   0   24.10   18.50
  -1 -31   0   31.70   18.80
   1  31   0   -1.30   11.10
   3 -31   0   14.00   18.60
  -3 -31   0   21.40   18.00
   3  31   0   42.30   14.10
   0 -32   0   69.29   21.20
   2 -32   0   52.49   20.30
  -2 -32   0   60.69   21.70
 -12   0   1   -8.20   16.80
  12   0  -1   -4.80   10.80
 -10   0   1  -16.30   15.40
  10   0  -1  -14.90   10.00
  -8   0   1  -12.20   13.80
   8   0  -1    3.20   10.80
  -6   0   1   -0.10    3.10
  -6   0   1    3.30   10.00
  -4   0   1    4.20    7.60
  -4   0   1   -0.80    3.20
  -2   0   1   -1.60    2.50
  -2   0   1   -3.50    4.80
   0   0   1   -2.60    1.50
   0   0   1   -5.70    1.40
   0   0   1   -3.20    1.40
  -2   0  -1   -5.00    6.50
   2   0   1    7.90    5.20
   2   0   1    1.50    2.70
  -4   0  -1    5.30    8.00
   4   0   1   -4.30    5.40
  -6   0  -1  -17.40   10.40
   6   0   1   -4.90    7.40
  -8   0  -1   14.40   15.50
   8   0   1  -12.10    9.80
 -10   0  -1   17.90   16.10
  10   0   1   -5.90    9.70
 -12   0  -1    9.00   19.70
  12   0   1   -7.60   11.40
 -13  -1   1   33.70   20.70
  13  -1  -1   54.89   15.70
  13   1  -1   58.99   15.90
 -13   1   1   30.00   21.50
 -11  -1   1   20.30   16.40
  11  -1  -1   11.10   12.30
 -11   1   1   -3.40   15.00
  11   1  -1    0.80   12.00
   9  -1  -1  341.17   21.90
  -9  -1   1  363.46   27.50
   9   1  -1  374.96   21.70
  -9   1   1  357.66   27.80
   7  -1  -1    1.90    8.90
  -7  -1   1    9.20    4.10
  -7  -1   1   20.20   12.60
  -7   1   1    9.30   11.20
  -7   1   1   13.00    3.50
   7   1  -1    7.30    9.60
  -5  -1   1   30.20    4.40
  -5  -1   1   14.50    8.80
  -5   1   1   25.40    9.50
  -5   1   1   25.20    3.50
  -3  -1   1  843.92   20.50
  -3  -1   1  846.12   24.10
  -3   1   1  878.01   19.60
  -3   1   1  882.91   25.20
  -1  -1   1  747.73   17.20
  -1  -1   1  745.53   16.80
  -1   1   1  751.92   16.60
  -1   1   1  725.13   17.60
   1  -1   1  532.95   11.60
   1   1   1  499.85   12.10
  -1   1  -1  491.55   13.00
   1   1   1  509.15   13.80
   1   1   1  509.35   12.00
   3  -1   1   44.00    6.50
  -3  -1  -1   49.60    8.70
   3   1   1   50.79    6.60
  -3   1  -1   52.59    8.70
  -5  -1  -1   99.29    6.30
  -5  -1  -1   80.99   11.30
   5  -1   1  112.69   10.20
   5   1   1  105.19    9.60
  -5   1  -1  105.19   12.30
  -7  -1  -1  176.08   18.90
   7  -1   1  171.38   14.90
  -7   1  -1  195.18   19.20
   7   1   1  189.98   15.10
  -9  -1  -1   43.50   15.50
   9  -1   1   46.30   11.80
  -9   1  -1   22.30   16.20
   9   1   1   30.50   11.60
 -11  -1  -1   -7.90   17.40
  11  -1   1   -5.30   10.70
 -11   1  -1   -6.00   17.70
  11   1   1    1.50   11.00
  13  -1   1   39.60   15.30
 -13  -1  -1   32.50   23.00
 -13   1  -1   30.40   21.90
  13   1   1   27.50   14.10
  12  -2  -1   24.50   13.10
 -12  -2   1  -26.70   17.00
  12   2  -1   -6.80   11.00
 -12   2   1  -30.00   17.20
 -10  -2   1  239.38   23.80
  10  -2  -1  218.98   19.20
 -10   2   1  241.08   23.90
  10   2  -1  229.48   18.60
   8  -2  -1    1.00   11.50
  -8  -2   1   13.60    5.10
  -8  -2   1   16.30   13.60
   8   2  -1   -1.50   10.20
  -8   2   1   -0.50   14.80
  -6  -2   1  206.98   10.00
  -6  -2   1  199.48   15.50
   6  -2  -1  223.78   15.20
  -6   2   1  217.78    7.40
  -6   2   1  203.88   16.40
  -4  -2   1  343.87   11.40
  -4  -2   1  348.77   16.30
  -4   2   1  331.37    9.70
  -4   2   1  318.77   15.80
  -2  -2   1  809.52   21.00
  -2  -2   1  779.22   19.20
  -2   2   1  780.22   21.00
  -2   2   1  838.12   18.40
   0  -2   1 3061.69   60.19
   0  -2   1 3096.29   62.69
   0   2   1 3089.39   65.59
   0   2   1 3069.09   62.89
   2  -2   1 3734.03   74.99
  -2  -2  -1 3744.03   81.59
   2  -2   1 3779.42   74.29
   2   2   1 3653.53   73.09
  -2   2  -1 3671.53   80.29
  -4  -2  -1   31.50    5.30
   4  -2   1   42.50    7.60
  -4  -2  -1   47.90    9.20
   4   2   1   35.70    6.70
  -4   2  -1   37.50    8.80
  -6  -2  -1  -12.60   10.90
   6  -2   1    1.00    8.10
  -6  -2  -1   13.10    4.30
  -6   2  -1    8.30   11.20
   6   2   1   16.40    7.80
   8  -2   1  276.57   19.60
  -8  -2  -1  288.47   23.00
   8   2   1  288.77   18.20
  -8   2  -1  289.07   22.70
 -10  -2  -1    7.90   16.60
  10  -2   1    0.10   10.80
 -10   2  -1  -22.80   15.10
  10   2   1   21.30   10.40
  12  -2   1    9.50   12.10
 -12  -2  -1   23.30   19.80
  12   2   1    2.80   11.40
 -12   2  -1  -12.20   19.20
 -13  -3   1   22.10   21.10
  13  -3  -1   -6.30   13.20
 -13   3   1    3.90   20.10
  13   3  -1    4.90   13.10
  11  -3  -1   67.79   15.10
 -11  -3   1   29.80   18.10
 -11   3   1   32.50   18.90
  11   3  -1   47.10   12.90
  -9  -3   1  206.28   21.80
   9  -3  -1  205.58   18.40
  -9   3   1  184.28   21.80
   9   3  -1  173.38   16.70
   7  -3  -1   79.79   12.00
  -7  -3   1   86.59    7.50
  -7  -3   1   91.09   14.10
  -7   3   1   92.99   15.10
   7   3  -1   86.39   11.70
  -5  -3   1  111.19   12.10
  -5  -3   1  141.29    9.10
  -5   3   1  120.09    6.20
  -5   3   1  116.59   11.50
  -3  -3   1   65.19    8.50
  -3  -3   1   78.29    6.50
  -3   3   1   69.09    8.90
  -3   3   1   68.19    4.80
  -1  -3   1  700.13   17.70
  -1  -3   1  735.83   17.20
  -1   3   1  751.02   17.30
  -1   3   1  695.93   18.30
   1  -3   1  565.54   14.10
   1   3   1  562.84   12.60
  -1   3  -1  584.44   14.30
   1   3   1  564.24   16.40
  -3  -3  -1  181.38   11.80
  -3  -3  -1  203.38   11.00
   3  -3   1  199.98    5.70
   3  -3   1  195.88   11.50
   3   3   1  203.08    9.40
  -3   3  -1  188.18   11.80
   5  -3   1  735.43   23.50
  -5  -3  -1  724.13   20.20
  -5  -3  -1  745.93   25.90
   5   3   1  738.23   22.10
  -5   3  -1  757.12   25.90
   7  -3   1  117.29   13.50
  -7  -3  -1  107.79   17.20
  -7  -3  -1   96.89    6.90
   7   3   1  130.99   12.40
  -7   3  -1  117.19   16.80
  -9  -3  -1  126.29   19.30
   9  -3   1  111.19   14.90
   9   3   1  119.29   13.70
  -9   3  -1  135.49   20.10
  11  -3   1    7.60   11.50
 -11  -3  -1   -1.00   16.90
 -11   3  -1   -1.30   16.90
  11   3   1   -1.70   10.60
 -13  -3  -1   37.30   22.40
  13  -3   1   41.20   14.90
 -13   3  -1   31.70   22.30
  13   3   1   16.70   13.60
 -12  -4   1   21.90   18.20
  12  -4  -1   27.20   13.40
  12   4  -1   20.10   13.00
 -12   4   1   28.20   19.00
 -10  -4   1   53.99   17.00
  10  -4  -1   40.40   13.40
  10   4  -1   54.39   12.40
 -10   4   1   36.20   16.20
  -8  -4   1   30.50   15.60
   8  -4  -1   43.60   12.20
  -8  -4   1   48.60    7.40
   8   4  -1   30.50   10.80
  -8   4   1   66.69   16.80
  -6  -4   1  950.40   24.90
   6  -4  -1  952.80   29.90
  -6  -4   1  992.70   32.20
  -6   4   1  911.11   32.10
  -4  -4   1   52.79    9.00
  -4  -4   1   51.99    6.30
  -4   4   1   52.89    4.70
  -4   4   1   53.39    9.00
  -2  -4   1  637.24   18.70
  -2  -4   1  634.04   19.00
  -2   4   1  641.94   19.90
   0  -4   1  921.31   22.40
   0  -4   1  974.30   21.00
   0   4  -1  978.00   21.20
   0   4   1  952.10   23.80
   2  -4   1  936.21   23.90
   2  -4   1  923.11   22.10
   2   4   1  923.21   20.70
   2   4   1 1012.80   26.60
  -2   4  -1 1004.20   25.10
  -4  -4  -1  262.87   13.10
  -4  -4  -1  265.37   14.60
   4  -4   1  258.47   13.10
  -4   4  -1  238.18   14.40
   4   4   1  256.37   11.50
  -6  -4  -1  259.37   13.10
   6  -4   1  262.07   16.70
  -6  -4  -1  277.17   19.70
  -6   4  -1  275.27   19.20
   6   4   1  278.97   14.80
  -8  -4  -1   87.09   18.60
   8  -4   1   70.39   12.70
  -8   4  -1   80.49   18.30
   8   4   1   81.49   12.50
  10  -4   1   52.39   12.90
 -10  -4  -1   58.79   18.40
  10   4   1   70.99   13.10
 -10   4  -1   61.89   18.60
  12  -4   1   69.09   15.20
 -12  -4  -1   72.59   21.20
 -12   4  -1   80.79   22.50
  12   4   1   66.29   14.00
  13  -5  -1   37.80   15.70
 -13  -5   1   43.80   21.80
 -13   5   1   27.30   20.60
  11  -5  -1   13.40   13.20
 -11  -5   1   31.00   17.30
 -11   5   1   23.80   17.50
  11   5  -1  -13.70   10.90
  -9  -5   1   52.79   16.80
   9  -5  -1   26.70   12.90
   9   5  -1   20.60   10.50
  -9   5   1   43.40   15.40
  -7  -5   1  137.49   16.80
   7  -5  -1  129.19   14.70
  -7  -5   1  146.89   10.00
  -7   5   1  140.79   16.70
   7   5  -1  122.09   12.70
  -5  -5   1  802.02   26.50
   5  -5  -1  712.73   24.70
  -5  -5   1  764.42   21.80
  -5   5   1  750.02   26.10
  -3  -5   1  224.78   11.90
  -3  -5   1  244.38   12.60
  -3   5   1  223.38   11.90
  -1  -5   1 1449.55   29.60
  -1  -5   1 1420.16   33.60
   1   5  -1 1424.06   32.40
  -1   5   1 1437.86   34.50
   1  -5   1 1861.81   40.10
   1  -5   1 1885.21   41.70
  -1   5  -1 1888.81   41.60
   1   5   1 1879.41   44.30
   3  -5   1  115.29    7.30
   3  -5   1  133.29    9.90
  -3  -5  -1  123.99    9.40
  -3  -5  -1  119.19   10.80
   3   5   1  129.09   10.50
  -3   5  -1  147.79   11.50
   3   5   1  128.89    7.00
  -5  -5  -1  113.89   13.30
   5  -5   1  124.59   11.80
  -5  -5  -1  112.99    9.80
   5   5   1  125.99    9.50
  -5   5  -1  102.09   12.70
   7  -5   1  141.69   15.20
  -7  -5  -1   83.69   15.50
  -7  -5  -1  141.59   10.10
  -7   5  -1  130.79   17.60
   7   5   1  138.19   12.60
  -9  -5  -1  144.89   19.90
   9  -5   1  134.39   15.80
   9   5   1  114.89   13.30
  -9   5  -1  114.19   18.60
  11  -5   1   36.30   13.30
 -11  -5  -1    0.80   17.10
 -11   5  -1  -21.20   16.80
  11   5   1   10.40   10.20
  13  -5   1   -4.60   13.10
  12  -6  -1   14.90   13.80
 -12  -6   1   17.00   18.40
 -12   6   1   18.00   16.90
  12   6  -1   -5.30   11.00
  10  -6  -1   88.49   15.70
 -10  -6   1  130.19   18.50
 -10   6   1   93.69   19.20
  10   6  -1  105.89   14.10
  -8  -6   1  -15.70   14.20
  -8  -6   1    9.20    7.50
   8  -6  -1   15.30   11.20
   8   6  -1    5.60   10.00
  -8   6   1   15.10   14.90
   6  -6  -1  148.79   13.50
  -6  -6   1  177.28   12.30
  -6  -6   1  162.88   15.60
  -6   6   1  180.18   15.60
  -4  -6   1  489.15   19.00
  -4  -6   1  503.55   17.00
  -4   6   1  461.85   18.00
  -2  -6   1 1305.97   32.10
  -2  -6   1 1297.37   32.50
   2   6  -1 1281.07   31.40
  -2   6   1 1286.07   32.80
   0  -6   1 4446.65   94.99
   0  -6   1 4653.13   89.39
   0   6  -1 4641.94   96.09
   0   6   1 4496.45   98.49
   2  -6   1  709.13   19.60
   2  -6   1  698.33   19.90
  -2   6  -1  762.02   20.10
   2   6   1  687.13   15.20
   2   6   1  718.43   22.20
  -4  -6  -1  635.84   23.80
  -4  -6  -1  653.63   22.10
   4  -6   1  611.54   16.10
   4  -6   1  626.64   21.10
   4   6   1  647.84   17.30
  -4   6  -1  669.43   23.00
  -6  -6  -1  612.94   21.70
  -6  -6  -1  605.64   27.40
   6  -6   1  631.24   23.90
   6   6   1  595.74   20.50
  -6   6  -1  642.04   26.20
  -8  -6  -1  145.09   19.30
   8  -6   1  164.48   16.90
   8   6   1  159.78   13.80
  -8   6  -1  158.28   20.10
 -10  -6  -1   59.29   18.70
  10  -6   1   57.49   14.10
  10   6   1   88.29   13.00
 -10   6  -1   62.49   18.80
 -12  -6  -1   59.09   20.90
  12  -6   1   17.90   13.60
 -12   6  -1   52.99   20.40
  13  -7  -1   15.50   15.20
 -13  -7   1  -20.80   19.60
 -13   7   1    8.80   20.20
  11  -7  -1   10.80   13.00
 -11  -7   1   16.00   17.00
 -11   7   1   -0.50   15.10
  11   7  -1   -4.60   10.70
  -9  -7   1   62.99   15.90
   9  -7  -1   61.79   14.20
  -9   7   1   55.49   16.90
   9   7  -1   48.90   11.40
   7  -7  -1   78.19   13.00
  -7  -7   1   89.19   10.40
  -7  -7   1   80.49   15.70
  -7   7   1  111.19   16.10
   7   7  -1  101.89   11.50
  -5  -7   1  845.62   25.00
   5  -7  -1  811.92   26.10
  -5  -7   1  824.22   27.70
  -5   7   1  776.92   27.30
  -3  -7   1  336.57   15.70
  -3  -7   1  325.47   14.70
  -3   7   1  336.87   15.30
  -1  -7   1  290.77   16.30
  -1  -7   1  275.17    9.20
  -1   7   1  262.57   12.60
   1   7  -1  259.17   10.80
   1  -7   1 1516.35   36.60
   1  -7   1 1524.65   34.10
   1   7   1 1496.45   37.90
  -1   7  -1 1557.84   35.30
  -3  -7  -1  654.13   22.50
   3  -7   1  692.53   19.40
   3  -7   1  730.23   21.90
  -3   7  -1  697.73   21.50
   3   7   1  708.63   23.50
   3   7   1  698.63   16.00
  -5  -7  -1   98.39   11.10
  -5  -7  -1  105.39   12.70
   5  -7   1  100.39   11.10
   5  -7   1  104.29    5.90
  -5   7  -1  106.29   12.50
   5   7   1  109.09    8.50
   7  -7   1   15.20   11.10
  -7  -7  -1   11.80   12.90
  -7  -7  -1   13.60    9.50
  -7   7  -1   19.10   14.50
   7   7   1   15.50    8.60
   9  -7   1  116.79   15.80
  -9  -7  -1  164.38   21.10
  -9   7  -1  140.09   19.60
   9   7   1  149.09   14.10
 -11  -7  -1   11.60   17.20
  11  -7   1   10.50   12.30
 -11   7  -1   -1.30   16.80
 -12  -8   1   37.00   18.90
  12  -8  -1    8.60   13.60
 -12   8   1    9.80   18.50
  10  -8  -1  -13.80   10.60
 -10  -8   1    2.60   13.50
  10   8  -1   -3.60    9.70
 -10   8   1   -3.60   15.00
  -8  -8   1  231.48   21.80
   8  -8  -1  221.78   19.40
  -8  -8   1  235.28   17.20
  -8   8   1  265.07   22.20
   8   8  -1  254.07   16.60
   6  -8  -1  233.18   16.30
  -6  -8   1  233.28   18.50
  -6  -8   1  246.58   16.10
  -6   8   1  237.98   18.30
  -4  -8   1  714.93   23.70
   4  -8  -1  673.63   23.00
  -4  -8   1  722.43   23.20
  -4   8   1  665.43   23.10
   2  -8  -1  117.29    8.80
  -2  -8   1  107.09   10.50
   2   8  -1  109.79    8.60
  -2   8   1  107.39    9.20
   0  -8   1  376.86   12.10
   0  -8   1  408.36   16.60
   0  -8  -1  366.96   11.00
   0   8   1  348.57   14.90
   0   8  -1  371.96   12.70
   2  -8   1   33.80    6.90
   2  -8   1   24.00    6.30
  -2  -8  -1   21.00    8.30
   2   8   1   15.70    6.90
  -2   8  -1   20.40    6.00
   4  -8   1  385.46   14.70
  -4  -8  -1  381.56   20.30
   4  -8   1  366.06   16.60
  -4  -8  -1  405.26   18.60
   4   8   1  377.46   11.60
  -4   8  -1  389.06   17.90
   6  -8   1   53.99   11.70
  -6  -8  -1   38.10   13.60
  -6  -8  -1   51.79   10.90
  -6   8  -1   66.49   13.50
   6   8   1   42.80    7.70
  -8  -8  -1  210.28   22.50
  -8  -8  -1  234.28   14.80
   8  -8   1  201.38   17.90
   8   8   1  260.27   15.70
  -8   8  -1  231.68   21.50
 -10  -8  -1   19.90   16.80
  10  -8   1   38.60   13.00
 -10   8  -1   58.89   18.00
 -12  -8  -1   74.09   21.90
  12  -8   1   42.40   15.10
 -12   8  -1   31.80   20.00
  13  -9  -1   21.80   14.50
 -13  -9   1   86.79   22.40
 -13   9   1   59.99   22.40
 -11  -9   1   -2.50   16.30
  11  -9  -1   -9.60   12.20
 -11   9   1   -2.50   16.00
  -9  -9   1   39.30    9.40
   9  -9  -1   31.80   12.20
  -9  -9   1   42.70   15.70
  -9   9   1   18.90   14.50
   9   9  -1   43.20   10.30
  -7  -9   1   43.90   14.70
   7  -9  -1   24.40   11.30
   7  -9  -1   35.20    8.20
  -7  -9   1   35.30   10.00
   7   9  -1   32.30    9.50
  -7   9   1   26.80   13.50
   5  -9  -1   43.70    9.60
  -5  -9   1   35.30    9.00
  -5  -9   1   29.20   10.40
  -5   9   1   40.70   10.50
  -3  -9   1  273.77   16.80
  -3  -9   1  273.87   13.80
   3  -9  -1  290.37   14.30
  -3   9   1  253.07   14.10
   1  -9  -1   91.39    7.30
  -1  -9   1   93.39   10.50
  -1  -9   1   80.49    5.70
  -1   9   1   92.59    8.70
   1   9  -1   85.29    7.20
  -1  -9  -1  560.04   21.20
   1  -9   1  547.45   16.60
   1  -9   1  579.64   20.40
  -1   9  -1  566.44   16.80
   1   9   1  557.04   19.60
   3  -9   1  947.81   26.60
   3  -9   1  914.21   26.10
  -3  -9  -1  969.30   29.60
  -3   9  -1  957.30   27.10
   3   9   1  916.51   28.90
   5  -9   1   61.09   10.40
   5  -9   1   58.79    7.00
  -5  -9  -1   56.29   11.30
  -5  -9  -1   68.49   13.30
  -5   9  -1   52.79   11.00
   5   9   1   49.10    6.20
  -7  -9  -1  611.54   30.60
  -7  -9  -1  604.44   25.60
   7  -9   1  598.84   26.90
   7   9   1  586.14   20.20
  -7   9  -1  572.04   27.80
  -9  -9  -1   95.79   18.90
   9  -9   1   79.29   14.60
   9   9   1  129.99   12.30
  -9   9  -1   95.19   17.80
  11  -9   1   67.39   15.40
 -11  -9  -1   59.89   20.00
 -11   9  -1   49.40   18.60
 -12 -10   1   26.00   18.50
  12 -10  -1   31.60   16.10
 -12  10   1   54.29   19.10
 -10 -10   1    8.40   15.70
  10 -10  -1   29.70   13.70
 -10  10   1   15.70   15.20
  -8 -10   1  369.36   25.90
  -8 -10   1  373.16   20.50
   8 -10  -1  392.76   22.50
   8  10  -1  367.46   17.90
  -8  10   1  418.56   25.60
  -6 -10   1   74.29   11.70
   6 -10  -1   86.69   13.40
   6 -10  -1   94.69   10.00
  -6 -10   1   49.99   13.40
  -6  10   1   80.19   13.60
  -4 -10   1  119.19   11.80
   4 -10  -1  119.79   11.80
  -4 -10   1  106.19   11.80
  -4  10   1  112.39   11.70
   2 -10  -1  723.53   21.00
  -2 -10   1  749.03   25.70
   2  10  -1  734.03   22.00
  -2  10   1  716.93   22.90
   0 -10  -1  660.43   16.20
   0 -10   1  641.54   17.30
   0 -10   1  589.64   21.80
   0  10  -1  682.73   19.30
   0  10   1  633.04   21.00
   2 -10   1 2854.01   61.09
  -2 -10  -1 2700.83   65.09
   2 -10   1 2798.52   63.49
  -2  10  -1 2950.80   64.09
   2  10   1 2780.12   67.09
   4 -10   1  160.48   12.90
   4 -10   1  159.98   12.10
  -4 -10  -1  123.49   13.50
   4  10   1  134.89    6.20
  -4  10  -1  157.18   12.50
   4  10   1  142.99   13.10
   6 -10   1  135.79    8.80
  -6 -10  -1  142.69   15.10
  -6 -10  -1  126.99   16.10
   6 -10   1  106.69   13.90
  -6  10  -1  155.48   16.50
   6  10   1  132.69    9.30
  -8 -10  -1   14.00   10.40
   8 -10   1   30.90   12.00
  -8 -10  -1   21.50   15.40
  -8  10  -1   17.50   14.10
   8  10   1   15.00    7.70
 -10 -10  -1   23.50   18.00
  10 -10   1   40.80   14.30
 -10  10  -1   94.59   18.90
  12 -10   1   10.00   13.00
 -12 -10  -1   12.30   19.50
 -12  10  -1   13.30   18.90
  11 -11  -1    4.90   13.30
 -11 -11   1   29.20   17.10
 -11  11   1   27.80   17.20
   9 -11  -1   83.69   15.40
  -9 -11   1   50.29   16.30
  -9 -11   1   63.79   11.50
  -9  11   1   36.90   15.70
   7 -11  -1   29.80   12.90
   7 -11  -1   35.10    9.80
  -7 -11   1   40.20   14.80
  -7 -11   1   45.00   11.20
   7  11  -1   24.70    9.20
  -7  11   1   24.90   13.80
   5 -11  -1  206.58   15.70
   5 -11  -1  203.58   13.30
  -5 -11   1  213.38   16.50
  -5 -11   1  177.78   14.80
  -5  11   1  225.78   16.90
   3 -11  -1   14.00    7.70
  -3 -11   1   22.00    9.20
   3  11  -1   15.80    7.30
  -3  11   1   13.40    7.80
  -1 -11   1   40.40    4.70
   1 -11  -1   31.40    6.10
  -1 -11   1   31.80    9.70
   1  11  -1   35.60    6.50
  -1  11   1   29.60    7.10
   1 -11   1  911.21   24.00
   1 -11   1  926.01   28.80
  -1 -11  -1  893.21   28.70
   1  11   1  950.50   28.10
  -1  11  -1  920.01   25.00
   3 -11   1  159.18   12.10
   3 -11   1  151.98   11.90
  -3 -11  -1  140.79   13.60
   3  11   1  164.38   13.50
  -3  11  -1  163.98   12.20
  -5 -11  -1   10.40   11.40
  -5 -11  -1   15.60   10.80
   5 -11   1   23.90    8.10
   5 -11   1    8.40    9.70
  -5  11  -1   14.30   10.60
   5  11   1   16.50    4.50
  -7 -11  -1  156.78   20.00
   7 -11   1  150.48   16.20
  -7 -11  -1  161.08   16.50
   7  11   1  140.49   10.60
  -7  11  -1  140.39   17.40
  -9 -11  -1  -29.90   14.60
   9 -11   1   -4.30   11.40
  -9  11  -1   -6.40   14.10
  11 -11   1   39.00   14.70
 -11 -11  -1   36.70   18.70
 -11  11  -1   25.70   18.00
  12 -12  -1    0.40   14.80
 -12 -12   1  -21.60   16.90
 -12  12   1  -17.50   17.30
 -10 -12   1   29.10   16.00
  10 -12  -1   13.90   13.50
 -10  12   1  -18.30   15.30
  -8 -12   1  278.07   20.50
   8 -12  -1  355.86   23.10
  -8 -12   1  302.47   23.70
  -8  12   1  289.37   22.50
  -6 -12   1   59.69   14.10
  -6 -12   1   57.59   12.10
   6 -12  -1   45.10   10.70
   6 -12  -1   62.19   12.20
  -6  12   1   53.29   13.60
   4 -12  -1  253.17   15.70
  -4 -12   1  216.98   15.40
   4 -12  -1  234.08   16.80
  -4 -12   1  218.48   16.30
  -4  12   1  233.18   15.50
  -2 -12   1  187.08    7.80
   2 -12  -1  208.88   12.70
  -2 -12   1  190.48   15.30
   2 -12  -1  219.88   16.40
   2  12  -1  206.58   11.70
  -2  12   1  186.78   12.90
   0 -12  -1   96.29    6.50
   0 -12   1   86.59    7.20
   0 -12   1  107.29   12.30
   0 -12  -1  107.79   12.50
   0  12   1   89.49    9.90
   0  12  -1  101.29    8.60
   2 -12   1   18.20    7.00
  -2 -12  -1    0.70    9.30
   2 -12   1   16.80    9.20
  -2  12  -1    8.20    6.30
   2  12   1   -2.30    6.60
   4 -12   1   29.30    9.30
  -4 -12  -1   34.70   12.40
   4 -12   1   21.20    9.30
  -4  12  -1   23.60    9.50
   4  12   1   25.40   10.50
  -6 -12  -1  -25.00   11.70
   6 -12   1   -3.80    7.50
   6 -12   1    9.90   11.00
  -6 -12  -1   -0.40   13.90
   6  12   1    1.10    5.10
  -6  12  -1   16.60   11.80
  -8 -12  -1  102.79   13.70
   8 -12   1  122.19   14.90
  -8 -12  -1  115.39   18.80
  -8  12  -1   90.19   15.60
 -10 -12  -1   36.10   17.40
  10 -12   1    7.40   11.40
 -10  12  -1  -12.70   14.60
  12 -12   1   -0.70   14.20
 -12 -12  -1   22.20   20.30
 -12  12  -1   26.10   19.60
  11 -13  -1   23.00   14.60
 -11 -13   1   31.90   17.90
 -11  13   1   10.50   16.80
  -9 -13   1  113.49   18.80
  -9 -13   1  104.19   14.10
   9 -13  -1   88.39   15.20
  -9  13   1  109.19   18.10
  -7 -13   1  170.48   19.10
   7 -13  -1  172.18   17.20
   7 -13  -1  177.08   14.80
  -7 -13   1  197.38   16.80
  -7  13   1  170.68   18.80
  -5 -13   1  265.67   19.10
   5 -13  -1  295.37   19.70
   5 -13  -1  234.08   17.30
  -5 -13   1  260.37   18.50
  -5  13   1  287.07   18.50
   3 -13  -1   32.30    8.50
   3 -13  -1   31.80    9.80
  -3 -13   1   54.39   12.40
  -3  13   1   28.80    8.90
   3  13  -1   23.00    8.00
  -1 -13   1  156.18   14.60
  -1 -13   1  126.59    7.70
   1 -13  -1  134.19   13.60
   1 -13  -1  151.88   10.30
   1  13  -1  144.39   11.30
  -1  13   1  111.59   11.20
   1 -13   1   58.69    7.60
   1 -13   1   66.39   11.40
  -1 -13  -1   57.89    3.90
  -1 -13  -1   53.89   11.30
   1  13   1   60.89    9.20
  -1  13  -1   64.29    7.90
   3 -13   1  153.28   12.30
   3 -13   1  140.79   13.30
  -3 -13  -1  121.29   15.70
   3  13   1  140.19   14.10
  -3  13  -1  155.48   12.20
   5 -13   1   54.99   10.50
  -5 -13  -1   60.89   14.80
   5 -13   1   74.59   12.40
  -5 -13  -1   66.09   14.60
  -5  13  -1   69.39   12.80
   7 -13   1   59.79   13.30
  -7 -13  -1   60.99   14.70
  -7 -13  -1   41.80   15.70
  -7  13  -1   51.09   14.90
  -9 -13  -1  156.48   21.40
   9 -13   1  160.48   17.70
  -9  13  -1  126.09   19.40
 -11 -13  -1   36.10   18.50
  11 -13   1   -5.80   12.60
 -11  13  -1    7.60   16.80
  12 -14  -1   -2.00   15.00
 -12 -14   1   20.40   18.80
 -12  14   1   36.70   19.70
 -10 -14   1   34.80   16.40
  10 -14  -1   39.90   14.30
 -10  14   1   23.20   16.00
   8 -14  -1  102.29   14.90
  -8 -14   1   91.39   13.60
  -8 -14   1   87.69   16.60
  -8  14   1   67.09   15.50
  -6 -14   1   76.59   15.10
   6 -14  -1   73.69   14.00
  -6 -14   1   62.99   14.00
   6 -14  -1   57.99   12.50
  -6  14   1   89.69   14.70
  -4 -14   1   34.40   11.70
   4 -14  -1   42.20   11.60
  -4 -14   1   68.29   13.80
   4 -14  -1   39.70   10.80
  -4  14   1   45.30   10.70
   4  14  -1   55.99   10.80
  -2 -14   1  126.79    7.20
   2 -14  -1  133.09   10.80
  -2 -14   1  135.59   14.10
   2 -14  -1  131.09   14.10
   2  14  -1  143.69   11.40
  -2  14   1  138.09   12.20
   0 -14   1  100.89   12.80
   0 -14  -1   71.19   13.00
   0 -14  -1   93.19    6.90
   0 -14   1   93.29    7.60
   0  14  -1   82.39    8.90
   0  14   1   91.99   10.60
   2 -14   1   35.10    8.20
   2 -14   1   29.10   10.90
  -2 -14  -1   37.90   12.90
   2  14   1   41.10    9.60
  -2  14  -1   35.50    8.00
   4 -14   1   86.69   11.90
   4 -14   1   75.69   12.20
  -4 -14  -1   84.99   15.80
   4  14   1   75.39   13.40
  -4  14  -1   74.69   11.70
   6 -14   1  342.37   20.60
  -6 -14  -1  327.97   25.00
   6 -14   1  380.36   19.50
  -6 -14  -1  361.86   26.50
  -6  14  -1  359.06   22.70
  -8 -14  -1    9.70   14.80
  -8 -14  -1  -18.30   11.20
   8 -14   1   -1.30   11.20
  -8  14  -1   -7.50   12.40
  10 -14   1    0.50   12.30
 -10 -14  -1   10.90   17.10
 -10  14  -1    0.00   16.20
  11 -15  -1   49.10   16.20
 -11 -15   1   71.39   19.10
 -11  15   1   42.80   18.00
   9 -15  -1  108.49   17.00
  -9 -15   1  112.39   15.20
  -9 -15   1  101.99   18.50
  -9  15   1   68.09   17.00
  -7 -15   1  478.75   25.70
   7 -15  -1  455.15   24.90
   7 -15  -1  477.55   23.80
  -7 -15   1  442.56   25.80
  -7  15   1  464.85   25.10
  -5 -15   1  195.38   18.60
   5 -15  -1  151.08   14.80
  -5 -15   1  167.18   16.50
   5 -15  -1  173.78   16.20
  -5  15   1  148.69   15.80
   3 -15  -1  513.55   20.20
   3 -15  -1  501.55   25.10
  -3 -15   1  513.35   25.80
   3  15  -1  488.65   20.80
  -3  15   1  524.05   22.50
   1 -15  -1  552.14   24.70
   1 -15  -1  538.65   17.90
  -1 -15   1  562.74   25.40
  -1 -15   1  537.15   15.90
   1  15  -1  577.94   20.80
  -1  15   1  559.14   21.80
   1 -15   1  248.98   12.60
   1 -15   1  206.78   16.30
  -1 -15  -1  215.98    7.60
  -1 -15  -1  199.88   17.20
   1  15   1  226.08   15.60
  -1  15  -1  254.77   13.50
  -3 -15  -1   77.29   15.00
   3 -15   1   69.49   12.90
   3 -15   1   72.29   10.70
  -3  15  -1   77.09   10.60
   3  15   1   73.99   12.20
   5 -15   1  124.69   14.80
   5 -15   1  137.09   14.20
  -5 -15  -1  166.38   18.80
  -5 -15  -1  146.69   18.70
   5  15   1  174.38   17.90
  -5  15  -1  156.08   15.40
   7 -15   1   98.29   14.90
  -7 -15  -1  101.69   16.60
  -7 -15  -1  118.09   17.80
  -7  15  -1  111.69   16.20
   9 -15   1   43.00   14.00
  -9 -15  -1   41.00   17.30
  -9  15  -1   42.00   15.50
  11 -15   1   49.90   14.80
 -11 -15  -1   54.49   21.40
 -11  15  -1   24.80   18.10
 -10 -16   1   25.70   16.60
  10 -16  -1   12.80   13.80
 -10  16   1  -12.30   14.00
  -8 -16   1    0.70   11.10
  -8 -16   1  -16.80   12.60
   8 -16  -1    8.80   12.00
  -8  16   1  -11.70   12.50
  -6 -16   1  142.69   17.70
  -6 -16   1  198.78   18.80
   6 -16  -1  197.18   17.90
   6 -16  -1  177.18   17.30
  -6  16   1  171.58   17.60
   4 -16  -1  102.09   12.80
   4 -16  -1  102.99   15.50
  -4 -16   1  100.29   17.00
  -4  16   1   84.19   12.80
   4  16  -1  102.29   13.10
  -2 -16   1   52.79   14.50
  -2 -16   1   28.60    5.10
   2 -16  -1   23.00   11.80
   2 -16  -1   35.10    8.60
   2  16  -1   29.40    8.80
  -2  16   1   32.50    9.40
   0 -16   1  119.29    8.70
   0 -16  -1  133.39    9.10
   0 -16  -1  123.59   15.40
   0 -16   1  106.39   14.70
   0  16  -1  141.09   11.50
   0  16   1  107.99   12.10
   2 -16   1  156.98   12.50
  -2 -16  -1  153.08   19.00
   2 -16   1  170.18   16.70
   2  16   1  145.39   14.40
  -2  16  -1  160.68   12.70
  -4 -16  -1   44.10   16.30
   4 -16   1   60.19   11.50
   4 -16   1   49.10   12.80
   4  16   1   53.19   12.00
  -4  16  -1   57.79   10.80
  -6 -16  -1   18.30   14.90
   6 -16   1   25.90   10.70
  -6 -16  -1   31.50   14.70
   6 -16   1   18.50    9.90
  -6  16  -1    3.50   10.80
  -8 -16  -1    4.00   12.50
   8 -16   1    4.60   10.80
  -8 -16  -1    6.40   14.80
  -8  16  -1    9.60   12.70
  10 -16   1   22.30   12.70
 -10 -16  -1   33.00   18.00
 -10  16  -1    4.30   15.90
  11 -17  -1    3.80   14.90
 -11 -17   1   -3.40   16.60
 -11  17   1   17.70   16.60
  -9 -17   1   57.39   16.50
  -9 -17   1   20.80   12.50
   9 -17  -1   53.49   14.50
  -9  17   1   29.80   15.50
   7 -17  -1  226.78   17.90
  -7 -17   1  247.28   19.90
  -7 -17   1  196.68   20.20
   7 -17  -1  219.28   18.90
  -7  17   1  195.88   18.90
   5 -17  -1  108.89   16.40
  -5 -17   1   82.19   16.90
   5 -17  -1   61.09   12.80
  -5 -17   1   89.69   15.20
  -5  17   1   81.49   14.10
   3 -17  -1  357.06   17.90
   3 -17  -1  409.86   26.00
  -3 -17   1  331.27   23.90
   3  17  -1  373.76   19.50
  -3  17   1  377.86   20.20
   1 -17  -1  122.89    9.90
  -1 -17   1  104.09    7.80
  -1 -17   1   71.39   15.70
   1 -17  -1   72.49   15.90
   1  17  -1  124.39   11.90
  -1  17   1  100.19   12.30
  -1 -17  -1  198.38   20.20
   1 -17   1  212.08   13.00
   1 -17   1  210.88   19.20
  -1 -17  -1  204.98    8.10
   1  17   1  208.48   16.20
  -1  17  -1  230.38   14.80
   3 -17   1   58.19   10.80
  -3 -17  -1   46.80   17.00
   3 -17   1   46.30   13.90
  -3  17  -1   55.79   10.70
   3  17   1   58.19   12.30
  -5 -17  -1   29.60   16.80
   5 -17   1   66.39   13.00
   5 -17   1   65.29   13.10
   5  17   1   52.69   13.80
  -5  17  -1   73.09   13.10
  -7 -17  -1   20.40   14.30
   7 -17   1   41.80   13.00
  -7 -17  -1   61.29   16.20
  -7  17  -1   69.29   14.10
   9 -17   1   -4.30   10.60
  -9 -17  -1  -13.30   15.00
  -9  17  -1   -7.00   12.90
 -11 -17  -1   12.30   18.70
  11 -17   1  -20.90   13.40
 -11  17  -1  -24.30   15.30
  10 -18  -1   19.40   14.90
 -10 -18   1    0.20   15.40
 -10  18   1  -40.00   12.60
  -8 -18   1   49.60   15.40
  -8 -18   1   11.40   12.90
   8 -18  -1   18.40   12.10
  -8  18   1   25.20   13.50
  -6 -18   1   23.50   14.40
   6 -18  -1   42.50   13.40
  -6 -18   1   24.00   12.70
   6 -18  -1   31.50   12.00
  -6  18   1   18.10   11.70
  -4 -18   1  209.48   21.50
   4 -18  -1  215.68   16.50
   4 -18  -1  211.88   20.50
  -4  18   1  237.98   18.10
   4  18  -1  216.98   17.30
   2 -18  -1  246.98   21.30
   2 -18  -1  280.47   15.20
  -2 -18   1  273.17   22.60
  -2 -18   1  251.67   10.60
  -2  18   1  263.67   18.60
   2  18  -1  233.28   15.30
   0 -18  -1   27.90   15.50
   0 -18   1   21.00   14.60
   0 -18  -1    8.20    5.70
   0 -18   1   12.00    6.60
   0  18   1   14.20    9.50
   0  18  -1   28.00    8.80
   2 -18   1   17.50   13.80
  -2 -18  -1   27.50   17.20
   2 -18   1   35.90    9.10
   2  18   1    9.30   10.30
  -2  18  -1   36.60    9.70
   4 -18   1  383.66   21.10
   4 -18   1  441.26   26.70
  -4 -18  -1  440.96   32.70
   4  18   1  423.46   24.30
  -4  18  -1  393.26   21.00
   6 -18   1  161.08   16.20
  -6 -18  -1  107.69   17.70
   6 -18   1  151.98   14.30
  -6 -18  -1  121.29   18.30
  -6  18  -1  141.29   15.60
   8 -18   1   19.70   12.90
  -8 -18  -1   44.30   16.70
  -8 -18  -1   27.10   15.20
  -8  18  -1   38.40   13.50
 -10 -18  -1   27.00   18.10
  10 -18   1    4.00   13.50
 -10  18  -1    0.10   14.60
 -11 -19   1   70.99   20.00
  11 -19  -1   41.60   17.60
 -11  19   1   54.49   19.90
  -9 -19   1   32.20   15.50
  -9 -19   1  -13.00   12.30
   9 -19  -1    0.30   12.90
  -9  19   1  -14.40   13.30
  -7 -19   1  251.27   22.00
   7 -19  -1  253.17   20.60
  -7 -19   1  236.68   21.20
  -7  19   1  233.68   21.20
  -5 -19   1  218.68   21.30
   5 -19  -1  239.28   18.00
  -5 -19   1  217.78   19.00
   5 -19  -1  220.88   20.20
  -5  19   1  198.38   18.10
   3 -19  -1   21.40   10.20
  -3 -19   1    3.00   14.30
   3 -19  -1  -10.70   14.30
   3  19  -1   -7.20    8.80
  -3  19   1    0.00   10.80
  -1 -19   1   52.89    7.10
   1 -19  -1   50.09    8.60
   1 -19  -1   20.20   14.80
  -1 -19   1   45.50   16.40
  -1  19   1   65.39   12.00
   1  19  -1   52.79   10.80
  -1 -19  -1  232.88   22.70
   1 -19   1  216.68   13.60
   1 -19   1  234.18   20.80
  -1  19  -1  207.48   16.40
   1  19   1  183.38   16.90
   3 -19   1  327.67   24.80
  -3 -19  -1  317.17   24.90
   3 -19   1  329.07   19.10
   3  19   1  267.77   19.90
  -3  19  -1  298.07   18.30
   5 -19   1   47.70   11.90
  -5 -19  -1   49.20   15.50
   5 -19   1   60.39   13.10
   5  19   1   47.50   13.40
  -5  19  -1   47.30   11.80
  -7 -19  -1  252.67   23.50
   7 -19   1  226.58   20.40
  -7 -19  -1  226.68   23.20
  -7  19  -1  186.18   19.10
  -9 -19  -1   76.39   19.20
   9 -19   1   43.50   15.20
  -9 -19  -1   26.90   15.10
  -9  19  -1   56.69   16.10
 -10 -20   1   41.50   17.20
  10 -20  -1   31.60   15.50
 -10  20   1   22.30   16.10
   8 -20  -1   29.40   14.00
  -8 -20   1   27.30   14.30
  -8 -20   1   51.09   15.90
  -8  20   1   40.00   14.90
   6 -20  -1   77.59   14.10
   6 -20  -1   98.49   16.00
  -6 -20   1   76.99   16.80
  -6 -20   1   85.29   16.00
  -6  20   1   93.79   15.50
   4 -20  -1  256.97   21.80
   4 -20  -1  259.17   18.30
  -4 -20   1  237.18   23.00
  -4  20   1  241.98   18.50
   4  20  -1  234.48   18.40
  -2 -20   1  192.58   20.80
   2 -20  -1  194.38   13.90
   2 -20  -1  195.58   20.60
   2  20  -1  181.58   15.40
  -2  20   1  161.88   16.10
   0 -20   1   79.79   17.70
   0 -20  -1   36.60   16.40
   0 -20  -1   37.00    7.10
   0 -20   1   41.20    8.00
   0  20   1   53.69   11.50
   0  20  -1   25.30    9.80
   2 -20   1   79.19   17.00
  -2 -20  -1  138.69   21.30
   2 -20   1  113.39   12.20
   2  20   1   97.29   14.40
  -2  20  -1  117.69   13.10
   4 -20   1  138.69   14.30
   4 -20   1  100.39   15.30
  -4 -20  -1   98.59   20.20
   4  20   1  101.19   15.70
  -4  20  -1   99.59   13.40
  -6 -20  -1    4.20   15.60
   6 -20   1    3.80   11.20
   6 -20   1  -11.10   10.70
  -6 -20  -1    3.50   13.20
  -6  20  -1   25.20   11.90
  -8 -20  -1   48.30   16.10
  -8 -20  -1   39.60   16.90
   8 -20   1   49.20   14.60
  -8  20  -1   41.20   14.80
 -10 -20  -1   68.89   20.20
  10 -20   1   57.39   17.30
 -10  20  -1   31.40   17.50
  -9 -21   1   32.80   15.60
   9 -21  -1    1.20   12.90
  -9 -21   1   13.50   14.70
  -9  21   1  -11.40   14.00
   7 -21  -1   34.50   13.10
  -7 -21   1   29.90   15.30
  -7 -21   1   46.30   15.30
  -7  21   1   32.40   13.30
   5 -21  -1   35.70   15.00
  -5 -21   1   59.69   13.20
   5 -21  -1   64.69   12.40
  -5 -21   1   64.69   17.30
  -5  21   1   58.39   12.80
   3 -21  -1   70.59   17.10
  -3 -21   1  119.29   19.50
   3 -21  -1   90.09   11.90
  -3  21   1   66.79   13.20
   3  21  -1   77.79   12.70
  -1 -21   1  192.78   22.00
   1 -21  -1  167.58   21.10
   1 -21  -1  195.48   12.80
   1  21  -1  209.98   15.60
  -1  21   1  200.58   17.90
   1 -21   1  146.59   12.10
   1 -21   1  136.79   19.80
  -1 -21  -1  131.39   21.40
   1  21   1  162.98   16.40
  -1  21  -1  151.68   14.30
   3 -21   1  110.59   16.70
  -3 -21  -1  127.39   21.00
   3 -21   1  132.29   13.70
   3  21   1  160.78   16.70
  -3  21  -1  140.69   14.00
   5 -21   1   49.90   13.70
  -5 -21  -1   54.69   18.20
   5 -21   1   53.89   12.20
   5  21   1   50.79   14.10
  -5  21  -1   38.60   11.80
   7 -21   1   -7.40   11.10
  -7 -21  -1   -0.10   14.20
  -7 -21  -1    2.70   15.40
  -7  21  -1   -6.60   11.60
   9 -21   1  -21.40   12.10
  -9 -21  -1   28.90   17.40
  -9 -21  -1  -28.20   14.70
  -9  21  -1  -25.60   13.00
 -10 -22   1   45.80   17.70
  10 -22  -1   35.10   15.50
 -10  22   1   31.40   17.50
  -8 -22   1   21.80   14.10
   8 -22  -1   -0.10   11.80
  -8 -22   1   -9.30   13.70
  -8  22   1   -0.60   13.00
   6 -22  -1  113.89   15.70
   6 -22  -1  146.09   17.90
  -6 -22   1  130.49   17.60
  -6 -22   1   97.79   18.40
  -6  22   1   93.39   15.30
  -4 -22   1   74.39   16.50
   4 -22  -1   92.79   17.20
   4 -22  -1   75.09   12.60
   4  22  -1   89.59   13.30
  -4  22   1   81.09   13.70
   2 -22  -1   15.20   14.50
  -2 -22   1   32.90   16.60
   2 -22  -1   37.30    9.50
   2  22  -1   58.79   11.10
  -2  22   1   27.90   11.70
   0 -22   1  734.83   35.50
   0 -22  -1  678.53   36.80
   0 -22   1  681.03   21.70
   0  22  -1  663.23   26.60
   0  22   1  744.73   29.60
   2 -22   1  237.78   21.50
  -2 -22  -1  195.18   23.10
   2 -22   1  225.38   15.40
   2  22   1  201.08   18.50
  -2  22  -1  246.38   17.20
   4 -22   1  311.47   19.60
  -4 -22  -1  335.17   27.70
   4 -22   1  372.46   24.30
  -4  22  -1  350.16   20.30
   4  22   1  329.57   22.60
   6 -22   1  170.38   17.70
  -6 -22  -1  150.28   22.10
  -6 -22  -1  141.79   19.50
  -6  22  -1  138.79   16.90
   8 -22   1   15.00   12.90
  -8 -22  -1    3.60   15.30
  -8 -22  -1   38.20   17.20
  -8  22  -1    4.40   12.50
  -9 -23   1    3.50   15.50
   9 -23  -1   24.90   14.70
  -9 -23   1   36.20   17.30
  -9  23   1   21.50   15.80
  -7 -23   1   57.79   14.70
  -7 -23   1   14.90   15.50
   7 -23  -1   15.20   12.10
  -7  23   1   14.90   12.70
   5 -23  -1   -2.80   10.50
  -5 -23   1   23.50   16.20
   5 -23  -1    9.40   14.40
  -5 -23   1   10.90   12.00
  -5  23   1   15.00   11.70
   3 -23  -1   -9.30   13.70
   3 -23  -1  -13.20    8.10
  -3 -23   1  -13.20   14.70
   3  23  -1    3.20    9.80
  -3  23   1    2.20    9.90
   1 -23  -1  158.18   20.90
  -1 -23   1  163.18   19.80
  -1  23   1  160.38   16.10
   1  23  -1  155.98   14.50
   1 -23   1   22.00    7.70
   1 -23   1   39.40   15.80
   1  23   1   29.50   11.50
  -1  23  -1   28.60   10.50
  -3 -23  -1   37.10   17.10
   3 -23   1  115.89   13.30
   3 -23   1  111.59   17.30
  -3  23  -1   95.09   13.10
   3  23   1  115.89   15.40
   5 -23   1   50.09   12.60
   5 -23   1   50.49   14.60
  -5 -23  -1   58.69   19.50
  -5  23  -1   76.89   13.90
   5  23   1   47.30   14.80
   7 -23   1   84.79   15.30
  -7 -23  -1   68.39   19.80
  -7 -23  -1   71.69   18.00
  -7  23  -1   85.99   15.90
   9 -23   1  -11.00   12.70
  -9 -23  -1    7.00   16.70
  -9 -23  -1    2.70   16.50
  -9  23  -1    1.80   14.40
   8 -24  -1   32.60   14.10
  -8 -24   1   43.60   18.00
  -8 -24   1   35.60   16.30
  -8  24   1   31.40   15.40
  -6 -24   1   41.10   17.10
  -6 -24   1   57.69   15.30
   6 -24  -1   37.80   16.00
   6 -24  -1   36.90   12.40
  -6  24   1    4.50   13.00
   4 -24  -1   65.09   17.10
  -4 -24   1   80.39   19.40
   4 -24  -1   86.59   13.20
  -4  24   1   95.19   14.70
   4  24  -1   82.19   13.80
  -2 -24   1  108.09   18.20
   2 -24  -1  147.59   20.50
  -2  24   1  148.29   16.30
   2  24  -1  121.79   14.10
   0 -24  -1   66.49   17.20
   0 -24   1   41.70   16.50
   0  24   1   29.40   11.80
   0  24  -1   41.40   10.70
  -2 -24  -1  246.18   25.80
   2 -24   1  254.07   16.40
   2 -24   1  241.48   21.60
  -2  24  -1  272.57   18.60
   2  24   1  281.37   20.80
  -4 -24  -1   44.90   19.40
   4 -24   1   45.10   15.30
   4 -24   1   36.40   11.60
  -4  24  -1   39.00   11.60
   4  24   1   48.00   14.70
  -6 -24  -1    8.10   17.10
  -6 -24  -1   23.10   14.60
   6 -24   1   46.20   13.30
  -6  24  -1   14.90   12.30
  -8 -24  -1  115.19   20.50
   8 -24   1  122.69   18.80
  -8 -24  -1   93.59   20.10
  -8  24  -1   83.79   16.50
  -7 -25   1   28.40   16.60
   7 -25  -1   22.80   13.20
  -7 -25   1   22.20   15.00
  -7  25   1   40.90   14.70
  -5 -25   1   18.20   12.80
  -5 -25   1   20.50   16.80
   5 -25  -1   -2.90   10.50
   5 -25  -1   11.50   15.00
  -5  25   1   22.00   12.90
   3 -25  -1   66.39   17.80
   3 -25  -1   56.19   11.10
  -3 -25   1   53.39   18.50
   3  25  -1   29.70   11.60
  -3  25   1   21.10   12.70
   1 -25  -1    8.10   16.40
  -1 -25   1   -0.80   15.60
   1  25  -1   31.40   10.20
  -1  25   1    2.30   10.40
   1 -25   1    9.40   15.80
  -1 -25  -1   19.70   15.70
  -1  25  -1   20.50   10.70
   1  25   1   16.70   11.10
   3 -25   1   54.69   15.60
  -3 -25  -1   43.40   19.70
   3 -25   1   52.89   11.50
  -3  25  -1   78.39   13.80
   3  25   1   55.39   14.10
  -5 -25  -1  -23.80   15.40
   5 -25   1   -2.00   10.70
   5 -25   1  -15.10   13.40
  -5  25  -1   14.20   11.40
   5  25   1   27.60   13.40
  -7 -25  -1   80.19   18.90
   7 -25   1   34.30   15.00
  -7 -25  -1   65.49   20.60
   8 -26  -1   13.00   13.30
  -8 -26   1   13.30   17.30
  -8 -26   1   36.90   16.10
  -8  26   1   78.59   18.10
  -6 -26   1   16.70   13.00
  -6 -26   1  -22.90   15.30
   6 -26  -1   16.00   12.30
   6 -26  -1   16.30   15.30
  -6  26   1   28.60   12.90
   4 -26  -1   14.90   10.60
   4 -26  -1    3.00   15.30
  -4 -26   1   23.10   17.50
  -4  26   1    5.30   11.80
   4  26  -1   19.80   12.30
  -2 -26   1  191.98   23.30
   2 -26  -1  167.48   22.20
   2  26  -1  169.98   16.60
  -2  26   1  164.18   17.70
   0 -26   1   68.29   17.00
   0 -26  -1   61.99   19.10
   0  26   1   69.69   13.90
   0  26  -1   83.99   13.30
   2 -26   1  111.19   18.80
  -2 -26  -1   95.39   21.40
  -2  26  -1   81.79   13.50
   2  26   1   99.49   14.90
  -4 -26  -1   66.59   20.90
   4 -26   1   41.30   15.00
   4 -26   1   36.10   11.90
   4  26   1   47.00   14.90
  -4  26  -1   48.10   12.40
  -6 -26  -1    8.40   14.40
   6 -26   1    8.70   11.60
  -6 -26  -1    7.60   18.80
  -7 -27   1  -20.00   16.10
   7 -27  -1   -2.00   12.80
  -7 -27   1    9.70   14.90
  -7  27   1    0.60   13.70
  -5 -27   1   36.60   16.90
   5 -27  -1   39.30   17.10
  -5 -27   1   37.90   14.30
   5 -27  -1   26.80   11.90
  -5  27   1   44.50   14.40
   3 -27  -1   -5.00   15.90
  -3 -27   1   -0.70   16.50
   3  27  -1   12.40   11.10
  -3  27   1    6.80   11.90
  -1 -27   1   20.70   15.80
   1 -27  -1   -6.60   16.90
  -1  27   1   20.00   11.90
   1  27  -1   21.90   10.90
   1 -27   1   58.59   17.60
  -1 -27  -1   29.10   17.30
   1  27   1   51.29   12.70
  -1  27  -1   52.79   12.70
  -3 -27  -1   46.60   20.20
   3 -27   1   58.89   17.20
   3 -27   1   75.29   12.60
   3  27   1   62.39   14.80
   5 -27   1   50.09   15.70
  -5 -27  -1   46.30   18.70
   5 -27   1   70.99   13.80
   5  27   1   28.00   14.90
  -7 -27  -1  -23.80   17.80
  -7 -27  -1   52.69   18.50
   7 -27   1   61.79   16.20
  -6 -28   1   10.40   14.60
  -6 -28   1  -15.80   15.50
   6 -28  -1  -36.80   15.90
   6 -28  -1   -1.50   11.90
  -6  28   1   15.30   13.50
   4 -28  -1  143.49   21.30
  -4 -28   1  133.79   22.90
  -4  28   1  143.39   18.30
   4  28  -1  143.19   17.30
   2 -28  -1    7.00   17.10
  -2 -28   1    7.30   16.20
  -2  28   1   12.30   11.70
   2  28  -1    9.40   10.50
   0 -28  -1   30.40   19.00
   0 -28   1   42.70   17.60
   0  28  -1   46.70   11.60
   0  28   1   26.30   13.10
   2 -28   1   50.99   17.30
  -2 -28  -1   50.59   19.50
   2  28   1   33.60   12.30
   4 -28   1   27.40   16.30
  -4 -28  -1   29.80   20.00
   4 -28   1   25.90   11.70
   4  28   1   37.70   14.30
  -6 -28  -1   21.30   16.00
   6 -28   1    1.60   12.50
  -6 -28  -1  -14.10   18.70
   5 -29  -1   76.49   19.70
  -5 -29   1   70.29   16.20
  -5 -29   1   49.60   18.60
  -5  29   1   59.19   15.30
   3 -29  -1   46.70   18.10
  -3 -29   1   19.90   17.70
   3  29  -1   42.70   13.20
  -3  29   1   42.30   14.30
  -1 -29   1   14.70   17.00
   1 -29  -1   10.20   16.00
  -1  29   1   12.40   12.40
  -1 -29  -1   25.00   17.50
   1 -29   1   16.00   16.30
   1  29   1   36.40   13.20
   3 -29   1   39.30   17.00
  -3 -29  -1   38.60   20.90
   3  29   1   41.50   13.70
   5 -29   1    6.50   12.10
  -5 -29  -1   38.10   19.80
   5 -29   1    5.40   14.70
   5  29   1   28.00   14.80
   4 -30  -1   47.70   20.10
  -4 -30   1   55.49   19.10
  -4  30   1   58.79   15.90
   2 -30  -1   35.50   18.00
  -2 -30   1   -4.50   16.70
  -2  30   1   -5.30   11.80
   0 -30   1    1.20   16.60
   0 -30  -1  -18.50   17.20
   0  30   1    4.30   10.70
   2 -30   1  -29.40   14.40
  -2 -30  -1    3.60   17.60
   2  30   1   11.50   11.60
   4 -30   1   23.80   17.20
  -4 -30  -1   22.20   21.10
   4  30   1   62.19   16.00
  -3 -31   1  -14.60   17.20
   3 -31  -1  -24.80   16.90
  -3  31   1    2.80   13.00
  -1 -31   1   58.19   19.80
   1 -31  -1   63.89   21.00
  -1  31   1   76.79   15.90
   1 -31   1    0.60   16.80
  -1 -31  -1   -2.40   18.50
   1  31   1   16.50   13.20
  -3 -31  -1   33.20   21.40
   3 -31   1   -5.00   16.90
   3  31   1    2.70   13.30
  -2 -32   1   -7.70   18.10
   2 -32  -1   -4.40   18.80
  -2  32   1   39.50   14.50
   0 -32  -1   17.30   18.00
   0 -32   1  -12.30   16.70
   0  32   1   19.10   12.80
  -2 -32  -1   18.30   18.90
   2 -32   1   30.70   19.10
   2  32   1   44.60   14.90
 -12   0   2  220.48   26.20
  12   0  -2  133.99   18.20
 -10   0   2  379.86   27.70
  10   0  -2  355.56   22.70
  -8   0   2   65.69   16.10
  -8   0   2   43.20    6.00
  -6   0   2  243.38   18.40
  -6   0   2  262.17   10.60
  -4   0   2  637.84   21.70
  -4   0   2  662.23   17.50
  -2   0   2 1964.10   45.70
  -2   0   2 2078.19   43.60
   0   0   2 3938.81   77.49
   0   0   2 3943.21   83.09
   2   0   2 1007.00   23.00
   2   0   2 1016.70   24.40
  -2   0  -2  993.80   26.90
  -4   0  -2  598.84   22.00
   4   0   2  602.94   19.40
   6   0   2  607.64   22.10
  -6   0  -2  551.84   25.90
   8   0   2  112.79   13.90
  -8   0  -2  107.19   19.10
  10   0   2  442.96   24.00
 -10   0  -2  489.95   31.10
  12   0   2   92.19   16.40
 -12   0  -2  111.69   24.20
 -13  -1   2   38.70   21.20
  13  -1  -2    8.40   13.40
 -13   1   2    3.50   19.50
  13   1  -2  -11.00   13.40
  11  -1  -2   -3.90   12.30
 -11  -1   2   11.00   16.90
 -11   1   2   19.60   17.30
  11   1  -2    8.70   12.00
   9  -1  -2   55.59   14.00
  -9  -1   2   50.89   16.30
  -9   1   2   78.09   18.20
   9   1  -2   54.59   13.70
  -7  -1   2    9.00    5.20
  -7  -1   2    7.10   12.40
  -7   1   2    8.30    4.60
  -7   1   2   15.50   12.50
  -5  -1   2  133.09    8.40
  -5  -1   2  130.39   12.30
  -5   1   2  123.89    7.90
  -5   1   2  113.09   12.00
  -3  -1   2  256.07   10.30
  -3  -1   2  244.48   13.30
  -3   1   2  284.77   13.50
  -3   1   2  249.78    9.70
  -1  -1   2 9864.91  205.98
  -1  -1   2 9884.31  198.58
  -1   1   2 9999.00  199.38
  -1   1   2 9956.50  208.68
   1  -1   2  717.23   17.30
   1  -1   2  714.83   18.60
   1   1   2  701.03   17.70
  -1   1  -2  716.33   19.00
   1   1   2  697.63   19.70
   1   1   2  723.33   18.00
   3  -1   2 1022.60   22.30
  -3  -1  -2  977.60   28.30
   3  -1   2 1012.10   25.90
   3   1   2  998.20   25.10
  -3   1  -2  987.70   27.80
  -5  -1  -2  175.78    9.50
  -5  -1  -2  177.08   15.20
   5  -1   2  163.58   12.20
   5   1   2  173.58   11.90
  -5   1  -2  184.68   15.30
  -7  -1  -2   32.20   14.90
   7  -1   2    2.50    9.20
   7   1   2   23.90    9.80
  -7   1  -2   -8.30   12.10
   9  -1   2  155.68   15.90
  -9  -1  -2  175.78   21.20
  -9   1  -2  157.18   20.20
   9   1   2  159.78   15.40
 -11  -1  -2   18.20   17.80
  11  -1   2   18.70   12.10
 -11   1  -2    1.20   17.50
  11   1   2   12.50   11.30
 -12  -2   2   -6.10   17.20
  12  -2  -2  -14.70   12.10
  12   2  -2   -6.20   12.40
 -12   2   2  -11.50   15.30
  10  -2  -2   16.70   12.50
 -10  -2   2   31.80   16.30
  10   2  -2   32.80   12.40
 -10   2   2   50.79   17.20
  -8  -2   2   68.69   16.40
  -8  -2   2   69.29    7.40
  -8   2   2   68.09    6.30
  -8   2   2   73.09   16.80
  -6  -2   2  383.76   14.20
  -6  -2   2  407.56   20.30
  -6   2   2  373.56   12.60
  -6   2   2  397.36   20.90
  -4  -2   2  653.43   18.40
  -4  -2   2  675.03   21.70
  -4   2   2  662.53   22.30
  -4   2   2  668.73   17.60
  -2  -2   2 1768.32   40.10
  -2  -2   2 1847.82   41.70
  -2   2   2 1839.22   40.00
  -2   2   2 1860.91   43.00
   0  -2   2  245.58    6.90
   0  -2   2  253.97    8.70
   0  -2   2  250.37    9.80
   0   2   2  232.08    9.70
   0   2   2  237.58   10.00
   0   2   2  234.98    8.40
   2  -2   2 1141.49   27.90
   2  -2   2 1200.78   25.70
   2   2   2 1130.79   26.80
   2   2   2 1162.18   30.20
   2   2   2 1163.38   26.40
  -2   2  -2 1143.49   28.90
   4  -2   2   37.80    7.60
  -4  -2  -2   12.20    8.80
   4  -2   2   25.00    2.90
  -4   2  -2   42.00    8.90
   4   2   2   31.50    6.60
   6  -2   2  184.78   13.70
  -6  -2  -2  159.28   17.10
  -6  -2  -2  171.88   10.90
   6   2   2  188.48   13.40
  -6   2  -2  162.38   16.60
  -8  -2  -2   19.60   16.30
   8  -2   2   15.50   10.80
   8   2   2   47.70   10.90
  -8   2  -2   66.79   17.80
  10  -2   2   34.40   12.30
 -10  -2  -2   37.30   18.20
 -10   2  -2   49.00   18.10
  10   2   2   41.20   11.60
  12  -2   2   34.40   14.10
 -12  -2  -2   80.49   22.10
  12   2   2   62.89   14.80
 -12   2  -2   40.00   21.40
 -13  -3   2  -18.10   18.50
  13  -3  -2   -3.20   13.40
 -13   3   2    2.90   18.90
  13   3  -2   -0.50   13.60
  11  -3  -2  160.98   19.00
 -11  -3   2  157.28   22.80
 -11   3   2  170.58   23.10
  11   3  -2  187.58   18.60
  -9  -3   2  140.99   19.90
   9  -3  -2  125.79   17.00
   9   3  -2  128.39   15.80
  -9   3   2  118.29   19.40
  -7  -3   2   35.90   13.00
  -7  -3   2   27.10    6.70
  -7   3   2   32.60   13.50
  -7   3   2   32.40    5.10
  -5  -3   2  110.69    8.10
  -5  -3   2  100.89   11.60
  -5   3   2  111.79    7.20
  -5   3   2  116.59   11.40
  -3  -3   2  559.24   18.10
  -3  -3   2  534.75   16.60
  -3   3   2  600.04   19.40
  -3   3   2  574.44   15.60
  -1  -3   2  677.53   17.50
  -1  -3   2  690.83   18.20
  -1  -3   2  681.43   16.40
  -1   3   2  707.23   18.30
  -1   3   2  698.83   19.70
   1  -3   2  549.85   16.20
   1  -3   2  578.44   15.10
  -1   3  -2  524.75   15.00
   1   3   2  522.25   14.10
   1   3   2  542.75   17.50
   1   3   2  509.15   15.40
   3  -3   2   46.60    3.70
   3  -3   2   49.20    7.30
  -3  -3  -2   48.50    8.20
  -3   3  -2   61.79    8.60
   3   3   2   60.79    6.10
  -5  -3  -2   38.40   11.10
   5  -3   2   33.70    8.60
  -5  -3  -2   27.50    6.90
   5   3   2   40.10    7.70
  -5   3  -2   30.10   10.30
  -7  -3  -2  432.06   26.30
   7  -3   2  396.86   21.10
  -7   3  -2  408.06   25.10
   7   3   2  459.15   19.60
   9  -3   2   45.90   12.00
  -9  -3  -2   45.00   17.10
   9   3   2   58.59   11.50
  -9   3  -2   31.20   16.10
 -11  -3  -2   15.10   18.00
  11  -3   2   17.60   12.20
 -11   3  -2    5.40   18.30
  11   3   2    1.80   10.40
  12  -4  -2   -1.10   13.40
 -12  -4   2   19.60   19.10
  12   4  -2   -9.30   11.30
 -12   4   2  -10.30   17.30
  10  -4  -2   86.09   15.50
 -10  -4   2   76.99   17.70
  10   4  -2   59.99   13.20
 -10   4   2   62.59   17.70
  -8  -4   2   20.40   14.60
   8  -4  -2   37.80   13.30
  -8  -4   2   23.90    7.20
  -8   4   2   53.09   15.80
  -8   4   2   26.20    5.70
  -6  -4   2    5.10    5.70
  -6  -4   2   11.80   10.40
  -6   4   2    2.10    4.10
  -6   4   2    5.20   10.30
  -4  -4   2  217.78   13.50
  -4  -4   2  226.58   11.80
  -4   4   2  243.48   14.50
  -4   4   2  228.98    9.40
  -2  -4   2  829.22   21.40
  -2  -4   2  825.82   22.00
  -2   4   2  829.42   23.30
  -2   4   2  844.62   21.40
   0  -4   2 2989.60   60.29
   0  -4   2 2948.21   62.49
   0   4   2 2908.91   65.89
   0   4   2 2992.90   63.09
   2  -4   2 1264.57   31.00
   2  -4   2 1282.97   28.70
  -2   4  -2 1271.27   31.00
   2   4   2 1322.47   28.30
   2   4   2 1289.57   33.70
  -4  -4  -2  178.08   14.10
   4  -4   2  181.28   11.80
   4  -4   2  185.68    6.60
   4   4   2  183.08   10.20
  -4   4  -2  159.98   12.80
  -6  -4  -2  278.67   20.70
  -6  -4  -2  332.37   16.00
   6  -4   2  335.77   18.30
   6   4   2  313.77   15.80
  -6   4  -2  319.67   20.50
  -8  -4  -2  988.30   40.20
   8  -4   2  982.00   34.00
   8   4   2  930.21   30.70
  -8   4  -2 1020.10   38.70
  10  -4   2   36.50   12.50
 -10  -4  -2   58.19   18.50
  10   4   2   47.20   12.30
 -10   4  -2   41.40   18.40
 -12  -4  -2   11.40   20.60
  12  -4   2   13.00   12.70
 -12   4  -2  -11.30   18.80
 -13  -5   2   69.29   22.50
  13  -5  -2   62.99   17.20
 -13   5   2   43.90   21.70
  13   5  -2   46.70   15.50
 -11  -5   2    2.10   16.40
  11  -5  -2    0.80   13.10
 -11   5   2   13.60   17.10
  11   5  -2    1.80   12.00
  -9  -5   2  216.08   22.00
   9  -5  -2  227.78   20.20
  -9  -5   2  173.68   13.20
  -9   5   2  240.38   22.40
  -7  -5   2   39.70    8.30
  -7  -5   2   52.19   14.10
  -7   5   2   66.49   14.70
  -7   5   2   49.10    6.20
  -5  -5   2  256.47   13.20
  -5  -5   2  238.18   15.60
  -5   5   2  233.28   10.20
  -5   5   2  200.08   15.40
  -3  -5   2  514.95   17.50
  -3  -5   2  514.55   16.40
  -3   5   2  513.95   19.00
  -3   5   2  525.15   15.40
  -1  -5   2  545.45   14.00
  -1  -5   2  539.25   15.10
  -1  -5   2  559.64   18.00
  -1   5   2  543.65   16.30
  -1   5   2  547.75   18.10
   1  -5   2 2646.64   55.19
   1  -5   2 2565.84   54.29
  -1   5  -2 2550.04   55.19
   1   5   2 2626.24   59.39
   1   5   2 2503.95   50.99
   3  -5   2  678.93   17.10
   3  -5   2  709.73   21.60
  -3   5  -2  685.13   21.10
   3   5   2  697.23   17.80
   3   5   2  690.43   23.40
  -5  -5  -2   73.19   12.70
   5  -5   2   89.09   11.00
  -5  -5  -2  100.09    9.70
   5   5   2   80.29    8.20
  -5   5  -2   82.79   11.90
  -7  -5  -2  166.58   19.80
   7  -5   2  187.78   15.90
  -7  -5  -2  193.68   12.50
   7   5   2  196.28   14.10
  -7   5  -2  163.78   19.00
   9  -5   2   47.70   12.80
  -9  -5  -2   72.39   18.20
  -9   5  -2   41.50   17.10
   9   5   2   50.69   11.10
  11  -5   2   -1.70   11.40
 -11  -5  -2  -15.60   17.10
  11   5   2   12.30   10.70
 -11   5  -2  -18.20   16.40
  12  -6  -2    1.40   13.50
 -12  -6   2   -3.50   17.00
  12   6  -2   -6.80   12.10
 -12   6   2   21.50   18.50
 -10  -6   2    4.90   14.60
  10  -6  -2    5.10   11.50
 -10   6   2  -10.10   15.10
  10   6  -2   16.30   11.10
  -8  -6   2   34.80    8.90
   8  -6  -2   41.80   13.10
  -8  -6   2   53.89   14.50
  -8   6   2   44.00   15.80
  -6  -6   2  141.99   14.40
  -6  -6   2  137.99   10.50
  -6   6   2  138.19   14.70
  -4  -6   2   88.09    8.30
  -4  -6   2   92.49   10.00
  -4   6   2   81.89    6.90
  -4   6   2   99.29   10.10
  -2  -6   2 2728.33   59.99
  -2  -6   2 2758.62   59.89
  -2   6   2 2733.33   59.09
  -2   6   2 2671.03   62.39
   0  -6   2 2317.47   50.89
   0  -6   2 2355.96   48.50
   0   6   2 2276.77   53.69
   0   6  -2 2246.38   48.60
   2  -6   2  358.46   13.80
   2  -6   2  340.57   12.80
  -2   6  -2  371.06   13.00
   2   6   2  357.06   15.70
   2   6   2  330.17   10.10
   4  -6   2   38.80    8.80
   4  -6   2   42.00    4.40
  -4  -6  -2   31.90   10.40
   4   6   2   52.59    6.10
  -4   6  -2   46.60    9.90
  -6  -6  -2   70.09   15.00
   6  -6   2   31.40   10.70
  -6  -6  -2   40.00   10.30
   6   6   2   58.09    8.40
  -6   6  -2   72.29   14.40
   8  -6   2  250.37   18.20
  -8  -6  -2  251.87   23.80
   8   6   2  286.07   16.60
  -8   6  -2  247.48   22.20
 -10  -6  -2   36.10   17.60
  10  -6   2   21.70   12.30
  10   6   2   26.90   10.40
 -10   6  -2   31.40   17.40
 -12  -6  -2   38.80   20.90
  12  -6   2  -17.90   11.60
 -12   6  -2   10.30   20.70
  13  -7  -2   -3.50   14.30
 -13  -7   2    2.30   19.60
 -13   7   2   -9.10   19.10
  11  -7  -2   -1.80   13.40
 -11  -7   2   -2.60   15.70
  11   7  -2    1.10   11.40
 -11   7   2   15.50   16.70
  -9  -7   2   -4.60   14.20
   9  -7  -2    5.10   12.80
  -9  -7   2   10.70    8.00
  -9   7   2   15.10   15.10
   7  -7  -2  310.17   19.60
  -7  -7   2  301.47   16.70
  -7  -7   2  303.87   21.60
  -7   7   2  320.37   22.30
  -5  -7   2  123.09   10.40
  -5  -7   2  115.29   12.10
  -5   7   2  122.39   13.00
  -3  -7   2 1087.89   29.60
  -3  -7   2 1123.89   29.20
  -3   7   2 1105.69   31.00
  -1  -7   2  594.44   19.40
  -1  -7   2  566.74   15.80
  -1   7   2  538.35   19.00
   1   7  -2  563.94   14.80
   1  -7   2  198.98   10.80
   1  -7   2  223.48   11.70
  -1   7  -2  220.68    8.80
   1   7   2  235.58   13.10
   3  -7   2  422.56   13.70
   3  -7   2  403.16   16.20
  -3   7  -2  401.66   15.60
   3   7   2  407.36   11.90
   3   7   2  388.46   18.20
   5  -7   2  139.29   13.10
  -5  -7  -2  136.19   12.30
   5  -7   2  146.09    7.20
  -5  -7  -2  129.49   14.40
  -5   7  -2  153.18   14.30
   5   7   2  162.08    9.90
  -7  -7  -2  344.47   23.80
   7  -7   2  373.66   21.60
  -7  -7  -2  358.86   20.80
   7   7   2  349.77   16.90
  -7   7  -2  357.66   23.80
   9  -7   2   21.00   10.80
  -9  -7  -2   27.80   16.90
   9   7   2   22.10    9.30
  -9   7  -2   61.49   16.90
  11  -7   2   32.70   14.10
 -11  -7  -2   36.20   19.50
 -11   7  -2   49.50   19.20
 -12  -8   2   12.20   16.80
  12  -8  -2   10.00   14.60
 -12   8   2  -18.80   16.40
 -10  -8   2  -23.90   13.70
  10  -8  -2    6.50   13.20
 -10   8   2   15.80   15.50
  10   8  -2  -12.80   10.10
  -8  -8   2   37.60    9.60
  -8  -8   2   45.30   15.40
   8  -8  -2   45.10   13.40
  -8   8   2   22.60   15.20
  -6  -8   2  497.65   20.90
  -6  -8   2  499.95   23.20
  -6   8   2  471.95   23.30
  -4  -8   2  766.42   24.30
  -4  -8   2  781.42   24.80
  -4   8   2  770.62   25.90
  -2  -8   2  258.17   11.30
  -2  -8   2  266.37   14.90
  -2   8   2  252.27   12.80
   0  -8   2   85.49    7.10
   0  -8   2   77.69    8.00
   0   8   2   60.79    8.20
   0   8  -2   76.39    5.80
   2  -8   2  257.87   12.50
   2  -8   2  297.47   13.30
  -2   8  -2  284.47   11.70
   2   8   2  284.37   15.00
  -4  -8  -2  279.97   18.60
  -4  -8  -2  279.57   17.30
   4  -8   2  320.97   12.30
   4  -8   2  338.87   17.00
   4   8   2  310.57   10.70
   4   8   2  311.17   18.30
  -4   8  -2  324.97   16.40
  -6  -8  -2  130.49   13.70
  -6  -8  -2  123.59   17.30
   6  -8   2  128.49   14.50
   6   8   2  134.99   10.40
  -6   8  -2  182.98   17.00
   8  -8   2   -3.10    9.20
  -8  -8  -2   -4.50   12.90
   8   8   2   -3.20    7.60
  -8   8  -2  -12.40   13.70
 -10  -8  -2   29.50   17.40
  10  -8   2   20.70   12.90
 -10   8  -2    6.80   16.10
  12  -8   2    3.50   13.50
 -12  -8  -2   35.40   20.70
 -12   8  -2    0.10   20.00
 -13  -9   2    5.10   19.30
  13  -9  -2   -9.30   14.50
 -13   9   2  -16.00   19.40
  11  -9  -2   63.99   16.50
 -11  -9   2   74.79   18.90
 -11   9   2   57.39   17.90
  -9  -9   2  273.87   22.80
   9  -9  -2  273.37   21.90
  -9  -9   2  298.87   17.40
  -9   9   2  268.67   23.00
   9   9  -2  270.27   17.50
  -7  -9   2   29.60   14.00
   7  -9  -2   30.00   12.10
  -7  -9   2   35.30    9.90
  -7   9   2   30.80   13.70
  -5  -9   2  284.47   16.30
  -5  -9   2  249.08   16.90
  -5   9   2  266.97   17.60
  -3  -9   2  258.17   13.10
  -3  -9   2  249.97   15.70
  -3   9   2  215.98   13.80
  -1  -9   2  816.22   20.70
  -1  -9   2  780.42   23.90
  -1   9   2  807.52   24.80
   1   9  -2  818.72   20.70
   1  -9   2  156.78   10.00
   1  -9   2  193.68   12.70
   1   9   2  150.88   11.40
  -1   9  -2  163.68    8.40
   3  -9   2  290.87   15.00
   3  -9   2  263.97   13.30
   3   9   2  274.77    8.50
   3   9   2  280.77   15.60
  -3   9  -2  298.97   13.70
  -5  -9  -2  260.17   18.80
   5  -9   2  253.67   11.20
   5  -9   2  231.18   16.70
  -5  -9  -2  267.57   18.60
   5   9   2  253.07   11.10
  -5   9  -2  259.27   16.80
  -7  -9  -2   18.90   12.10
  -7  -9  -2   18.10   16.20
   7  -9   2    1.10   10.80
  -7   9  -2   35.00   14.40
   7   9   2   22.40    8.00
   9  -9   2  217.58   19.50
  -9  -9  -2  222.08   23.80
  -9   9  -2  212.68   22.30
  11  -9   2   -9.70   11.90
 -11  -9  -2   11.80   17.10
 -11   9  -2   -4.20   16.90
 -12 -10   2   25.10   18.50
  12 -10  -2   24.80   15.60
 -12  10   2   37.60   19.50
  10 -10  -2   19.80   13.00
 -10 -10   2   29.70   15.90
  10  10  -2    7.00   10.60
 -10  10   2   13.20   15.70
   8 -10  -2   20.10   13.50
  -8 -10   2    0.50    9.80
  -8 -10   2    8.50   14.10
  -8  10   2    9.10   14.70
  -6 -10   2  362.96   20.70
   6 -10  -2  354.86   21.30
  -6 -10   2  352.06   20.70
  -6  10   2  363.56   22.20
  -4 -10   2   91.39   10.60
  -4 -10   2   89.79   10.30
  -4  10   2  117.69   11.90
  -2 -10   2    8.10    7.90
  -2 -10   2    2.50    4.30
   2  10  -2   -0.10    5.20
  -2  10   2    3.00    6.60
   0 -10   2  390.36   16.40
   0 -10   2  338.97   13.20
   0  10  -2  359.36   12.10
   0  10   2  388.36   16.90
   2 -10   2  134.09   10.60
   2 -10   2  119.99   10.20
   2  10   2  134.69   11.90
  -2  10  -2  140.99    9.90
   4 -10   2  428.56   19.90
  -4 -10  -2  456.65   22.30
   4 -10   2  453.15   16.50
  -4  10  -2  425.06   18.40
   4  10   2  440.06   20.90
   4  10   2  443.26   12.20
  -6 -10  -2   34.10   13.70
   6 -10   2   32.40   11.50
   6 -10   2   35.30    5.80
  -6 -10  -2   25.70   12.70
  -6  10  -2   37.90   12.80
   6  10   2   36.40    6.70
   8 -10   2   26.50   11.70
  -8 -10  -2   40.30   16.30
  -8  10  -2   31.60   14.80
  10 -10   2   48.40   14.30
 -10 -10  -2   14.70   17.00
 -10  10  -2   -0.70   15.60
 -12 -10  -2   32.60   20.90
  12 -10   2    1.20   13.70
 -12  10  -2   -1.20   18.40
  13 -11  -2   -9.40   14.90
  11 -11  -2    6.40   14.10
 -11 -11   2   11.40   16.20
 -11  11   2    9.90   16.00
  -9 -11   2  175.88   14.60
   9 -11  -2  130.39   17.10
  -9 -11   2  150.18   19.10
   9  11  -2  153.08   14.50
  -9  11   2  195.88   20.90
  -7 -11   2  360.06   23.40
   7 -11  -2  440.76   23.50
  -7 -11   2  439.46   23.20
  -7  11   2  425.46   25.40
   5 -11  -2  132.59   14.10
  -5 -11   2  128.39   13.70
  -5 -11   2  123.49   12.80
  -5  11   2  106.09   13.00
  -3 -11   2   54.49    8.60
  -3 -11   2   56.49   10.50
  -3  11   2   56.69    9.90
  -1 -11   2  247.68   15.50
  -1 -11   2  252.17   10.70
  -1  11   2  241.88   13.50
   1  11  -2  239.18   11.10
   1 -11   2  267.27   12.70
   1 -11   2  272.97   16.30
  -1  11  -2  268.37   11.10
   1  11   2  274.47   15.80
   3 -11   2  157.98   12.70
  -3 -11  -2  136.39   14.00
   3 -11   2  155.98   11.30
  -3  11  -2  178.58   11.90
   3  11   2  159.98   14.20
   5 -11   2   10.80   10.40
  -5 -11  -2   67.19   13.70
   5 -11   2   39.00    7.60
  -5 -11  -2   44.60   13.90
  -5  11  -2   28.40   11.20
   5  11   2   35.80    5.20
  -7 -11  -2   42.80   16.40
   7 -11   2   35.30   11.90
  -7 -11  -2   24.50   13.80
  -7  11  -2   27.20   13.70
   9 -11   2   17.20   12.20
  -9 -11  -2   22.60   16.70
  -9  11  -2   14.10   15.00
 -11 -11  -2  -15.40   17.60
  11 -11   2   -9.60   12.30
 -11  11  -2  -14.10   16.30
  12 -12  -2   25.30   15.90
 -12 -12   2    5.70   17.10
 -12  12   2   35.50   18.50
 -10 -12   2   43.00   17.00
  10 -12  -2   47.90   15.50
 -10  12   2   25.50   16.50
   8 -12  -2  147.89   17.70
  -8 -12   2  153.38   14.80
  -8 -12   2  111.19   17.10
  -8  12   2  144.49   18.40
  -6 -12   2   24.40   12.90
   6 -12  -2    4.80   12.00
  -6 -12   2   33.10   11.40
  -6  12   2   18.80   12.10
  -4 -12   2   18.70    9.90
   4 -12  -2   16.30    9.60
  -4 -12   2   12.80    9.10
  -4  12   2    8.20    9.10
  -2 -12   2  164.68    9.10
  -2 -12   2  136.89   12.60
   2  12  -2  165.58   10.90
  -2  12   2  180.38   12.50
   0 -12   2  171.88   10.80
   0 -12   2  154.28   13.00
   0  12   2  160.98   12.80
   0  12  -2  187.98   10.10
   2 -12   2  831.32   25.20
   2 -12   2  833.92   27.30
  -2  12  -2  839.52   23.90
   2  12   2  822.02   28.60
   4 -12   2  309.77   17.30
   4 -12   2  325.17   18.20
  -4 -12  -2  295.37   20.00
   4  12   2  271.27   19.60
  -4  12  -2  300.67   16.70
   6 -12   2  101.39   13.90
  -6 -12  -2   84.69   17.30
   6 -12   2   93.59    9.20
  -6 -12  -2  112.29   16.00
  -6  12  -2   98.69   14.90
  -8 -12  -2   35.40   15.80
   8 -12   2   55.09   13.50
  -8 -12  -2   28.90   12.20
  -8  12  -2   31.90   14.80
 -10 -12  -2   51.09   18.40
  10 -12   2   59.49   15.20
 -10  12  -2   50.99   18.20
  11 -13  -2   34.60   15.80
 -11 -13   2   21.10   16.50
 -11  13   2   56.19   18.30
  -9 -13   2   15.50   10.90
   9 -13  -2   24.80   14.00
  -9 -13   2   23.40   14.50
  -9  13   2   30.20   15.80
   7 -13  -2  237.98   20.20
  -7 -13   2  191.58   19.10
  -7 -13   2  194.48   16.80
  -7  13   2  222.18   19.70
  -5 -13   2   90.79   13.50
   5 -13  -2  101.99   13.80
  -5 -13   2   90.69   12.90
  -5  13   2   77.09   12.20
  -3 -13   2   49.20    9.10
  -3 -13   2   71.49   12.10
   3 -13  -2   50.89   10.00
  -3  13   2   62.39   10.30
   3  13  -2   55.79    8.60
   1 -13  -2   66.39    7.90
  -1 -13   2   62.89   11.40
  -1 -13   2   74.79    7.40
  -1  13   2   80.99   10.40
   1  13  -2   88.69    7.80
   1 -13   2  237.78   17.60
   1 -13   2  223.28   12.20
  -1 -13  -2  221.38    7.70
   1  13   2  238.88   15.90
  -1  13  -2  208.68   11.00
   3 -13   2  264.17   16.40
   3 -13   2  241.08   15.70
  -3 -13  -2  258.67   19.00
   3  13   2  225.78   16.20
  -3  13  -2  234.78   13.70
  -5 -13  -2   22.60   14.70
   5 -13   2   62.99   12.30
   5 -13   2   47.70    9.50
  -5 -13  -2   66.39   14.70
   5  13   2   72.89   13.70
  -5  13  -2   61.49   12.50
   7 -13   2  429.66   24.00
  -7 -13  -2  439.36   26.90
  -7 -13  -2  378.76   26.60
  -7  13  -2  425.76   23.20
   9 -13   2   41.00   13.70
  -9 -13  -2   20.30   16.50
  -9  13  -2   28.50   14.60
  11 -13   2   35.20   15.00
 -11 -13  -2   55.69   21.20
 -11  13  -2   24.50   17.20
 -12 -14   2    2.20   17.30
  12 -14  -2   14.40   16.10
 -12  14   2   17.90   18.80
  10 -14  -2  -17.20   12.70
 -10 -14   2    6.10   14.80
 -10  14   2   -4.20   14.60
  -8 -14   2  189.68   16.50
   8 -14  -2  228.88   20.50
  -8 -14   2  199.38   20.00
  -8  14   2  197.48   19.80
   6 -14  -2  221.28   19.00
  -6 -14   2  239.88   18.40
  -6 -14   2  245.28   19.50
  -6  14   2  250.57   18.50
  -4 -14   2  249.18   18.40
  -4 -14   2  259.07   17.10
   4 -14  -2  246.78   17.20
  -4  14   2  258.47   17.90
  -2 -14   2  219.78   16.30
  -2 -14   2  250.27   10.70
   2 -14  -2  248.68   14.00
   2  14  -2  239.78   12.80
  -2  14   2  213.28   15.40
   0 -14   2   30.70    6.80
   0 -14   2   16.50   10.60
   0 -14  -2   27.50    5.90
   0  14  -2   30.60    6.30
   0  14   2   23.80    8.80
  -2 -14  -2  134.59   16.30
   2 -14   2  168.68   12.50
   2 -14   2  181.08   14.40
  -2  14  -2  151.38   10.80
   2  14   2  171.38   15.00
   4 -14   2  115.99   13.40
   4 -14   2  124.49   12.30
  -4 -14  -2  118.19   17.40
  -4  14  -2  119.09   12.50
   4  14   2  100.69   14.80
  -6 -14  -2   56.69   16.40
   6 -14   2   70.99   13.80
  -6 -14  -2   38.10   15.40
  -6  14  -2   59.79   13.80
  -8 -14  -2    6.30   12.90
   8 -14   2    5.20   10.80
  -8 -14  -2   12.30   15.70
  -8  14  -2   10.70   12.90
  10 -14   2   92.19   16.60
 -10 -14  -2   99.29   21.10
 -10  14  -2   60.09   18.20
  11 -15  -2  -11.00   13.20
 -11 -15   2    8.60   16.70
 -11  15   2  -37.40   13.90
  -9 -15   2    7.00   10.90
  -9 -15   2   17.30   14.70
   9 -15  -2   16.20   14.60
  -9  15   2   14.90   14.30
  -7 -15   2   70.59   14.80
   7 -15  -2   78.79   15.10
  -7 -15   2   98.19   14.70
   7 -15  -2  108.39   14.30
  -7  15   2   74.59   15.00
  -5 -15   2  108.19   14.50
  -5 -15   2  106.39   14.40
   5 -15  -2   92.99   14.20
  -5  15   2  102.39   14.10
  -3 -15   2   29.20   12.40
   3 -15  -2   53.59   10.70
   3  15  -2   40.50    9.00
  -3  15   2   17.40   10.10
   1 -15  -2  290.87   13.40
  -1 -15   2  263.37   12.20
  -1 -15   2  264.27   18.50
  -1  15   2  273.97   17.00
   1  15  -2  282.47   13.50
   1 -15   2  148.59   14.70
   1 -15   2  174.78   12.20
  -1 -15  -2  158.58   16.70
  -1  15  -2  160.78   11.70
   1  15   2  169.28   15.10
   3 -15   2   24.70    9.70
   3 -15   2    7.50    9.90
  -3 -15  -2   12.50   14.60
   3  15   2   10.10    9.40
  -3  15  -2   -0.30    7.80
   5 -15   2  243.58   18.20
   5 -15   2  224.38   18.20
  -5 -15  -2  221.18   21.70
   5  15   2  232.48   20.80
  -5  15  -2  243.88   17.80
  -7 -15  -2   31.50   15.60
  -7 -15  -2   14.60   14.10
   7 -15   2   20.80   11.70
  -7  15  -2   15.10   12.80
  -9 -15  -2   -3.50   15.70
   9 -15   2   16.80   11.90
  -9  15  -2   -8.60   14.20
  11 -15   2   70.49   16.90
 -11 -15  -2   79.09   22.10
 -11  15  -2   22.30   18.70
 -12 -16   2   17.50   18.10
  12 -16  -2    2.60   14.60
 -12  16   2  -13.50   17.10
 -10 -16   2   -1.60   11.50
  10 -16  -2   43.10   15.50
 -10 -16   2    9.80   15.00
 -10  16   2   12.90   15.00
  -8 -16   2   70.39   13.70
  -8 -16   2   74.79   16.20
   8 -16  -2   91.89   16.10
  -8  16   2   78.09   15.60
  -6 -16   2   16.60   13.10
   6 -16  -2   11.60   12.40
   6 -16  -2   -5.00   11.80
  -6 -16   2   22.80   12.80
  -6  16   2    9.70   12.40
  -4 -16   2  166.28   15.20
   4 -16  -2  192.48   16.10
  -4 -16   2  190.98   18.50
  -4  16   2  210.98   17.20
  -2 -16   2  112.09    8.10
  -2 -16   2  111.99   15.60
   2 -16  -2  127.09   11.40
  -2  16   2   94.79   12.30
   2  16  -2  118.09   11.00
   0 -16   2  148.69   10.60
   0 -16  -2  125.89   15.40
   0 -16  -2  134.69    9.20
   0 -16   2  138.99   15.50
   0  16   2  126.89   13.80
   0  16  -2  137.39   10.70
  -2 -16  -2  252.97   21.40
   2 -16   2  238.08   15.10
   2 -16   2  213.28   17.00
  -2  16  -2  250.07   14.10
   2  16   2  183.98   16.80
   4 -16   2  376.56   21.60
  -4 -16  -2  363.96   26.00
   4 -16   2  398.46   21.20
   4  16   2  320.87   23.20
  -4  16  -2  391.66   19.20
  -6 -16  -2  241.08   22.20
  -6 -16  -2  250.57   21.60
   6 -16   2  193.28   18.10
  -6  16  -2  233.98   18.30
   8 -16   2  111.89   16.50
  -8 -16  -2  110.09   20.10
  -8 -16  -2  110.29   17.80
  -8  16  -2  119.69   18.00
 -10 -16  -2   34.10   18.50
  10 -16   2    2.40   13.10
 -10  16  -2  -40.70   14.80
 -11 -17   2   49.80   18.20
  11 -17  -2   22.10   14.80
 -11  17   2   65.89   18.70
   9 -17  -2   21.50   14.10
  -9 -17   2   39.10   13.00
  -9 -17   2   32.00   14.90
  -9  17   2   52.69   16.00
   7 -17  -2    7.40   12.00
   7 -17  -2   -3.00   11.60
  -7 -17   2   10.20   12.00
  -7 -17   2    5.10   12.00
  -7  17   2  -10.20   10.90
  -5 -17   2  265.77   19.30
   5 -17  -2  241.18   18.50
  -5 -17   2  279.17   21.50
   5 -17  -2  224.18   19.60
  -5  17   2  258.77   20.10
   3 -17  -2  324.87   24.00
   3 -17  -2  293.07   17.70
  -3 -17   2  317.87   23.30
   3  17  -2  310.17   16.90
  -3  17   2  296.77   19.50
   1 -17  -2   59.69    8.70
  -1 -17   2   74.49    8.30
  -1 -17   2   73.19   14.90
   1 -17  -2   75.49   15.60
   1  17  -2   68.49    9.40
  -1  17   2   70.99   12.20
  -1 -17  -2  701.63   33.40
   1 -17   2  645.04   22.00
   1 -17   2  719.13   29.90
   1  17   2  644.54   26.40
  -1  17  -2  676.03   22.90
   3 -17   2   13.00    9.60
  -3 -17  -2   -0.60   15.90
   3 -17   2    4.70   11.20
   3  17   2   -3.60    9.70
  -3  17  -2   22.20    8.90
   5 -17   2  -12.40    9.90
  -5 -17  -2   19.60   15.70
   5 -17   2  -11.10    9.10
  -5  17  -2    8.70   11.00
   5  17   2    2.30   12.20
   7 -17   2   13.30   12.00
  -7 -17  -2   38.20   16.40
  -7 -17  -2   14.30   14.60
  -7  17  -2    3.90   12.00
   9 -17   2   11.30   13.00
  -9 -17  -2   32.70   17.60
  -9  17  -2   16.10   15.00
 -10 -18   2   45.20   16.20
 -10 -18   2    8.90   12.80
  10 -18  -2   18.70   14.80
 -10  18   2   -7.10   14.30
   8 -18  -2   24.40   13.90
  -8 -18   2   44.10   14.60
  -8 -18   2   44.30   14.80
  -8  18   2   42.40   14.50
   6 -18  -2  262.67   20.10
  -6 -18   2  240.68   18.80
  -6 -18   2  255.57   21.10
   6 -18  -2  224.88   18.90
  -6  18   2  239.28   20.00
   4 -18  -2   44.10   15.10
  -4 -18   2   40.50   15.60
  -4 -18   2   38.70   12.10
   4 -18  -2   36.90   11.60
  -4  18   2   42.00   12.50
  -2 -18   2   32.90    6.70
   2 -18  -2   35.20    9.30
   2 -18  -2   44.80   15.20
  -2 -18   2   55.59   15.10
   2  18  -2   37.30    9.10
  -2  18   2   31.50   11.10
   0 -18  -2   86.59   17.20
   0 -18  -2  117.89    8.30
   0 -18   2  110.29   10.20
   0 -18   2   98.59   15.30
   0  18  -2  107.59   10.90
   0  18   2  111.49   14.10
  -2 -18  -2   67.89   17.60
   2 -18   2   40.00   13.10
   2 -18   2   35.40    9.40
   2  18   2   22.50   11.70
  -2  18  -2   30.90    9.10
  -4 -18  -2   34.30   18.10
   4 -18   2   34.00   12.40
   4 -18   2   60.39   12.30
   4  18   2   40.80   13.50
  -4  18  -2   63.79   12.00
  -6 -18  -2   29.10   14.60
  -6 -18  -2   20.80   15.20
   6 -18   2   30.40   12.10
  -6  18  -2   14.50   11.10
  -8 -18  -2   25.60   16.30
   8 -18   2    0.30   11.70
  -8 -18  -2   -5.50   14.80
  -8  18  -2   -8.50   12.70
 -10 -18  -2   45.30   19.80
  10 -18   2   27.10   15.20
 -10  18  -2   23.20   16.80
 -11 -19   2   93.09   19.90
  11 -19  -2   62.69   17.10
 -11  19   2   61.89   19.00
  -9 -19   2   21.80   15.30
  -9 -19   2    6.20   13.20
   9 -19  -2   27.30   14.00
  -9  19   2   32.90   15.70
  -7 -19   2  103.79   15.80
   7 -19  -2   56.09   14.30
  -7 -19   2   76.29   15.70
   7 -19  -2  115.69   16.50
  -7  19   2   98.59   15.90
   5 -19  -2  456.25   27.90
  -5 -19   2  361.46   22.10
   5 -19  -2  383.76   21.40
  -5 -19   2  421.86   28.00
  -5  19   2  365.46   22.30
   3 -19  -2  410.76   28.20
   3 -19  -2  413.76   20.10
  -3 -19   2  402.96   26.50
  -3  19   2  439.06   23.20
   3  19  -2  438.26   20.50
  -1 -19   2   93.69    9.20
  -1 -19   2  120.99   16.40
   1 -19  -2   90.79   17.70
   1 -19  -2  107.99   10.30
  -1  19   2   84.29   13.90
   1  19  -2  101.39   11.30
  -1 -19  -2   53.19   17.70
   1 -19   2   36.10    8.80
   1 -19   2   40.90   14.30
   1  19   2   25.00   11.60
  -1  19  -2   36.10    9.50
  -3 -19  -2   11.20   16.10
   3 -19   2   -7.10    9.00
   3 -19   2   -8.20   11.50
   3  19   2   14.70   11.40
  -3  19  -2    5.90    9.40
  -5 -19  -2    2.40   15.10
   5 -19   2  -21.10    9.10
   5 -19   2   -8.20    9.90
   5  19   2    2.90   12.00
  -5  19  -2   16.40   10.60
  -7 -19  -2    8.30   15.70
  -7 -19  -2   15.90   16.20
   7 -19   2   -7.40   11.40
  -7  19  -2   13.90   12.30
  -9 -19  -2   42.90   18.80
   9 -19   2   47.60   14.90
  -9  19  -2   15.90   14.50
 -10 -20   2    1.10   13.00
  10 -20  -2   31.70   15.90
 -10 -20   2   -1.50   16.30
 -10  20   2   30.20   16.20
  -8 -20   2   27.90   14.30
   8 -20  -2   -7.70   11.80
  -8 -20   2  -15.30   12.10
  -8  20   2    6.00   12.60
  -6 -20   2  149.79   18.80
   6 -20  -2  192.28   19.30
  -6 -20   2  153.98   17.00
   6 -20  -2  161.88   16.80
  -6  20   2  163.48   18.50
  -4 -20   2  173.08   16.30
  -4 -20   2  191.88   19.50
   4 -20  -2  178.88   15.20
   4 -20  -2  173.98   19.30
  -4  20   2  176.08   17.30
   4  20  -2  207.28   16.50
   2 -20  -2  382.06   17.90
  -2 -20   2  423.16   29.10
   2 -20  -2  415.56   29.70
  -2 -20   2  380.96   14.90
   2  20  -2  415.06   19.20
  -2  20   2  381.16   22.20
   0 -20   2  195.08   13.30
   0 -20  -2  203.38   22.20
   0 -20   2  161.68   19.30
   0  20   2  181.58   17.10
   0  20  -2  179.88   14.00
  -2 -20  -2  215.58   22.90
   2 -20   2  215.88   15.90
   2 -20   2  254.27   20.30
  -2  20  -2  215.38   15.30
   2  20   2  244.08   20.10
   4 -20   2  197.28   16.80
  -4 -20  -2  175.88   22.40
   4 -20   2  190.98   16.80
  -4  20  -2  194.58   15.50
   4  20   2  165.98   18.50
   6 -20   2   49.20   13.20
  -6 -20  -2   23.20   16.60
  -6 -20  -2   45.40   16.50
  -6  20  -2   59.49   13.10
   6  20   2   47.30   15.80
   8 -20   2   -0.50   11.70
  -8 -20  -2   -0.30   14.70
  -8 -20  -2    0.90   15.20
  -8  20  -2  -21.40   11.60
  10 -20   2    2.10   14.20
  -9 -21   2   66.29   16.40
   9 -21  -2   39.90   15.60
  -9 -21   2   66.29   15.70
  -9  21   2   61.89   16.60
   7 -21  -2   -2.10   11.90
  -7 -21   2    4.70   13.00
  -7 -21   2   16.10   14.30
   7 -21  -2   12.70   14.90
  -7  21   2   -5.80   12.40
  -5 -21   2    7.60   11.40
   5 -21  -2   -6.50    9.30
   5 -21  -2   -3.90   13.20
  -5 -21   2    0.10   12.30
  -5  21   2    1.30   11.40
   3 -21  -2   46.00   16.10
  -3 -21   2   80.79   17.00
   3 -21  -2   53.29   11.10
   3  21  -2   62.79   11.30
  -3  21   2   65.59   13.20
  -1 -21   2  181.48   20.40
   1 -21  -2  140.09   11.10
   1 -21  -2  136.69   20.40
  -1 -21   2  143.59   10.80
  -1  21   2  139.09   16.00
   1  21  -2  131.19   13.00
  -1 -21  -2   69.79   19.70
   1 -21   2   97.39   16.90
   1 -21   2  106.89   11.30
   1  21   2   91.99   14.70
  -1  21  -2   96.89   11.20
  -3 -21  -2  137.29   21.50
   3 -21   2  143.09   14.50
   3 -21   2  141.49   16.40
   3  21   2  142.39   17.00
  -3  21  -2  184.38   14.60
   5 -21   2   60.39   13.10
  -5 -21  -2   21.60   17.60
   5 -21   2   41.50   12.70
   5  21   2   59.09   15.20
  -5  21  -2   55.19   11.90
  -7 -21  -2    3.90   15.10
  -7 -21  -2   -1.70   17.20
   7 -21   2   12.10   12.60
  -7  21  -2    0.60   11.90
  -9 -21  -2   36.20   19.70
   9 -21   2   57.59   16.30
  10 -22  -2    2.80   15.20
 -10 -22   2   14.50   16.10
 -10 -22   2   -4.30   14.70
 -10  22   2   13.80   16.40
  -8 -22   2   13.30   14.30
  -8 -22   2   -2.70   13.10
   8 -22  -2   22.50   13.60
  -8  22   2    0.50   12.80
  -6 -22   2   20.40   12.60
   6 -22  -2   31.60   12.90
   6 -22  -2    6.00   15.50
  -6 -22   2   45.20   16.20
  -6  22   2   42.70   13.70
  -4 -22   2   56.09   12.40
   4 -22  -2   48.80   15.90
  -4 -22   2   38.80   15.90
   4 -22  -2   55.19   11.90
   4  22  -2   47.10   11.50
  -4  22   2   46.70   12.40
  -2 -22   2   31.00   15.40
   2 -22  -2   13.20    8.50
   2 -22  -2   33.80   16.10
   2  22  -2   26.70    9.40
  -2  22   2   30.00   11.50
   0 -22   2  217.58   13.40
   0 -22   2  229.78   21.20
   0 -22  -2  197.28   22.60
   0  22   2  194.98   17.80
   0  22  -2  200.18   15.20
   2 -22   2  108.79   16.50
   2 -22   2   88.69   12.00
  -2 -22  -2  107.49   20.90
  -2  22  -2  121.99   13.10
   2  22   2  100.49   14.90
  -4 -22  -2   36.60   18.30
   4 -22   2   -7.70   11.70
   4 -22   2    6.00    9.80
   4  22   2   12.50   12.20
  -4  22  -2    6.80   10.20
  -6 -22  -2   31.50   18.10
  -6 -22  -2   39.20   16.20
   6 -22   2   42.80   13.00
   6  22   2   38.10   15.60
  -6  22  -2   31.30   12.30
  -8 -22  -2    1.60   17.00
  -8 -22  -2   10.10   17.40
   8 -22   2  -20.70   11.70
  -9 -23   2   74.99   18.30
  -9 -23   2   71.39   17.60
   9 -23  -2   42.20   16.20
  -9  23   2   71.99   17.60
  -7 -23   2   36.20   14.10
  -7 -23   2   33.50   16.00
   7 -23  -2   61.79   16.70
   7 -23  -2   51.19   14.00
  -7  23   2   52.99   14.80
  -5 -23   2  111.39   15.40
   5 -23  -2   91.39   14.20
   5 -23  -2   82.49   18.00
  -5 -23   2   98.19   18.60
  -5  23   2   99.79   16.00
  -3 -23   2   90.09   16.80
   3 -23  -2   74.89   17.50
   3 -23  -2   81.59   11.50
  -3  23   2   92.19   14.40
   3  23  -2   80.69   12.10
  -1 -23   2  185.68   20.60
   1 -23  -2  197.38   21.60
   1  23  -2  183.98   14.10
  -1  23   2  187.78   18.00
   1 -23   2  526.15   21.20
   1 -23   2  536.75   29.20
  -1 -23  -2  511.15   31.90
   1  23   2  520.35   27.00
  -1  23  -2  550.34   22.80
   3 -23   2  149.39   17.40
   3 -23   2  162.68   15.00
  -3 -23  -2  113.89   21.20
  -3  23  -2  143.69   14.30
   3  23   2  153.78   17.80
  -5 -23  -2   37.00   18.80
   5 -23   2   22.60   12.90
   5 -23   2   35.40   11.90
  -5  23  -2   34.80   11.60
   5  23   2   16.30   14.60
  -7 -23  -2   16.70   17.20
   7 -23   2    9.20   12.50
  -7 -23  -2   -7.10   14.40
  -8 -24   2   37.40   14.60
   8 -24  -2  -12.40   11.90
  -8 -24   2   -4.80   15.40
  -8  24   2   11.30   13.60
   6 -24  -2   12.80   15.80
  -6 -24   2    9.60   12.20
   6 -24  -2   -9.90   11.30
  -6 -24   2    4.70   15.20
  -6  24   2   15.40   12.40
  -4 -24   2   34.10   16.50
  -4 -24   2   53.19   12.80
   4 -24  -2   12.00   10.10
   4 -24  -2   33.10   16.70
   4  24  -2   13.10   10.80
  -4  24   2   20.10   11.90
  -2 -24   2   -8.50   14.10
   2 -24  -2   25.50   15.10
   2  24  -2    6.50    8.80
  -2  24   2   13.60   11.10
   0 -24   2  115.69   17.20
   0 -24  -2  131.49   20.40
   0  24  -2  143.89   13.70
   0  24   2  167.98   17.90
   2 -24   2    2.10    8.60
   2 -24   2    2.30   13.10
  -2 -24  -2    8.60   17.60
   2  24   2   10.40   11.60
  -2  24  -2    6.00    9.00
   4 -24   2   44.10   11.90
  -4 -24  -2   45.70   19.60
   4 -24   2   -2.00   13.00
   4  24   2   33.30   13.60
  -6 -24  -2   11.50   14.30
   6 -24   2    2.80   11.00
  -6 -24  -2  -49.40   15.70
   6  24   2   14.40   14.80
  -8 -24  -2    5.90   17.70
  -8 -24  -2   46.90   19.00
   8 -24   2   32.90   14.80
   7 -25  -2   25.50   13.50
  -7 -25   2   52.59   15.20
  -7 -25   2    4.00   15.60
  -7  25   2   38.40   14.90
   5 -25  -2   42.80   12.50
   5 -25  -2   33.90   16.20
  -5 -25   2   14.80   12.30
  -5 -25   2   14.10   15.90
  -5  25   2   15.10   12.00
   3 -25  -2  109.29   20.30
  -3 -25   2   77.29   18.60
   3  25  -2   83.79   13.10
  -3  25   2  104.49   16.10
   1 -25  -2   80.79   19.70
  -1 -25   2   44.90   16.60
  -1  25   2   74.09   14.40
   1  25  -2   81.99   11.80
   1 -25   2   46.60    9.60
   1 -25   2   31.10   15.40
  -1 -25  -2    7.80   17.70
   1  25   2   27.60   12.30
  -3 -25  -2   17.40   17.10
   3 -25   2    3.00   12.80
   3 -25   2   -1.50    9.70
   3  25   2   26.20   12.70
  -5 -25  -2   26.50   18.90
   5 -25   2   25.50   12.90
   5 -25   2   21.10   12.40
   5  25   2   22.00   14.30
  -7 -25  -2  147.69   23.00
   7 -25   2  183.48   20.10
  -7 -25  -2  179.48   25.80
  -8 -26   2    4.50   16.00
  -8 -26   2   17.30   15.30
   8 -26  -2   -0.20   13.10
  -8  26   2    8.50   15.00
  -6 -26   2    9.20   16.30
   6 -26  -2   35.70   17.60
  -6 -26   2   51.29   14.50
   6 -26  -2   48.70   13.60
  -6  26   2   43.40   14.00
  -4 -26   2   31.10   16.80
   4 -26  -2   28.40   16.90
   4 -26  -2    6.20   10.00
  -4 -26   2   17.00   11.80
  -4  26   2   17.70   12.20
   4  26  -2    0.30   11.10
   2 -26  -2   49.10   18.30
  -2 -26   2   41.10   16.80
  -2  26   2   40.80   13.80
   0 -26   2  100.69   18.40
   0 -26  -2   98.69   20.00
   0  26   2  130.09   17.00
   2 -26   2  126.99   18.40
  -2 -26  -2  155.88   24.00
   2 -26   2  146.89   14.40
   2  26   2  123.39   17.10
   4 -26   2   13.90   12.80
   4 -26   2    2.30   10.40
  -4 -26  -2   -4.00   18.50
   4  26   2   19.40   13.40
  -6 -26  -2   -1.10   19.10
  -6 -26  -2   44.80   16.80
   6 -26   2   13.30   12.10
   6  26   2   37.90   16.60
  -7 -27   2  -10.30   13.40
   7 -27  -2   -0.10   12.00
  -7 -27   2   16.20   17.40
  -7  27   2   17.00   14.30
   5 -27  -2    9.10   16.20
   5 -27  -2    1.20   10.00
  -5 -27   2  -17.40   15.90
  -5  27   2    3.90   12.60
   3 -27  -2   63.39   18.60
  -3 -27   2   56.19   16.80
  -3  27   2   88.09   15.70
  -1 -27   2   22.60   16.00
   1 -27  -2   11.50   17.60
  -1  27   2   51.49   13.20
   1 -27   2   42.40   15.70
  -1 -27  -2   21.10   18.70
   1  27   2   20.80   11.70
   3 -27   2   26.50   15.00
  -3 -27  -2   19.00   18.80
   3 -27   2   20.50   10.50
   3  27   2   13.10   12.40
   5 -27   2   -3.70   11.30
  -5 -27  -2  -21.50   18.40
   5 -27   2   -2.80   13.30
   5  27   2   16.80   14.10
   6 -28  -2   13.00   17.10
   6 -28  -2   20.10   12.70
  -6 -28   2   29.60   18.20
  -6  28   2   36.40   15.50
  -4 -28   2   10.70   16.30
   4 -28  -2   35.80   17.60
  -4  28   2   22.00   13.10
   2 -28  -2   19.40   17.80
  -2 -28   2   65.29   17.80
  -2  28   2   55.39   14.30
   0 -28   2   52.39   15.70
   0 -28  -2   62.89   18.50
   0  28   2   44.30   13.70
   2 -28   2  148.69   19.80
  -2 -28  -2  136.99   23.80
   2  28   2  139.79   17.90
  -4 -28  -2  -14.60   17.00
   4 -28   2  -15.80    8.90
   4 -28   2   -6.10   13.20
   4  28   2   41.60   15.90
  -6 -28  -2   57.69   17.90
   6 -28   2   60.39   15.50
  -6 -28  -2   45.70   22.50
   6  28   2   35.20   17.20
  -5 -29   2   -5.10   16.90
   5 -29  -2   -5.00   18.30
  -5  29   2   11.50   13.10
  -3 -29   2    1.00   14.60
   3 -29  -2  -37.80   16.10
  -3  29   2    6.50   12.70
   1 -29  -2   19.40   18.30
  -1 -29   2    2.60   15.50
  -1  29   2   22.90   12.60
   1 -29   2   16.80   15.80
  -1 -29  -2   20.60   17.70
   1  29   2   33.70   12.90
   3 -29   2   44.80   15.50
  -3 -29  -2   48.00   21.70
   3  29   2   59.69   16.10
  -5 -29  -2   14.80   21.40
   5 -29   2   61.19   14.30
   5  29   2   15.20   15.10
  -4 -30   2   35.60   18.60
   4 -30  -2   42.50   19.30
  -4  30   2   38.20   15.50
  -2 -30   2   79.29   19.70
   2 -30  -2   90.29   21.50
  -2  30   2   91.49   17.00
   0 -30   2   10.30   15.90
   0 -30  -2  -22.90   17.50
   0  30   2   20.20   13.80
   2 -30   2   33.50   15.70
  -2 -30  -2   17.20   20.50
   2  30   2   45.40   14.10
  -4 -30  -2   39.30   20.90
   4 -30   2  -15.30   14.10
   4  30   2   30.70   16.00
  -3 -31   2   18.80   18.10
   3 -31  -2   36.80   20.70
  -3  31   2   40.00   15.10
   1 -31  -2   29.80   19.80
  -1 -31   2   19.10   17.50
  -1  31   2   28.40   13.70
   1 -31   2    8.30   15.50
  -1 -31  -2  -30.10   18.30
   1  31   2   13.20   13.30
   3 -31   2   30.10   16.00
  -3 -31  -2   18.30   21.80
   3  31   2    9.00   13.00
   2 -32  -2   61.19   21.60
  -2 -32   2   21.20   17.80
  -2  32   2   59.09   16.10
   0 -32   2   21.80   17.60
   0 -32  -2   27.40   20.90
   0  32   2   36.70   14.00
 -12   0   3   -3.90   17.20
  12   0  -3    3.40   13.10
 -10   0   3   11.90   15.40
  -8   0   3   18.00   14.80
  -8   0   3   -2.20    5.70
  -6   0   3    8.70    5.30
  -6   0   3    6.40   10.20
  -4   0   3   -0.20    4.30
  -4   0   3   16.00    7.30
  -2   0   3    8.00    5.40
  -2   0   3   -1.00    4.70
   0   0   3   -2.10    4.30
   0   0   3    3.50    5.00
   0   0   3    4.10    4.40
   2   0   3   11.80    5.20
   2   0   3    0.00    3.70
  -2   0  -3   -0.40    6.50
  -4   0  -3  -14.00    8.20
   4   0   3   -3.10    3.80
   4   0   3   -1.90    6.00
   6   0   3   -3.30    8.20
  -6   0  -3  -12.00    5.20
  -6   0  -3   -8.40   13.30
   8   0   3   -2.00    9.70
  -8   0  -3    5.20   15.20
  10   0   3  -14.00   10.00
 -10   0  -3   12.60   16.80
 -12   0  -3  -33.50   18.20
  12   0   3    0.70   11.50
  13  -1  -3    6.20   14.90
 -13  -1   3   20.60   20.20
  13   1  -3   26.90   14.80
 -13   1   3   -5.50   18.60
 -11  -1   3   78.69   19.80
  11  -1  -3   62.99   16.00
  11   1  -3   67.19   15.90
 -11   1   3  106.09   20.40
  -9  -1   3  156.38   20.40
  -9  -1   3  194.18   12.50
  -9   1   3  160.28   21.00
  -7  -1   3    3.70    6.00
  -7  -1   3   24.90   11.60
  -7   1   3    5.60   12.60
  -7   1   3    0.20    5.20
  -5  -1   3   16.00    9.20
  -5  -1   3   24.50    5.90
  -5   1   3   16.10    5.20
  -5   1   3   20.20    9.10
  -3  -1   3  650.43   20.10
  -3  -1   3  682.03   19.20
  -3   1   3  655.73   18.80
  -3   1   3  667.53   20.70
  -1  -1   3  584.14   16.80
  -1  -1   3  592.94   17.80
  -1  -1   3  599.04   16.20
  -1   1   3  628.14   18.00
  -1   1   3  617.44   17.90
   1  -1   3 1410.86   32.40
   1  -1   3 1449.15   33.00
   1  -1   3 1365.76   33.30
   1   1   3 1407.96   34.40
   1   1   3 1438.66   32.40
   1   1   3 1432.66   32.90
  -3  -1  -3  545.45   20.30
   3  -1   3  554.34   15.40
   3  -1   3  567.34   18.50
  -3   1  -3  569.14   20.10
   3   1   3  567.54   17.80
   3   1   3  555.74   16.00
   5  -1   3  244.28   15.00
  -5  -1  -3  258.27   18.00
  -5   1  -3  299.17   18.50
   5   1   3  258.77   15.00
  -7  -1  -3  388.46   26.80
   7  -1   3  412.06   21.30
  -7   1  -3  392.26   26.00
   7   1   3  452.25   20.90
   9  -1   3   29.20   11.30
  -9  -1  -3    9.40   15.70
  -9   1  -3   47.90   17.80
   9   1   3   41.70   11.30
  11  -1   3   31.90   12.30
 -11  -1  -3   20.20   17.80
  11   1   3   21.00   12.40
 -11   1  -3   34.60   18.70
  12  -2  -3   -1.30   13.70
 -12  -2   3  -19.20   16.60
  12   2  -3   -3.40   12.60
 -12   2   3  -10.60   16.50
 -10  -2   3    2.70   15.10
  10  -2  -3  -12.40   10.60
 -10   2   3    9.80   15.30
  -8  -2   3    5.50    6.50
  -8  -2   3    3.40   14.60
  -8   2   3    8.40   13.90
  -8   2   3    5.30    5.70
  -6  -2   3   21.70   10.70
  -6  -2   3   27.20    6.40
  -6   2   3   19.20    5.50
  -6   2   3   17.20    9.80
  -4  -2   3   64.89    6.80
  -4  -2   3   59.19    8.60
  -4   2   3   54.49    8.50
  -4   2   3   50.59    6.10
  -2  -2   3 3442.26   75.29
  -2  -2   3 3518.15   74.29
  -2   2   3 3530.95   73.99
  -2   2   3 3491.85   77.19
   0  -2   3  239.88   11.20
   0  -2   3  248.88    8.70
   0   2   3  280.87   11.50
   0   2   3  259.47   11.90
   0   2   3  266.47   10.70
   2  -2   3   68.29    7.40
   2  -2   3   69.39    5.60
   2   2   3   57.69    6.00
   2   2   3   66.09    6.50
  -2   2  -3   59.69    7.60
   2   2   3   73.89    8.30
   4  -2   3  654.33   16.80
   4  -2   3  648.14   21.30
  -4  -2  -3  648.54   24.30
  -4   2  -3  666.53   23.30
   4   2   3  674.03   20.80
  -6  -2  -3  204.58   13.30
   6  -2   3  192.48   15.20
  -6  -2  -3  181.38   18.30
  -6   2  -3  178.98   18.00
   6   2   3  247.68   15.00
   8  -2   3   58.89   12.30
  -8  -2  -3   66.69   17.50
   8   2   3   47.30   10.90
  -8   2  -3   73.19   17.40
 -10  -2  -3    4.30   16.60
  10  -2   3  -11.60   10.30
 -10   2  -3   -4.70   16.50
  10   2   3    7.40   10.10
 -12  -2  -3   79.69   22.30
  12  -2   3   65.09   15.20
 -12   2  -3   57.79   22.00
  12   2   3   50.49   14.60
 -13  -3   3    0.80   19.30
  13  -3  -3   29.40   15.70
  13   3  -3   14.40   15.00
 -13   3   3   -0.30   19.00
 -11  -3   3  102.59   19.90
  11  -3  -3  111.59   17.70
 -11   3   3  125.49   21.30
  11   3  -3   96.19   16.60
  -9  -3   3  341.77   16.00
  -9  -3   3  365.96   26.70
  -9   3   3  336.57   26.10
  -7  -3   3  168.18   12.60
  -7  -3   3  178.38   17.40
  -7   3   3  145.39   16.00
  -7   3   3  154.08   10.00
  -5  -3   3   70.89   10.40
  -5  -3   3   52.09    7.00
  -5   3   3   50.39    6.40
  -5   3   3   52.79   10.50
  -3  -3   3  668.53   19.70
  -3  -3   3  671.43   19.90
  -3   3   3  662.13   19.10
  -3   3   3  664.93   21.40
  -1  -3   3 2872.71   61.99
  -1  -3   3 2858.61   60.89
  -1  -3   3 2828.02   59.69
  -1   3   3 2866.11   64.49
  -1   3   3 2966.70   62.29
   1  -3   3  164.88    9.70
   1  -3   3  163.48    8.80
  -1   3  -3  186.48    8.80
   1   3   3  175.78    9.20
   1   3   3  154.18    9.20
   1   3   3  183.28   10.80
   3  -3   3  231.48   13.00
   3  -3   3  265.67    9.70
  -3  -3  -3  247.08   15.10
  -3   3  -3  253.97   13.00
   3   3   3  258.07   11.10
   3   3   3  216.08   14.10
  -5  -3  -3  151.48   15.70
   5  -3   3  159.68    6.80
   5  -3   3  163.78   13.60
   5   3   3  149.49   11.40
  -5   3  -3  155.48   14.60
  -7  -3  -3  182.48   20.70
   7  -3   3  203.08   16.00
   7   3   3  165.88   14.20
  -7   3  -3  182.38   20.20
   9  -3   3  100.89   14.70
  -9  -3  -3   76.59   17.60
  -9   3  -3   73.39   18.50
   9   3   3   77.49   12.30
 -11  -3  -3    8.40   17.70
  11  -3   3  -15.80   11.20
  11   3   3  -15.90   10.10
 -11   3  -3   -4.20   17.70
  12  -4  -3   -1.30   13.70
 -12  -4   3  -24.70   16.10
  12   4  -3    0.90   13.30
 -12   4   3    1.10   17.40
  10  -4  -3   54.69   15.60
 -10  -4   3   87.49   18.10
 -10   4   3   54.39   17.10
  -8  -4   3   65.09   16.00
  -8  -4   3   96.09   10.40
  -8   4   3   94.19    8.30
  -8   4   3   90.49   17.20
  -6  -4   3  146.69   14.50
  -6  -4   3  208.98   13.30
  -6   4   3  219.38   17.20
  -6   4   3  172.78   10.00
  -4  -4   3  236.68   12.40
  -4  -4   3  245.58   13.80
  -4   4   3  264.77   14.90
  -4   4   3  226.68   10.70
  -2  -4   3  375.76   12.60
  -2  -4   3  377.46   14.80
  -2   4   3  368.16   13.30
  -2   4   3  375.66   15.00
   0  -4   3  377.86   13.30
   0  -4   3  366.16   13.70
   0   4   3  385.46   13.50
   0   4   3  380.36   14.90
   2  -4   3  178.68    8.80
   2  -4   3  170.28   10.20
  -2   4  -3  190.28   10.20
   2   4   3  162.48    9.50
   2   4   3  169.88    8.90
   2   4   3  149.59   10.70
   4  -4   3  720.93   18.20
   4  -4   3  688.23   23.30
  -4  -4  -3  747.73   26.00
  -4   4  -3  753.92   24.90
   4   4   3  721.53   21.20
  -6  -4  -3  100.39   10.30
  -6  -4  -3   91.69   16.30
   6  -4   3  105.19   12.50
   6   4   3  108.89   11.10
  -6   4  -3   90.39   15.00
   8  -4   3   88.99   13.50
  -8  -4  -3   75.89   17.70
  -8   4  -3   65.29   16.70
   8   4   3   79.99   11.40
  10  -4   3   16.80   12.20
 -10  -4  -3   26.00   17.60
  10   4   3   34.10   11.60
 -10   4  -3    9.90   17.20
 -12  -4  -3   19.60   20.70
  12  -4   3   18.30   13.00
 -12   4  -3  -12.20   20.10
 -13  -5   3   -9.70   18.10
  13  -5  -3    1.00   14.60
 -13   5   3   27.40   20.30
  13   5  -3  -11.30   12.40
 -11  -5   3  105.89   20.10
  11  -5  -3   91.39   17.40
 -11   5   3  113.09   20.70
  11   5  -3   88.59   15.00
  -9  -5   3    8.50    7.90
  -9  -5   3   17.30   15.00
  -9   5   3   27.60   15.70
  -7  -5   3   90.59   14.40
  -7  -5   3   78.49    9.70
  -7   5   3   91.09   15.40
  -7   5   3   77.89    7.90
  -5  -5   3   38.70    9.50
  -5  -5   3   38.30    7.40
  -5   5   3   41.60    6.20
  -5   5   3   36.20   10.10
  -3  -5   3   25.20    6.20
  -3  -5   3   20.10    6.10
  -3   5   3   20.60    5.20
  -3   5   3   10.20    7.00
  -1  -5   3  690.43   20.40
  -1  -5   3  687.73   19.20
  -1   5   3  687.33   20.20
  -1   5   3  696.43   21.40
   1  -5   3  414.46   13.70
   1  -5   3  392.46   14.30
   1   5   3  401.16   12.20
  -1   5  -3  397.56   11.50
   1   5   3  377.46   15.10
   1   5   3  353.26   14.40
   3  -5   3  150.18    8.30
   3  -5   3  159.18   11.10
  -3   5  -3  160.98   12.50
   3   5   3  157.48   12.90
   3   5   3  152.18    9.00
   5  -5   3  229.48   16.10
   5  -5   3  233.68    8.50
  -5  -5  -3  228.78   18.20
   5   5   3  229.78   13.10
  -5   5  -3  254.17   16.80
   7  -5   3   64.79   13.00
  -7  -5  -3   73.29   17.70
   7   5   3   73.49   10.30
  -7   5  -3   89.39   16.70
  -9  -5  -3   24.50   17.10
   9  -5   3   10.10   10.10
  -9   5  -3    8.00   15.60
   9   5   3   21.10    9.90
  11  -5   3   32.80   13.50
 -11  -5  -3   63.39   20.50
 -11   5  -3   10.00   18.00
  12  -6  -3   95.19   18.60
 -12  -6   3   85.59   20.60
  12   6  -3   73.99   15.20
 -12   6   3   78.39   20.80
 -10  -6   3  134.39   19.70
  10  -6  -3  147.99   18.90
 -10   6   3  121.99   19.70
  -8  -6   3   66.19   10.20
  -8  -6   3   36.50   14.80
  -8   6   3   61.49   15.80
  -8   6   3   39.40    7.50
  -6  -6   3  171.78   12.20
  -6  -6   3  182.58   15.20
  -6   6   3  175.58   15.80
  -6   6   3  171.48   10.50
  -4  -6   3   52.19    8.90
  -4  -6   3   49.30    7.70
  -4   6   3   51.19    6.70
  -4   6   3   53.59    9.60
  -2  -6   3   67.99    5.80
  -2  -6   3   66.49    7.30
  -2   6   3   65.59    8.40
  -2   6   3   61.89    7.10
   0  -6   3  424.76   15.30
   0  -6   3  419.06   14.20
   0   6   3  438.16   16.90
   0   6   3  400.06   15.00
   2  -6   3  180.88   11.80
   2  -6   3  213.68   10.40
  -2   6  -3  203.28   10.50
   2   6   3  204.18    9.00
   2   6   3  184.78   12.90
   4  -6   3  224.18   13.90
   4  -6   3  204.88    9.30
  -4  -6  -3  181.38   15.90
   4   6   3  212.78   10.90
   4   6   3  219.78   16.60
  -4   6  -3  196.38   14.70
  -6  -6  -3  156.88   13.50
   6  -6   3  165.28   15.50
  -6  -6  -3  138.19   18.10
  -6   6  -3  127.69   16.60
   6   6   3  136.49   11.20
   8  -6   3  360.96   21.80
  -8  -6  -3  370.86   26.70
  -8   6  -3  324.57   24.30
   8   6   3  322.57   17.40
 -10  -6  -3   66.89   19.60
  10  -6   3   60.39   14.20
 -10   6  -3   46.40   18.60
  10   6   3   53.99   11.60
  12  -6   3    0.00   12.70
 -12  -6  -3    7.60   20.40
 -12   6  -3  -19.20   19.00
  13  -7  -3  -12.30   14.80
 -13  -7   3  -40.10   17.60
 -13   7   3  -24.60   15.50
  11  -7  -3   19.10   15.10
 -11  -7   3   19.60   16.80
  11   7  -3   18.70   13.30
 -11   7   3   13.70   16.40
  -9  -7   3   47.70    9.80
  -9  -7   3   64.09   15.50
   9  -7  -3   86.89   16.10
  -9   7   3   78.89   16.70
  -7  -7   3  113.99   15.50
  -7  -7   3  120.69   11.60
  -7   7   3  150.08   17.10
  -7   7   3  127.19   10.00
  -5  -7   3  563.24   21.20
  -5  -7   3  515.85   20.60
  -5   7   3  539.75   17.70
  -5   7   3  540.15   23.00
  -3  -7   3   42.50    7.80
  -3  -7   3   44.40    7.00
  -3   7   3   45.30    6.70
  -3   7   3   40.50    8.40
  -1  -7   3  890.11   23.10
  -1  -7   3  883.71   24.80
  -1   7   3  868.31   26.20
  -1   7   3  901.31   24.70
   1  -7   3   53.69    7.50
   1  -7   3   51.49    6.80
  -1   7  -3   47.60    4.60
   1   7   3   50.79    8.20
   3  -7   3  374.86   16.30
   3  -7   3  369.66   13.60
   3   7   3  373.26   17.90
   3   7   3  367.96   12.40
  -3   7  -3  389.06   15.70
   5  -7   3   30.70   10.50
   5  -7   3    5.10    3.90
  -5  -7  -3    1.70   11.70
  -5   7  -3   31.90   12.10
   5   7   3    8.50    5.80
   7  -7   3   25.60   11.80
  -7  -7  -3   50.19   12.10
  -7  -7  -3   50.19   17.00
  -7   7  -3   41.40   16.20
   7   7   3   44.40    9.30
  -9  -7  -3   37.60   15.60
   9  -7   3   44.80   12.40
  -9   7  -3   23.70   15.40
   9   7   3   24.60   10.00
 -11  -7  -3   34.90   20.10
  11  -7   3   35.80   14.10
 -11   7  -3   39.20   20.40
  12  -8  -3    6.50   13.40
 -12  -8   3   -2.40   16.60
  12   8  -3   -7.90   12.50
 -12   8   3   18.40   17.40
 -10  -8   3   51.19   16.10
  10  -8  -3   27.90   13.40
 -10   8   3   30.90   15.90
  -8  -8   3  287.37   17.60
  -8  -8   3  314.87   23.30
  -8   8   3  298.67   23.90
  -6  -8   3   18.10    8.20
  -6  -8   3   -9.00   10.20
  -6   8   3    6.30   10.10
  -4  -8   3  425.86   17.30
  -4  -8   3  425.26   18.40
  -4   8   3  445.76   16.20
  -4   8   3  376.06   18.80
  -2  -8   3  413.06   13.00
  -2  -8   3  407.36   14.30
  -2  -8   3  379.96   17.20
  -2   8   3  397.96   17.20
   0  -8   3  955.80   25.40
   0  -8   3 1006.90   26.60
   0   8   3  944.91   28.90
   2  -8   3   12.90    6.00
   2  -8   3   10.40    6.10
   2   8   3   15.90    8.10
  -2   8  -3   18.40    6.00
   2   8   3   14.90    4.00
   4  -8   3  319.67   12.70
   4  -8   3  336.67   17.00
   4   8   3  364.36   20.20
   4   8   3  307.57   12.20
  -4   8  -3  303.67   17.50
   6  -8   3   14.00    9.80
  -6  -8  -3  -12.90   13.50
  -6  -8  -3    4.40   11.50
  -6   8  -3   -0.70   13.00
   6   8   3    3.50    6.60
   8  -8   3   47.10   12.40
  -8  -8  -3   42.70   16.30
   8   8   3   25.30    8.30
  -8   8  -3   26.00   15.30
  10  -8   3   21.20   12.70
 -10  -8  -3   51.99   19.40
 -10   8  -3   45.50   17.90
  13  -9  -3  -16.90   13.60
 -13  -9   3    9.90   19.80
 -13   9   3   -7.70   19.40
  11  -9  -3   15.60   15.00
 -11  -9   3   25.90   16.40
  11   9  -3   34.70   12.80
 -11   9   3   11.80   16.80
  -9  -9   3   20.30    9.30
  -9  -9   3    1.90   13.50
   9  -9  -3   20.50   12.70
  -9   9   3   11.50   14.10
  -7  -9   3   11.60    9.00
  -7  -9   3    8.60   13.30
  -7   9   3   21.00   13.30
  -5  -9   3   93.99   10.80
  -5  -9   3  116.39   12.50
  -5   9   3  103.09   13.00
  -3  -9   3  396.66   18.70
  -3  -9   3  419.16   15.00
  -3   9   3  376.76   17.30
  -1  -9   3  533.25   18.90
  -1  -9   3  534.45   16.80
  -1  -9   3  516.45   13.70
  -1   9   3  501.95   19.80
   1  -9   3  221.28   12.40
   1  -9   3  233.88   13.60
   1   9   3  222.08   13.80
  -1   9  -3  237.68    8.80
   3  -9   3   30.10    7.80
   3  -9   3   53.49    7.00
  -3   9  -3   44.70    8.20
   3   9   3   46.90   10.40
   3   9   3   48.10    5.00
  -5  -9  -3  115.49   14.10
   5  -9   3  102.29    7.50
   5  -9   3  103.89   12.80
  -5  -9  -3   76.79   15.30
  -5   9  -3  106.99   13.70
   5   9   3  118.19    8.60
  -7  -9  -3   80.49   17.60
  -7  -9  -3   76.39   13.60
   7  -9   3   82.69   13.90
  -7   9  -3   91.69   15.90
   7   9   3   65.79    9.20
  -9  -9  -3   71.39   18.70
   9  -9   3   59.09   14.10
  -9   9  -3   48.30   16.20
  11  -9   3    4.70   12.60
 -11  -9  -3   -2.80   18.70
 -11   9  -3  -27.40   17.60
  12 -10  -3  -16.00   14.20
 -12 -10   3   -6.30   16.60
 -12  10   3  -11.60   17.20
  10 -10  -3  133.99   19.40
 -10 -10   3  120.59   19.10
 -10 -10   3  118.49   13.30
 -10  10   3  157.68   21.30
   8 -10  -3  214.88   20.20
  -8 -10   3  217.18   20.40
  -8 -10   3  208.68   16.00
  -8  10   3  222.88   21.40
  -6 -10   3  181.98   14.60
  -6 -10   3  176.28   16.50
  -6  10   3  177.58   17.30
  -4 -10   3   -3.00    8.10
  -4 -10   3    8.70    7.70
  -4  10   3    2.60    7.60
  -2 -10   3 1072.89   26.80
  -2 -10   3 1007.30   30.40
  -2 -10   3 1097.59   26.70
  -2  10   3 1090.59   32.20
   0 -10   3  609.54   21.70
   0 -10   3  628.24   19.20
   0  10  -3  569.94   15.10
   2 -10   3  477.75   18.60
   2 -10   3  517.15   18.40
  -2  10  -3  483.45   15.70
   2  10   3  484.55   21.50
   4 -10   3  124.79    9.30
   4 -10   3  121.29   12.60
   4  10   3  118.09   15.00
  -4  10  -3  157.18   12.60
   4  10   3  122.49    7.90
  -6 -10  -3  419.36   27.10
  -6 -10  -3  400.56   25.60
   6 -10   3  385.56   21.50
  -6  10  -3  367.26   21.40
   6  10   3  379.56   15.10
   8 -10   3  185.68   18.70
  -8 -10  -3  207.88   22.50
  -8  10  -3  215.28   20.70
 -10 -10  -3   35.60   18.50
  10 -10   3   32.80   13.50
 -10  10  -3  -19.60   14.90
  13 -11  -3    8.80   16.80
 -13 -11   3   13.60   19.90
 -13  11   3   -7.70   19.60
 -11 -11   3   39.10   16.90
  11 -11  -3   35.40   14.70
 -11  11   3   34.00   17.70
  -9 -11   3  156.28   14.70
  -9 -11   3  150.78   19.30
   9 -11  -3  188.48   19.70
  -9  11   3  203.88   20.60
  -7 -11   3  124.49   14.00
  -7 -11   3  115.19   15.90
  -7  11   3  110.49   16.90
  -5 -11   3  286.97   17.80
  -5 -11   3  292.97   19.30
  -5  11   3  298.37   19.10
  -3 -11   3   65.59    8.50
  -3 -11   3   58.29   10.50
  -3  11   3   77.89   10.30
  -1 -11   3  716.93   20.40
  -1 -11   3  697.93   24.90
  -1  11   3  660.43   24.50
   1  11  -3  702.23   18.30
   1 -11   3 1578.64   39.10
   1 -11   3 1430.76   36.50
   1  11   3 1502.85   41.60
  -1  11  -3 1466.95   34.50
   3 -11   3  132.09   10.60
   3 -11   3  101.59   11.10
   3  11   3  123.99   13.30
  -3  11  -3  112.89   10.20
  -5 -11  -3  319.77   22.60
   5 -11   3  352.96   20.90
  -5 -11  -3  317.17   23.40
   5 -11   3  266.27   14.10
   5  11   3  322.77   11.90
   5  11   3  315.67   23.10
  -5  11  -3  296.67   18.70
  -7 -11  -3   43.10   15.80
  -7 -11  -3   36.10   12.70
   7 -11   3   20.50   11.90
  -7  11  -3   34.20   13.90
  -9 -11  -3   39.20   16.50
   9 -11   3   56.39   14.50
  -9  11  -3   23.80   15.40
  11 -11   3   45.10   15.50
 -11 -11  -3   59.09   21.60
 -11  11  -3   21.40   19.30
  12 -12  -3   -4.00   15.40
 -12 -12   3    9.40   16.80
 -12  12   3   18.90   18.80
  10 -12  -3   63.79   16.90
 -10 -12   3   49.00   16.10
 -10 -12   3   17.90   10.90
 -10  12   3   26.40   16.60
  -8 -12   3   23.90   13.50
   8 -12  -3    7.00   13.60
  -8 -12   3   21.20   10.50
  -8  12   3   16.90   12.30
  -6 -12   3   20.40   11.40
  -6 -12   3   38.70   11.20
  -6  12   3   23.40   12.20
  -4 -12   3   33.20    9.00
  -4 -12   3   17.50    9.90
  -4  12   3   36.10   10.60
  -2 -12   3  123.89   12.70
  -2 -12   3  127.29    9.00
  -2 -12   3  128.79    9.50
  -2  12   3  113.69   12.10
   0 -12   3  114.49   11.80
   0 -12   3  102.79    9.20
   0  12   3  101.89   11.10
   0  12  -3  113.79    7.60
   2 -12   3   20.00    8.00
   2 -12   3   20.60    8.20
   2  12   3   18.30    9.70
  -2  12  -3   23.80    6.30
  -4 -12  -3    7.60   12.20
   4 -12   3   37.30   10.60
   4 -12   3   41.70    9.00
  -4  12  -3   35.50   10.50
   4  12   3   25.50   12.90
  -6 -12  -3    2.90   14.10
   6 -12   3   17.80   11.70
  -6 -12  -3    2.00   14.90
  -6  12  -3   49.50   13.40
   8 -12   3   58.89   13.10
  -8 -12  -3   31.50   16.30
  -8  12  -3   37.00   15.10
  10 -12   3   19.00   13.50
 -10 -12  -3   -3.40   17.40
 -10  12  -3   10.10   15.60
 -11 -13   3   18.40   15.70
  11 -13  -3   36.20   16.60
 -11  13   3   48.20   18.10
   9 -13  -3   47.70   15.70
  -9 -13   3   46.30   15.60
  -9 -13   3    8.90   10.50
  -9  13   3   37.20   15.10
  -7 -13   3  515.55   25.20
   7 -13  -3  500.85   25.90
  -7 -13   3  447.56   26.10
  -7  13   3  542.15   27.40
  -5 -13   3  583.64   26.50
  -5 -13   3  586.94   23.90
  -5  13   3  581.64   26.50
  -3 -13   3  232.18   13.40
  -3 -13   3  189.58   15.20
  -3  13   3  228.58   16.40
  -1 -13   3  363.96   18.60
  -1 -13   3  354.36   14.10
   1  13  -3  342.07   12.40
  -1  13   3  324.27   17.20
   1 -13   3  164.78   12.00
   1 -13   3  171.78   13.90
  -1  13  -3  162.48    9.40
   1  13   3  181.28   14.60
   3 -13   3  161.18   13.00
   3 -13   3  164.88   14.40
  -3  13  -3  175.48   12.50
   3  13   3  185.38   17.00
   5 -13   3  314.87   20.90
  -5 -13  -3  275.77   22.00
   5 -13   3  272.77   16.70
   5  13   3  303.47   23.50
  -5  13  -3  310.27   18.70
  -7 -13  -3   37.80   14.10
  -7 -13  -3   57.79   15.70
   7 -13   3   49.10   12.90
  -7  13  -3   28.30   12.40
   9 -13   3   67.79   14.90
  -9 -13  -3   37.20   16.60
  -9  13  -3   42.30   15.30
 -11 -13  -3   49.30   22.20
  11 -13   3   28.00   14.20
 -11  13  -3   33.00   17.90
  12 -14  -3   11.70   16.00
 -12 -14   3   10.80   18.10
 -12  14   3  -10.90   17.00
 -10 -14   3   21.00   11.30
 -10 -14   3   13.90   14.80
  10 -14  -3   23.20   15.30
 -10  14   3    6.30   14.90
   8 -14  -3   93.89   16.80
  -8 -14   3  110.59   16.60
  -8 -14   3   93.59   13.70
  -8  14   3  115.39   17.10
   6 -14  -3  144.99   17.30
  -6 -14   3  148.09   15.80
  -6 -14   3  159.18   16.00
  -6  14   3  135.29   16.90
  -4 -14   3  276.57   19.70
  -4 -14   3  278.37   16.20
  -4  14   3  260.17   18.90
  -2 -14   3  198.18   15.50
  -2 -14   3  236.48   11.90
  -2  14   3  208.68   15.80
   2  14  -3  203.58   11.10
   0 -14   3  196.88   12.70
   0 -14   3  201.98   15.40
   0  14  -3  208.78   10.20
   0  14   3  176.18   15.50
   2 -14   3   79.79   10.90
   2 -14   3   94.59   12.20
  -2  14  -3   96.19    8.90
   2  14   3  106.89   13.90
   4 -14   3   30.10    9.80
   4 -14   3   54.59   11.70
  -4 -14  -3   28.30   15.10
   4  14   3   39.10   13.50
  -4  14  -3   28.30   10.10
  -6 -14  -3  208.08   21.90
  -6 -14  -3  200.38   20.60
   6 -14   3  185.28   18.00
  -6  14  -3  189.88   16.80
  -8 -14  -3   48.80   17.40
   8 -14   3   17.70   12.40
  -8  14  -3   10.00   12.90
 -10 -14  -3   32.30   19.10
  10 -14   3    0.90   12.70
 -10  14  -3   -5.90   15.90
 -11 -15   3   47.70   17.00
  11 -15  -3   21.00   16.50
 -11  15   3    7.90   16.30
   9 -15  -3    6.60   14.00
  -9 -15   3   -1.30   13.10
  -9 -15   3  -25.00   10.50
  -9  15   3   11.00   13.70
  -7 -15   3  125.49   15.60
  -7 -15   3  131.49   15.70
   7 -15  -3  114.29   16.90
  -7  15   3  139.99   17.50
  -5 -15   3  141.89   14.60
  -5 -15   3  161.88   16.90
   5 -15  -3  143.59   16.20
  -5  15   3  186.78   17.70
  -3 -15   3  215.68   14.40
  -3 -15   3  249.28   18.50
  -3  15   3  240.98   17.90
  -1 -15   3   35.10    7.50
  -1 -15   3   43.10   11.90
   1  15  -3   32.10    6.50
  -1  15   3   24.30    9.90
   1 -15   3   69.19   12.20
   1 -15   3   50.49    9.30
   1  15   3   51.99   11.70
  -1  15  -3   55.79    7.30
   3 -15   3  528.55   22.90
   3 -15   3  564.14   24.40
  -3 -15  -3  520.85   29.90
  -3  15  -3  514.75   19.60
   3  15   3  523.45   26.20
   5 -15   3   19.70   11.40
  -5 -15  -3   23.40   15.70
   5 -15   3    9.30    8.50
  -5  15  -3    4.70   10.90
   5  15   3   19.60   13.20
  -7 -15  -3   82.79   18.30
  -7 -15  -3   48.10   15.60
   7 -15   3   38.20   13.40
  -7  15  -3   60.49   14.30
  -9 -15  -3   62.49   19.30
   9 -15   3   35.60   14.00
  -9  15  -3   40.90   16.10
 -12 -16   3   33.90   18.40
  12 -16  -3   37.50   18.30
 -12  16   3    2.80   17.90
 -10 -16   3   -5.90    9.90
  10 -16  -3   -8.50   13.90
 -10 -16   3   13.40   15.30
 -10  16   3    9.10   14.90
  -8 -16   3   -0.40   12.50
  -8 -16   3   14.90   11.30
   8 -16  -3    4.20   12.00
  -8  16   3  -13.30   12.00
  -6 -16   3  126.19   15.40
   6 -16  -3   77.29   15.30
  -6 -16   3  102.29   15.50
  -6  16   3  105.69   15.50
  -4 -16   3   33.40   12.20
  -4 -16   3   43.50   11.20
   4 -16  -3   38.90   11.70
  -4  16   3   48.30   12.40
  -2 -16   3  165.58   16.10
  -2 -16   3  165.08   11.30
   2  16  -3  160.38   11.80
  -2  16   3  146.79   15.50
   0 -16   3  162.48   16.20
   0 -16   3  186.08   13.00
   0 -16  -3  188.18   11.20
   0  16  -3  186.58   11.60
   0  16   3  179.68   16.30
   2 -16   3   18.60   11.00
   2 -16   3   35.00    9.70
  -2  16  -3   15.90    7.20
   2  16   3   19.20   11.10
  -4 -16  -3   58.19   17.30
   4 -16   3   71.59   12.00
   4 -16   3   77.39   11.80
   4  16   3   77.29   15.40
  -4  16  -3   61.39   11.20
  -6 -16  -3    5.90   14.50
  -6 -16  -3   -3.20   13.30
   6 -16   3    6.50   11.00
  -6  16  -3   19.20   11.80
   8 -16   3   11.80   11.60
  -8 -16  -3   18.90   16.50
  -8 -16  -3   20.20   15.10
  -8  16  -3    2.20   13.20
 -10 -16  -3   33.50   19.70
  10 -16   3   -1.10   13.30
 -10  16  -3   -1.60   16.50
  11 -17  -3   24.30   17.00
 -11 -17   3    1.90   15.50
 -11  17   3    2.50   16.30
  -9 -17   3   58.29   14.70
  -9 -17   3   83.89   16.80
   9 -17  -3   74.69   17.20
  -9  17   3   61.99   16.30
   7 -17  -3   69.69   15.30
  -7 -17   3   54.39   13.70
  -7 -17   3   39.00   12.70
  -7  17   3   59.49   14.40
  -5 -17   3  307.87   19.50
   5 -17  -3  261.57   19.80
  -5 -17   3  302.77   22.20
  -5  17   3  280.67   19.80
  -3 -17   3  150.28   12.70
  -3 -17   3  148.79   16.50
   3 -17  -3  157.28   14.50
  -3  17   3  145.89   15.70
  -1 -17   3  199.48   12.60
  -1 -17   3  183.28   17.00
   1 -17  -3  200.98   13.20
   1  17  -3  191.18   11.80
  -1  17   3  195.18   17.30
   1 -17   3   47.70    9.90
   1 -17   3   43.80   13.00
   1  17   3   77.29   13.60
  -1  17  -3   47.10    7.90
   3 -17   3  349.96   21.20
  -3 -17  -3  351.26   25.80
   3 -17   3  353.76   20.00
   3  17   3  359.16   23.20
  -3  17  -3  324.97   16.40
   5 -17   3  160.58   13.80
  -5 -17  -3  202.58   21.40
   5 -17   3  194.58   17.50
  -5  17  -3  196.58   15.50
   5  17   3  175.88   19.90
   7 -17   3   58.29   13.50
  -7 -17  -3   53.89   17.10
  -7 -17  -3   46.60   17.60
  -7  17  -3   34.90   13.30
  -9 -17  -3   40.40   18.20
   9 -17   3   30.10   14.60
  -9  17  -3    8.00   15.10
 -10 -18   3   -9.50   11.90
 -10 -18   3   13.20   14.20
  10 -18  -3   -7.00   14.40
 -10  18   3    6.70   15.00
  -8 -18   3   67.69   15.00
  -8 -18   3  105.49   16.60
   8 -18  -3   94.09   17.20
  -8  18   3  116.69   18.20
  -6 -18   3  199.18   18.90
  -6 -18   3  184.68   17.00
   6 -18  -3  166.98   17.10
  -6  18   3  170.18   18.20
  -4 -18   3   28.70   11.70
   4 -18  -3   25.70   12.40
  -4 -18   3   31.30   13.40
  -4  18   3   54.59   13.40
   2 -18  -3  116.59   12.70
  -2 -18   3  131.49   10.20
  -2 -18   3  136.59   17.20
   2  18  -3  129.49   11.40
  -2  18   3  124.19   14.90
   0 -18   3   19.30    8.30
   0 -18  -3   33.50    7.30
   0 -18   3   53.49   14.10
   0  18   3   46.70   12.50
   0  18  -3   43.20    8.10
  -2 -18  -3  160.78   20.90
   2 -18   3  167.78   16.50
   2 -18   3  131.79   13.30
   2  18   3  138.29   16.80
  -2  18  -3  158.18   12.00
   4 -18   3   21.30   10.40
   4 -18   3   17.50   10.60
  -4 -18  -3   16.80   16.20
   4  18   3   21.50   12.50
  -4  18  -3   10.20    9.30
  -6 -18  -3   35.10   16.20
  -6 -18  -3   38.70   15.80
   6 -18   3   36.80   11.90
   6  18   3   21.00   14.40
  -6  18  -3    3.50   11.30
  -8 -18  -3   24.80   16.40
  -8 -18  -3   36.20   17.30
   8 -18   3   86.29   16.30
  -8  18  -3   53.79   14.80
 -10 -18  -3   29.50   20.80
  10 -18   3   47.50   17.00
  11 -19  -3   -1.80   15.60
 -11 -19   3    3.70   16.60
 -11  19   3   -9.50   15.30
  -9 -19   3   54.09   14.60
  -9 -19   3   50.69   15.40
   9 -19  -3   50.19   16.40
  -9  19   3   74.79   17.10
  -7 -19   3  180.18   18.30
   7 -19  -3  151.58   18.30
   7 -19  -3  139.89   17.40
  -7 -19   3  180.58   18.90
  -7  19   3  178.88   19.50
  -5 -19   3   -0.10   10.30
  -5 -19   3   -8.00   12.40
   5 -19  -3    2.80   10.60
  -5  19   3   -4.60   10.60
  -3 -19   3  149.59   14.10
   3 -19  -3  135.29   14.30
  -3 -19   3  141.49   18.30
  -3  19   3  139.79   16.40
   3  19  -3  175.08   13.90
   1 -19  -3  152.88   11.70
  -1 -19   3  155.28   11.60
  -1 -19   3  123.49   16.20
   1  19  -3  166.38   12.30
  -1  19   3  147.89   16.90
  -1 -19  -3  109.19   18.30
   1 -19   3  103.89   12.10
   1 -19   3   77.99   14.90
  -1  19  -3  117.59   10.80
   1  19   3  111.19   15.70
   3 -19   3   52.79   12.30
   3 -19   3   56.09   11.30
  -3 -19  -3   55.89   18.20
   3  19   3   36.00   12.90
  -3  19  -3   42.50    9.30
  -5 -19  -3   98.19   19.30
   5 -19   3  124.09   15.60
   5 -19   3  105.89   13.10
   5  19   3  107.39   17.40
  -5  19  -3  105.69   13.60
  -7 -19  -3   61.99   17.50
   7 -19   3   85.49   15.10
  -7 -19  -3   71.49   18.60
  -7  19  -3   58.99   13.80
  -9 -19  -3   51.99   19.70
   9 -19   3   25.70   13.90
 -10 -20   3    9.00   13.60
 -10 -20   3   20.60   16.20
  10 -20  -3   33.90   16.60
 -10  20   3   31.10   16.80
   8 -20  -3  106.69   17.40
  -8 -20   3   74.29   15.80
  -8 -20   3   72.99   16.20
  -8  20   3   66.29   16.00
  -6 -20   3   13.20   13.50
  -6 -20   3   -3.10   10.70
   6 -20  -3   15.10   14.10
   6 -20  -3   21.70   12.00
  -6  20   3   13.20   11.90
   4 -20  -3  364.06   25.20
   4 -20  -3  358.96   19.40
  -4 -20   3  297.17   23.30
  -4 -20   3  307.07   19.10
  -4  20   3  336.77   22.00
   2 -20  -3   70.99   15.90
  -2 -20   3   80.29   16.40
   2 -20  -3   79.29   11.00
  -2 -20   3   71.49    9.00
   2  20  -3   78.29   10.90
  -2  20   3   71.89   14.20
   0 -20  -3  210.98   21.40
   0 -20   3  257.87   20.90
   0 -20   3  243.48   14.70
   0  20  -3  237.48   15.00
   0  20   3  252.57   20.50
  -2 -20  -3  103.49   18.70
   2 -20   3  102.19   14.70
   2 -20   3   87.59   11.80
  -2  20  -3  122.59   11.50
   2  20   3  103.19   15.60
   4 -20   3   26.60   11.70
   4 -20   3   28.50   11.20
  -4 -20  -3   24.00   17.30
   4  20   3   35.10   12.40
  -4  20  -3   29.90    9.90
  -6 -20  -3   15.60   17.20
   6 -20   3   -0.10   11.00
  -6 -20  -3    8.70   15.10
   6  20   3  -13.60   13.20
  -8 -20  -3   -9.20   16.40
   8 -20   3   32.10   13.90
  -8 -20  -3   33.30   17.50
  -9 -21   3   59.59   17.10
   9 -21  -3   36.20   15.00
  -9 -21   3   63.49   16.10
  -9  21   3   56.29   16.70
   7 -21  -3   36.00   13.90
  -7 -21   3   61.29   14.30
  -7 -21   3   28.70   14.60
   7 -21  -3   32.70   15.10
  -7  21   3   61.69   15.20
  -5 -21   3  193.68   16.80
   5 -21  -3  149.29   16.30
   5 -21  -3  178.68   20.10
  -5 -21   3  173.88   19.80
  -5  21   3  159.48   18.00
  -3 -21   3   33.10   13.60
  -3 -21   3   65.49   11.30
   3 -21  -3   42.50   11.10
   3 -21  -3   80.29   15.40
  -3  21   3   71.09   14.00
   3  21  -3   25.00    9.50
  -1 -21   3   -0.70   13.40
  -1 -21   3    5.80    7.10
   1 -21  -3   38.80   16.50
   1  21  -3    9.70    7.60
  -1  21   3   11.20   11.10
  -1 -21  -3  129.99   19.40
   1 -21   3  155.98   13.60
   1 -21   3  146.79   17.40
   1  21   3  138.39   16.90
  -1  21  -3  162.28   12.30
   3 -21   3  117.89   14.00
  -3 -21  -3  106.79   20.50
   3 -21   3   91.09   14.00
   3  21   3  107.39   15.80
   5 -21   3   36.70   12.00
  -5 -21  -3    0.00   16.70
   5 -21   3   30.50   11.40
   5  21   3    6.40   13.70
   7 -21   3   17.60   12.70
  -7 -21  -3  -10.80   15.70
  -7 -21  -3   27.00   16.30
   9 -21   3   31.10   15.20
  -9 -21  -3   57.49   21.00
 -10 -22   3    1.00   15.70
 -10 -22   3    3.10   13.90
  10 -22  -3   -5.00   14.80
 -10  22   3   27.10   16.50
  -8 -22   3   19.80   14.10
  -8 -22   3   22.20   13.90
   8 -22  -3    6.30   13.00
  -8  22   3   19.40   13.90
   6 -22  -3   23.30   12.50
  -6 -22   3   26.60   12.50
   6 -22  -3   -5.80   13.90
  -6 -22   3   14.20   14.80
  -6  22   3   30.70   13.50
  -4 -22   3   78.59   12.60
   4 -22  -3   47.80   12.00
   4 -22  -3   40.50   15.60
  -4 -22   3   55.39   15.70
  -4  22   3   55.29   13.70
   2 -22  -3   18.60   15.10
  -2 -22   3  -13.40   12.70
   2 -22  -3  -16.10    7.70
   2  22  -3    4.50    8.10
  -2  22   3   11.90   11.10
   0 -22  -3  145.79   19.50
   0 -22   3  125.69   17.00
   0 -22   3  133.49   11.80
   0  22   3  121.99   15.70
  -2 -22  -3  168.38   22.30
   2 -22   3  118.89   16.20
   2 -22   3  135.69   13.70
   2  22   3  113.59   16.60
  -4 -22  -3  110.29   21.80
   4 -22   3  105.39   14.60
   4 -22   3  103.99   14.80
   4  22   3   97.39   16.90
   6 -22   3   62.19   14.20
  -6 -22  -3   69.29   18.40
  -6 -22  -3   67.89   19.90
   6  22   3   50.79   17.20
   8 -22   3   40.00   15.10
  -8 -22  -3    9.00   18.20
  -8 -22  -3   50.69   19.20
  -9 -23   3   -2.40   15.30
   9 -23  -3   14.90   14.40
  -9 -23   3   28.30   14.50
  -9  23   3  -24.50   12.70
  -7 -23   3   16.60   14.70
   7 -23  -3    0.70   14.30
  -7 -23   3    9.90   12.70
   7 -23  -3    7.60   12.70
  -7  23   3    2.50   13.20
   5 -23  -3   61.49   17.50
  -5 -23   3   68.39   13.10
  -5 -23   3   78.59   17.40
   5 -23  -3   52.79   12.90
  -5  23   3   63.99   14.60
   3 -23  -3   45.90   10.30
  -3 -23   3   48.30   14.50
   3 -23  -3   43.80   16.80
  -3  23   3   43.70   13.20
   3  23  -3   32.90    9.90
   1 -23  -3    6.50   15.80
  -1 -23   3   17.40   13.70
  -1 -23   3   25.10    7.50
  -1  23   3   36.90   12.50
  -1 -23  -3   52.89   16.70
   1 -23   3   76.29   15.30
   1 -23   3   89.09   11.10
   1  23   3   62.39   14.20
   3 -23   3   16.10   10.00
   3 -23   3   -6.80   12.30
  -3 -23  -3   12.00   19.00
   3  23   3   44.50   13.90
   5 -23   3    1.30   11.50
   5 -23   3    8.90   11.10
  -5 -23  -3   -6.00   17.10
   5  23   3   -8.80   12.90
  -7 -23  -3   38.80   17.30
   7 -23   3   -2.30   12.30
  -7 -23  -3   19.00   18.20
   8 -24  -3   -8.10   12.00
  -8 -24   3    4.70   14.80
  -8 -24   3    1.20   14.10
  -8  24   3    3.30   13.60
  -6 -24   3   39.30   12.80
   6 -24  -3    5.20   16.40
  -6 -24   3   29.70   14.30
   6 -24  -3   24.40   12.70
  -6  24   3   17.70   13.20
  -4 -24   3   34.80   16.00
   4 -24  -3   19.50   11.10
   4 -24  -3   38.90   16.70
  -4  24   3   35.00   13.30
   2 -24  -3  -13.40   14.70
  -2 -24   3   14.90   14.10
  -2  24   3   16.60   11.80
   0 -24   3   49.40   15.00
   0 -24  -3   59.29   17.60
   0 -24   3   75.19   10.00
   0  24   3   77.79   14.90
   2 -24   3  124.49   16.90
   2 -24   3  136.39   14.90
  -2 -24  -3  174.28   22.90
   2  24   3  165.28   19.20
   4 -24   3   45.00   12.60
  -4 -24  -3   33.40   19.90
   4 -24   3   39.30   12.90
   4  24   3   67.79   15.70
  -6 -24  -3   17.40   19.80
   6 -24   3   16.10   12.40
  -6 -24  -3   44.20   17.30
   6  24   3   14.50   15.40
   7 -25  -3   71.39   19.50
   7 -25  -3   45.10   14.50
  -7 -25   3   52.59   16.90
  -7  25   3   87.69   17.50
   5 -25  -3   25.00   16.70
  -5 -25   3   57.39   17.70
   5 -25  -3   50.59   12.50
  -5  25   3   47.90   14.30
   3 -25  -3   30.90   17.00
  -3 -25   3   43.60   16.50
  -3  25   3   55.59   14.40
   1 -25  -3    1.80   16.30
  -1 -25   3    1.60   14.10
  -1  25   3   10.90   11.50
  -1 -25  -3   11.70   17.60
   1 -25   3   24.70    9.40
   1 -25   3   22.70   14.10
   1  25   3   29.70   12.70
  -3 -25  -3    8.90   18.80
   3 -25   3   26.60   12.80
   3 -25   3   33.50   11.30
   3  25   3   17.50   13.40
  -5 -25  -3  -17.60   17.00
   5 -25   3    7.90   11.80
   5  25   3   31.60   15.40
   7 -25   3   -1.20   12.50
  -7 -25  -3    5.50   16.30
  -7 -25  -3   -9.50   18.30
  -8 -26   3  -10.90   15.40
   8 -26  -3    4.50   13.30
  -8  26   3    7.90   14.80
   6 -26  -3  -12.10   17.00
   6 -26  -3    2.40   11.20
  -6 -26   3   -4.00   15.00
  -6  26   3   -3.10   13.20
   4 -26  -3   25.30   17.40
  -4 -26   3   23.40   15.90
  -4  26   3   56.89   14.70
  -2 -26   3   28.30   15.60
   2 -26  -3   -2.90   16.90
  -2  26   3   33.60   13.80
   0 -26  -3   25.20   18.20
   0 -26   3   21.80   14.70
   0  26   3   17.00   12.50
  -2 -26  -3   77.79   20.20
   2 -26   3   27.40   14.20
   2 -26   3   85.49   13.00
   2  26   3   70.49   15.40
  -4 -26  -3   18.20   17.40
   4 -26   3   11.80   11.00
   4 -26   3  -13.50   12.50
   4  26   3   17.60   13.70
   6 -26   3   54.79   15.10
  -6 -26  -3   63.19   22.10
  -6 -26  -3   52.89   18.50
   6  26   3   54.79   18.20
  -7 -27   3   14.20   17.10
   7 -27  -3   32.10   14.60
  -7  27   3   36.50   16.20
  -5 -27   3    0.50   15.50
   5 -27  -3   32.80   17.90
  -5  27   3   27.00   13.80
  -3 -27   3   37.10   16.10
   3 -27  -3   19.60   16.80
  -3  27   3   26.90   13.10
   1 -27  -3   24.10   18.40
  -1 -27   3   11.50   14.90
  -1  27   3   17.60   13.10
  -1 -27  -3   61.39   21.20
   1 -27   3   66.69   16.40
   1  27   3   68.39   15.10
   3 -27   3   38.60   11.60
  -3 -27  -3    4.30   17.60
   3 -27   3   -1.10   12.60
   3  27   3    8.80   13.00
   5 -27   3   40.90   13.40
  -5 -27  -3   19.90   21.30
   5  27   3   43.50   16.60
   6 -28  -3   36.10   19.90
  -6 -28   3    5.00   15.30
  -6  28   3    9.30   13.50
   4 -28  -3   24.60   18.40
  -4 -28   3    4.50   15.40
  -4  28   3   15.10   12.90
   2 -28  -3   12.40   18.10
  -2 -28   3   -4.00   13.20
  -2  28   3    0.90   11.80
   0 -28  -3    4.40   16.70
   0 -28   3    2.00   14.30
   0  28   3    4.40   12.50
   2 -28   3  -10.10   12.60
  -2 -28  -3   -5.50   18.50
   2  28   3   -3.20   11.80
  -4 -28  -3   14.90   20.70
   4 -28   3   -5.00   13.40
   4 -28   3   -7.30   10.20
   4  28   3    0.60   13.40
   5 -29  -3    0.10   17.70
  -5 -29   3   20.00   17.60
  -5  29   3   16.00   14.70
   3 -29  -3   19.60   19.20
  -3 -29   3   37.50   16.10
  -3  29   3   51.79   15.00
   1 -29  -3   54.09   20.30
  -1 -29   3   72.99   17.60
  -1  29   3   62.09   15.60
   1 -29   3    6.40   14.50
  -1 -29  -3   24.60   19.70
   1  29   3   34.20   13.60
  -3 -29  -3   14.60   21.10
   3 -29   3   51.49   16.00
   3  29   3   75.89   17.40
  -4 -30   3   41.70   18.40
   4 -30  -3   39.50   20.20
  -4  30   3   77.49   17.90
   2 -30  -3  -14.80   18.40
  -2 -30   3   -0.40   15.80
  -2  30   3    4.80   12.40
   0 -30  -3   33.00   19.90
   0 -30   3    5.60   15.20
   0  30   3   49.80   15.30
  -2 -30  -3   23.90   21.10
   2 -30   3    0.20   14.40
   2  30   3   37.30   15.30
   3 -31  -3  -14.60   18.10
  -3 -31   3  -21.50   16.20
  -3  31   3   12.30   14.00
  -1 -31   3   28.40   15.80
   1 -31  -3   29.70   20.80
  -1  31   3   23.80   14.20
   1 -31   3   29.40   16.00
  -1 -31  -3   79.59   23.50
   1  31   3   55.09   16.50
   0  32   3   13.40   13.20
  12   0  -4   93.59   17.90
 -12   0   4  102.89   20.80
 -10   0   4   30.50   15.60
  -8   0   4  141.79   11.20
  -8   0   4  140.49   18.30
  -6   0   4   37.80   11.40
  -6   0   4   33.70    6.80
  -4   0   4  260.67   12.70
  -4   0   4  244.48   14.50
  -2   0   4 1162.48   28.90
  -2   0   4 1088.69   28.70
   0   0   4 1035.10   26.20
   0   0   4 1022.40   26.60
   0   0   4 1020.60   26.20
   2   0   4  165.38   11.00
   2   0   4  171.58   10.30
   2   0   4  180.08   11.70
  -2   0  -4  212.58   12.80
   4   0   4  306.67   14.90
  -4   0  -4  275.57   18.00
   4   0   4  292.57   11.90
  -6   0  -4    2.90   13.30
   6   0   4   -5.80    8.30
   8   0   4  271.97   18.30
  -8   0  -4  255.37   22.90
  10   0   4   -4.70    9.70
 -10   0  -4  -14.10   15.80
 -13  -1   4   -1.90   19.10
  13  -1  -4    8.10   14.70
  13   1  -4   -6.30   14.70
 -13   1   4  -15.40   18.00
 -11  -1   4   95.49   19.40
 -11   1   4   74.89   19.20
  -9  -1   4   81.19    9.70
  -9  -1   4   85.59   16.40
  -9   1   4  113.49   17.30
  -9   1   4   90.29    9.40
  -7  -1   4  267.57   14.80
  -7  -1   4  253.07   19.70
  -7   1   4  264.37   20.00
  -7   1   4  268.87   14.10
  -5  -1   4   34.90    6.70
  -5  -1   4   26.30    9.30
  -5   1   4   20.90    6.00
  -5   1   4   35.30    9.60
  -3  -1   4  213.68   12.00
  -3  -1   4  229.78   11.90
  -3   1   4  216.18   11.90
  -1  -1   4  337.77   13.10
  -1  -1   4  343.57   13.30
  -1  -1   4  371.36   12.10
  -1   1   4  334.77   13.10
  -1   1   4  350.86   13.10
   1  -1   4  427.26   15.70
   1  -1   4  434.86   15.20
   1  -1   4  437.86   14.50
   1   1   4  425.36   15.10
   1   1   4  442.06   15.80
   1   1   4  435.36   15.30
  -3  -1  -4  411.06   18.00
   3  -1   4  410.76   16.50
   3  -1   4  376.86   13.30
  -3   1  -4  354.16   16.60
   3   1   4  394.16   14.10
   3   1   4  392.46   16.00
   5  -1   4   84.69   11.10
   5  -1   4   99.99    7.20
  -5  -1  -4   81.89   14.10
   5   1   4   96.09   11.00
  -5   1  -4   81.39   13.80
   7  -1   4   42.90   11.10
  -7  -1  -4   68.39   16.90
   7   1   4   58.19   11.10
  -7   1  -4   80.69   16.70
   9  -1   4  164.18   16.80
  -9  -1  -4  148.19   21.20
  -9   1  -4  164.18   20.90
   9   1   4  153.88   15.80
  11  -1   4   -5.20   11.40
 -11  -1  -4   15.50   19.30
 -11   1  -4    1.30   19.30
  11   1   4   40.40   12.90
  12  -2  -4   21.70   15.00
 -12  -2   4   31.40   18.00
 -12   2   4   32.80   18.30
  12   2  -4   -3.20   13.30
 -10  -2   4   22.40   15.70
 -10   2   4   42.20   16.60
  -8  -2   4    7.80   14.60
  -8  -2   4   24.10    8.00
  -8   2   4   24.60    7.20
  -8   2   4   22.70   14.70
  -6  -2   4   62.09    8.30
  -6  -2   4   49.20   12.00
  -6   2   4   65.99   12.60
  -6   2   4   78.99    8.00
  -4  -2   4  367.76   15.80
  -4  -2   4  369.36   15.30
  -4   2   4  340.77   16.80
  -4   2   4  337.77   14.30
  -2  -2   4 1440.76   33.70
  -2  -2   4 1371.06   34.80
  -2   2   4 1445.16   35.90
  -2   2   4 1407.66   34.70
   0  -2   4  202.58   10.70
   0  -2   4  195.28    8.50
   0  -2   4  213.28   10.70
   0   2   4  193.18   11.10
   0   2   4  203.98   10.60
   0   2   4  212.48   10.60
   2  -2   4  374.96   15.50
   2  -2   4  369.66   13.40
  -2   2  -4  352.66   14.60
   2   2   4  348.37   13.80
   2   2   4  371.56   14.20
   2   2   4  371.96   16.50
   4  -2   4  162.78   12.50
  -4  -2  -4  234.58   17.40
   4  -2   4  198.08    9.60
   4   2   4  190.38   10.70
  -4   2  -4  217.78   15.00
   4   2   4  189.38   12.10
  -6  -2  -4  302.67   23.20
   6  -2   4  356.56   19.90
   6   2   4  400.26   18.70
  -6   2  -4  370.26   22.90
  -8  -2  -4  132.19   19.80
   8  -2   4  130.29   15.10
  -8   2  -4  121.99   18.50
   8   2   4  146.39   14.50
 -10  -2  -4   65.79   18.80
  10  -2   4   42.90   12.60
  10   2   4   27.00   11.30
 -10   2  -4   28.40   17.30
  13  -3  -4  -11.70   14.80
 -13  -3   4  -12.50   17.70
  13   3  -4   -1.10   13.70
 -13   3   4  -26.80   15.50
 -11  -3   4   22.40   17.80
 -11   3   4   41.70   18.00
  -9  -3   4   26.80   15.30
  -9  -3   4   28.30    8.60
  -9   3   4   45.60    8.00
  -9   3   4   52.59   15.50
  -7  -3   4   68.29   14.30
  -7  -3   4   61.69    9.30
  -7   3   4   74.59   14.70
  -7   3   4   60.69    8.50
  -5  -3   4   -0.40    6.00
  -5  -3   4   -4.40    8.90
  -5   3   4    4.00    5.60
  -5   3   4    4.50    8.80
  -3  -3   4   85.49    8.30
  -3  -3   4   82.79    7.70
  -3   3   4   71.89    7.10
  -3   3   4   67.59    8.50
  -1  -3   4  436.06   15.70
  -1  -3   4  429.16   12.10
  -1  -3   4  445.86   15.90
  -1   3   4  429.26   15.80
  -1   3   4  419.06   15.40
   1  -3   4   16.10    4.70
   1  -3   4    6.60    5.50
   1   3   4    9.80    4.90
   1   3   4    6.60    6.00
   1   3   4   18.70    5.30
  -1   3  -4   15.90    5.20
   3  -3   4  352.26   12.80
   3   3   4  389.36   18.00
   3   3   4  378.66   14.50
  -3   3  -4  365.56   16.40
   3   3   4  386.46   14.70
   5  -3   4   75.59    6.30
   5  -3   4   83.19   11.60
  -5  -3  -4   80.19   14.60
  -5   3  -4   52.39   13.10
   5   3   4   96.29   10.50
  -7  -3  -4  178.88   20.30
   7  -3   4  182.98   16.40
   7   3   4  196.88   15.20
  -7   3  -4  201.88   20.70
   9  -3   4   60.79   12.80
  -9  -3  -4   52.29   18.00
  -9   3  -4   29.00   16.90
   9   3   4   12.20   10.40
  11  -3   4   -6.40   11.00
 -11  -3  -4   22.70   18.90
 -11   3  -4   -4.90   18.00
  11   3   4    0.20   10.30
 -12  -4   4    9.00   17.50
  12  -4  -4    7.20   15.00
  12   4  -4  -13.70   12.80
 -12   4   4   26.00   18.30
 -10  -4   4  132.89   19.50
 -10   4   4  150.58   20.40
  -8  -4   4    6.80    7.90
  -8  -4   4   10.40   14.20
  -8   4   4    8.80   14.50
  -8   4   4    2.20    6.50
  -6  -4   4   39.20    8.10
  -6  -4   4   77.09   12.00
  -6   4   4   38.70    7.10
  -6   4   4   38.50   11.70
  -4  -4   4  584.14   20.40
  -4  -4   4  591.14   20.50
  -4   4   4  594.44   22.00
  -4   4   4  606.04   19.50
  -2  -4   4 2213.48   49.40
  -2  -4   4 2210.08   51.19
  -2   4   4 2251.27   51.39
  -2   4   4 2273.97   53.59
   0  -4   4   96.69    7.90
   0  -4   4   70.99    7.50
   0  -4   4   84.69    5.30
   0   4   4   75.09    8.30
   0   4   4   81.59    7.50
   2  -4   4  486.05   18.10
   2  -4   4  488.45   15.90
  -2   4  -4  526.65   17.30
   2   4   4  537.15   17.70
   2   4   4  535.25   20.00
   2   4   4  525.95   16.50
   4  -4   4   45.80    5.60
  -4  -4  -4   40.90   11.80
   4  -4   4   50.79    9.20
   4   4   4   54.89    7.80
  -4   4  -4   62.79   10.80
   6  -4   4  152.88   15.30
  -6  -4  -4  114.69   17.50
  -6   4  -4  142.79   16.90
   6   4   4  124.39   11.90
  -8  -4  -4   35.20   15.60
   8  -4   4   53.79   12.40
   8   4   4   28.30   10.00
  -8   4  -4   19.80   15.20
 -10  -4  -4    7.90   17.50
  10  -4   4   24.40   11.90
 -10   4  -4   21.90   17.20
  10   4   4   19.50   10.30
 -13  -5   4   13.40   18.90
  13  -5  -4   13.50   16.70
  13   5  -4   -2.00   14.30
 -13   5   4    0.00   17.60
 -11  -5   4  129.69   20.40
  11  -5  -4  122.49   19.40
 -11   5   4  106.69   21.00
  -9  -5   4  271.97   17.70
  -9  -5   4  271.67   22.90
  -9   5   4  266.47   13.50
  -9   5   4  284.07   23.10
  -7  -5   4  141.99   12.00
  -7  -5   4  165.38   17.10
  -7   5   4  113.59    9.70
  -7   5   4  114.49   15.30
  -5  -5   4   91.49    9.50
  -5  -5   4   95.09   11.70
  -5   5   4   84.19    8.40
  -5   5   4   90.99   12.10
  -3  -5   4    8.40    5.70
  -3  -5   4   -3.90    5.90
  -3   5   4   -4.20    5.30
  -3   5   4   -0.30    7.00
  -1  -5   4  319.97   13.50
  -1  -5   4  319.37   14.20
  -1   5   4  315.77   14.40
  -1   5   4  300.97   13.20
   1  -5   4  271.57   13.60
   1  -5   4  255.17   12.20
   1   5   4  264.77   14.50
   1   5   4  306.27   13.60
   1   5   4  289.57   11.80
  -1   5  -4  279.17   10.20
   3  -5   4   42.00    7.90
   3  -5   4   35.80    5.40
  -3   5  -4   41.70    8.90
   3   5   4   30.80    9.40
   3   5   4   31.30    6.40
   5  -5   4  152.78   14.30
   5  -5   4  141.09    8.90
  -5  -5  -4  151.98   17.50
  -5   5  -4  164.48   15.70
   5   5   4  132.09   11.30
  -7  -5  -4  162.08   20.30
   7  -5   4  145.69   15.60
   7   5   4  184.48   14.10
  -7   5  -4  156.78   18.60
   9  -5   4    2.60   10.60
  -9  -5  -4   12.40   16.80
   9   5   4   24.40   10.30
  -9   5  -4    1.40   15.50
 -11  -5  -4   12.60   18.90
  11  -5   4   -4.00   11.90
 -11   5  -4  -12.60   17.50
 -12  -6   4   51.09   18.20
  12  -6  -4   15.40   13.70
  12   6  -4   44.40   14.30
 -12   6   4   14.40   17.40
 -10  -6   4   -5.30   15.40
 -10  -6   4    8.10    8.60
 -10   6   4  -15.90   14.20
  -8  -6   4   20.70   14.60
  -8  -6   4    7.50    8.90
  -8   6   4   30.50   14.70
  -8   6   4   16.70    7.40
  -6  -6   4   75.09   12.40
  -6  -6   4   62.39    9.90
  -6   6   4   62.09   13.10
  -6   6   4   59.79    8.20
  -4  -6   4    6.00    8.10
  -4  -6   4   22.20    7.40
  -4   6   4   17.90    7.70
  -4   6   4   12.70    5.80
  -2  -6   4 1281.07   31.60
  -2  -6   4 1238.78   29.30
  -2  -6   4 1290.27   33.70
  -2   6   4 1291.47   33.20
  -2   6   4 1279.37   35.10
   0  -6   4  108.89    9.10
   0  -6   4   85.29    8.20
   0   6   4   94.39    9.80
   0   6   4  101.49    9.10
   2  -6   4   99.89   10.10
   2  -6   4   92.39    7.80
  -2   6  -4  107.69    8.40
   2   6   4  104.89    7.70
   2   6   4   94.19   11.10
   4  -6   4    6.70    4.70
   4  -6   4   20.60    8.80
  -4  -6  -4   20.10   11.40
   4   6   4    9.20   10.10
   4   6   4    4.40    6.00
  -4   6  -4    7.40    9.30
   6  -6   4   -2.00   10.40
  -6  -6  -4   12.10   14.40
   6   6   4    5.10    7.70
  -6   6  -4   14.70   13.90
  -8  -6  -4   53.09   16.70
   8  -6   4   48.70   12.80
  -8   6  -4   59.69   16.70
   8   6   4   43.70   10.00
  10  -6   4   40.20   13.00
 -10  -6  -4   38.80   18.60
 -10   6  -4   19.00   17.20
  13  -7  -4   12.10   16.80
 -13  -7   4   14.00   18.90
 -13   7   4   -7.80   18.30
  13   7  -4    0.90   14.60
 -11  -7   4   28.30   17.20
  11  -7  -4    8.00   15.60
 -11   7   4   57.69   18.20
  -9  -7   4   66.89   16.70
  -9  -7   4   88.29   11.70
  -9   7   4   82.99   17.20
  -7  -7   4   67.39   11.20
  -7  -7   4   78.79   14.60
  -7   7   4   68.59   15.40
  -7   7   4   86.69    9.50
  -5  -7   4  154.08   12.40
  -5  -7   4  133.79   12.60
  -5   7   4  159.98   13.80
  -5   7   4  156.68   11.00
  -3  -7   4 1155.88   32.40
  -3  -7   4 1176.18   29.70
  -3   7   4 1136.89   34.00
  -3   7   4 1191.48   31.60
  -1  -7   4  464.65   16.50
  -1  -7   4  440.06   16.80
  -1   7   4  427.26   18.20
  -1   7   4  429.36   17.20
   1  -7   4  137.89   10.40
   1  -7   4  126.69    9.40
   1   7   4  152.78   11.50
   1   7   4  143.99   12.00
  -1   7  -4  137.59    7.10
   3  -7   4   -4.20    6.50
   3  -7   4    5.40    5.20
  -3   7  -4    7.20    7.70
   3   7   4   -1.40    8.60
   3   7   4   -3.00    5.10
   5  -7   4  254.97   18.00
  -5  -7  -4  227.98   19.30
   5  -7   4  214.18   10.70
   5   7   4  225.98   13.10
  -5   7  -4  251.57   18.70
   7  -7   4  312.17   20.60
  -7  -7  -4  276.57   24.00
  -7   7  -4  260.97   21.60
   7   7   4  281.87   15.30
  -9  -7  -4   21.90   17.20
   9  -7   4   17.80   12.20
  -9   7  -4   -6.70   15.70
  11  -7   4   29.60   13.50
 -11  -7  -4   40.40   20.50
 -11   7  -4   11.50   19.80
 -12  -8   4    5.00   16.80
  12  -8  -4    2.00   15.40
  12   8  -4   -2.20   12.70
 -12   8   4    3.20   16.40
 -10  -8   4   18.10   15.90
 -10  -8   4   12.10    9.70
 -10   8   4   39.20   16.50
  -8  -8   4  200.18   19.70
  -8  -8   4  222.48   15.90
  -8   8   4  189.28   14.00
  -8   8   4  232.88   20.70
  -6  -8   4  139.89   12.90
  -6  -8   4  123.19   14.30
  -6   8   4  120.69   14.90
  -6   8   4  125.79   10.70
  -4  -8   4  353.16   15.70
  -4  -8   4  357.16   17.60
  -4   8   4  327.07   15.30
  -4   8   4  320.07   17.90
  -2  -8   4  240.08    9.10
  -2  -8   4  211.98   13.40
  -2  -8   4  221.18   12.20
  -2   8   4  212.68   14.40
  -2   8   4  204.68   13.20
   0  -8   4  106.29    9.50
   0  -8   4  150.78   10.70
   0   8   4  114.59   11.20
   0   8   4  108.09    9.60
   2  -8   4  229.38   14.00
   2  -8   4  209.08   12.80
   2   8   4  201.28    9.80
   2   8   4  221.28   15.90
  -2   8  -4  200.78   10.80
   4  -8   4   93.29   12.20
   4  -8   4   77.29    7.60
   4   8   4   99.59   14.30
   4   8   4  102.29    8.50
  -4   8  -4   92.29   12.10
  -6  -8  -4  553.04   30.00
   6  -8   4  565.74   26.30
  -6  -8  -4  605.34   25.70
  -6   8  -4  595.54   27.30
   6   8   4  567.54   20.30
   8  -8   4   27.50   12.20
  -8  -8  -4   15.00   15.90
   8   8   4   33.60    9.20
  -8   8  -4   41.20   14.80
  10  -8   4   21.40   13.00
 -10  -8  -4   60.19   19.90
 -10   8  -4    0.40   16.60
 -13  -9   4   -4.90   19.20
  13  -9  -4  -24.70   15.80
 -13   9   4   -0.50   19.10
  11  -9  -4  116.79   19.50
 -11  -9   4  139.69   21.50
 -11   9   4  143.69   20.60
  -9  -9   4   22.50   10.00
  -9  -9   4   28.70   14.30
  -9   9   4   28.30   14.80
  -7  -9   4  295.47   22.10
  -7  -9   4  315.97   21.00
  -7   9   4  352.26   23.50
  -7   9   4  338.77   16.60
  -5  -9   4  310.17   17.10
  -5  -9   4  288.67   17.90
  -5   9   4  321.47   15.60
  -5   9   4  336.37   19.50
  -3  -9   4  206.58   15.30
  -3  -9   4  206.58   11.40
  -3   9   4  191.18   13.60
  -3   9   4  199.88   13.40
  -1  -9   4  634.34   20.10
  -1  -9   4  635.04   22.40
  -1   9   4  619.84   23.00
   1  -9   4  589.64   20.90
   1  -9   4  624.94   20.70
  -1   9  -4  586.64   14.90
   1   9   4  614.94   23.60
   3  -9   4  155.98   13.40
   3  -9   4  144.39   10.20
  -3   9  -4  159.68   12.30
   3   9   4  161.58    9.10
   3   9   4  158.28   14.80
   5  -9   4  225.78   18.20
  -5  -9  -4  218.78   19.70
   5  -9   4  221.48   12.00
   5   9   4  218.48   19.20
  -5   9  -4  200.48   16.70
   5   9   4  227.78   12.00
   7  -9   4   43.00   12.10
  -7  -9  -4   23.00   14.90
  -7  -9  -4   32.20   12.20
  -7   9  -4   16.00   13.60
   7   9   4   13.80    7.20
   9  -9   4   34.90   12.80
  -9  -9  -4   53.29   18.80
  -9   9  -4   25.20   16.60
 -11  -9  -4   15.70   20.00
  11  -9   4   36.40   13.40
 -11   9  -4   11.20   19.50
 -12 -10   4   -3.50   16.40
  12 -10  -4  -12.60   14.00
 -12  10   4  -31.60   15.80
 -10 -10   4   30.50   15.30
 -10 -10   4   18.10   10.30
  10 -10  -4   52.69   16.50
 -10  10   4   41.60   16.60
  -8 -10   4  112.19   16.40
  -8 -10   4  120.89   13.60
  -8  10   4  120.59   17.80
  -6 -10   4  173.18   15.90
  -6 -10   4  175.08   14.80
  -6  10   4  171.78   17.40
  -4 -10   4    0.20    7.80
  -4 -10   4    2.80    8.00
  -4  10   4   -4.50    8.30
  -2 -10   4    1.30    4.80
  -2 -10   4  -17.30    6.60
  -2 -10   4    7.40    5.90
  -2  10   4    8.90    7.80
   0 -10   4  185.38   12.20
   0 -10   4  168.08   12.70
   0  10   4  181.28   13.30
   2 -10   4  339.17   16.90
   2 -10   4  334.57   16.40
  -2  10  -4  312.37   12.50
   2  10   4  307.27   17.90
   4 -10   4   13.40   10.00
   4 -10   4   -1.70    6.30
   4  10   4    5.20   10.30
   4  10   4   -3.40    5.10
  -4  10  -4   17.20   10.10
  -6 -10  -4   37.60   13.40
  -6 -10  -4   23.30   15.90
   6 -10   4   36.10   12.00
   6  10   4   41.10    7.60
  -6  10  -4    9.50   12.80
   8 -10   4    5.40   10.20
  -8 -10  -4   28.30   16.70
  -8  10  -4    1.40   14.00
  10 -10   4    5.70   12.50
 -10 -10  -4   12.70   18.00
 -10  10  -4    7.50   16.80
  13 -11  -4  -18.00   16.70
 -13 -11   4  -17.80   19.10
 -13  11   4   -8.40   19.00
 -11 -11   4   33.40   16.10
  11 -11  -4   31.50   16.70
 -11  11   4   40.80   18.20
  -9 -11   4  103.09   16.70
  -9 -11   4  109.29   13.70
  -9  11   4  118.29   18.60
  -7 -11   4  303.07   20.80
  -7 -11   4  299.27   20.50
  -7  11   4  334.07   23.30
  -5 -11   4  386.66   19.10
  -5 -11   4  408.56   20.50
  -5  11   4  403.76   22.20
  -3 -11   4   31.90    9.60
  -3 -11   4   23.70    7.10
  -3  11   4   29.90    9.70
  -1 -11   4  520.45   21.40
  -1 -11   4  458.65   17.60
  -1  11   4  465.65   21.10
   1 -11   4  287.97   16.40
   1 -11   4  243.78   14.70
  -1  11  -4  254.47    8.80
   1  11   4  281.97   17.50
   3 -11   4  309.37   16.30
   3 -11   4  283.77   18.00
   3  11   4  336.57   20.80
  -3  11  -4  338.27   15.50
   5 -11   4  581.14   25.50
   5 -11   4  596.24   19.80
  -5 -11  -4  560.94   30.40
   5  11   4  560.84   17.90
  -5  11  -4  588.94   24.50
   5  11   4  578.34   29.30
  -7 -11  -4  118.09   18.10
   7 -11   4  156.98   17.10
  -7 -11  -4  167.48   17.30
  -7  11  -4  121.59   16.70
  -9 -11  -4    8.90   15.30
   9 -11   4    8.20   12.00
  -9  11  -4    3.00   15.40
  11 -11   4    4.00   14.10
 -11 -11  -4   29.10   21.70
 -11  11  -4  -10.00   17.20
 -12 -12   4   32.50   18.10
  12 -12  -4   -0.10   16.30
 -12  12   4    8.90   18.10
  10 -12  -4   30.60   15.00
 -10 -12   4   47.90   15.60
 -10 -12   4   49.30   12.50
 -10  12   4   94.69   18.90
  -8 -12   4  202.68   16.50
  -8 -12   4  242.88   19.60
  -8  12   4  203.98   20.10
  -6 -12   4   67.09   13.40
  -6 -12   4   63.69   12.90
  -6  12   4   60.89   14.10
  -4 -12   4   91.89   13.10
  -4 -12   4   98.89   11.00
  -4  12   4  104.39   13.60
  -2 -12   4  139.59   13.30
  -2 -12   4  131.09    8.80
  -2 -12   4  132.89   10.30
  -2  12   4  146.59   13.40
   0 -12   4  182.08   12.30
   0 -12   4  169.28   13.50
   0  12   4  189.48   15.20
   2 -12   4  330.67   17.70
   2 -12   4  319.27   17.60
  -2  12  -4  280.27   12.40
   2  12   4  324.57   19.00
   4 -12   4  181.98   16.10
   4 -12   4  177.58   12.40
  -4  12  -4  180.18   14.20
   4  12   4  182.18    9.10
   4  12   4  154.78   18.00
   6 -12   4  104.09   14.80
  -6 -12  -4   75.59   15.10
  -6 -12  -4   82.49   17.30
  -6  12  -4   83.69   13.70
   8 -12   4    2.40   10.30
  -8 -12  -4   -2.70   15.50
  -8  12  -4    3.40   13.50
  10 -12   4   67.39   15.90
 -10 -12  -4   45.70   20.20
 -10  12  -4   62.39   19.20
 -11 -13   4   37.40   16.70
  11 -13  -4  -14.50   15.00
 -11  13   4   18.20   16.80
  -9 -13   4   25.30   11.80
   9 -13  -4   22.10   15.30
  -9 -13   4   67.69   15.00
  -9  13   4   53.49   15.90
  -7 -13   4   28.90   13.30
  -7 -13   4    4.70   10.80
  -7  13   4   -7.10   12.00
  -5 -13   4   42.30   11.60
  -5 -13   4   33.80   11.80
  -5  13   4   13.40   11.20
  -3 -13   4  132.79   14.00
  -3 -13   4  137.29   10.30
  -3  13   4  131.79   14.30
  -1 -13   4  269.37   14.00
  -1 -13   4  267.67    9.70
  -1 -13   4  222.88   16.20
  -1  13   4  277.07   18.20
   1 -13   4  120.19   11.20
   1 -13   4  120.69   12.60
  -1  13  -4  107.69    7.40
   1  13   4   95.29   13.30
   3 -13   4   85.39   12.30
   3 -13   4   66.99   10.60
  -3  13  -4   86.19    9.90
   3  13   4   88.59   14.60
   5 -13   4   92.89   14.10
   5 -13   4   72.69    9.40
  -5 -13  -4   71.59   15.40
  -5  13  -4   64.99   12.60
   5  13   4   58.69   15.00
   7 -13   4  -12.80   10.00
  -7 -13  -4    6.70   14.40
  -7 -13  -4   -0.10   14.60
  -7  13  -4  -11.30   12.40
   9 -13   4    5.70   12.30
  -9 -13  -4    3.30   16.80
  -9  13  -4  -30.00   13.50
 -12 -14   4    3.80   17.70
  12 -14  -4   14.40   15.90
 -12  14   4   -8.80   16.70
 -10 -14   4   98.39   18.40
 -10 -14   4  115.89   15.60
  10 -14  -4  138.29   21.10
 -10  14   4  131.99   20.60
   8 -14  -4  223.98   21.50
  -8 -14   4  245.48   20.10
  -8 -14   4  258.57   19.10
  -8  14   4  243.88   21.80
  -6 -14   4   81.79   13.70
  -6 -14   4   87.89   13.60
  -6  14   4  104.99   16.10
  -4 -14   4   68.59   10.60
  -4 -14   4   80.69   12.90
  -4  14   4   89.69   13.90
  -2 -14   4  105.59   10.10
  -2 -14   4  124.29   14.00
  -2 -14   4   96.69    8.60
  -2  14   4  113.49   13.90
   0 -14   4  181.78   14.80
   0 -14   4  200.98   13.40
   0  14   4  173.98   16.20
   0  14  -4  199.88    8.30
   2 -14   4  232.88   16.20
   2 -14   4  191.38   15.30
  -2  14  -4  209.98   11.00
   2  14   4  205.18   18.30
   4 -14   4  145.99   12.60
   4 -14   4  161.28   16.20
  -4  14  -4  130.09   12.80
   4  14   4  158.58   18.40
   6 -14   4   41.00   11.80
  -6 -14  -4   21.70   15.00
  -6 -14  -4   48.40   15.10
  -6  14  -4   38.50   11.90
  -8 -14  -4    8.10   15.60
   8 -14   4   16.10   12.40
  -8  14  -4    0.40   13.10
  10 -14   4   21.50   14.50
 -10 -14  -4   42.90   20.40
 -10  14  -4   11.60   17.10
 -11 -15   4  -19.90   13.80
  11 -15  -4   -1.40   15.80
 -11  15   4   -8.90   15.10
  -9 -15   4  119.39   17.70
  -9 -15   4  117.59   15.00
   9 -15  -4  103.09   17.50
  -9  15   4  101.09   18.50
  -7 -15   4   37.60   12.40
  -7 -15   4   34.30   12.30
  -7  15   4   62.29   14.50
  -5 -15   4  180.88   15.60
  -5 -15   4  172.88   17.30
  -5  15   4  212.18   19.10
  -3 -15   4   72.99   13.20
  -3 -15   4   31.30    9.00
  -3  15   4   57.29   11.60
  -1 -15   4   18.10    7.40
  -1 -15   4   39.60   11.70
   1  15  -4   19.30    5.40
  -1  15   4   24.90   10.80
   1 -15   4  152.98   13.30
   1 -15   4  142.49   14.20
   1  15   4  172.88   17.10
  -1  15  -4  155.78    9.40
   3 -15   4   71.69   12.30
   3 -15   4  111.59   13.60
  -3  15  -4   83.79    9.80
   3  15   4   75.49   13.90
   5 -15   4   95.99   13.80
  -5 -15  -4  113.89   17.50
   5 -15   4  100.69   11.10
  -5  15  -4   84.29   12.40
   5  15   4  104.19   16.90
   7 -15   4   -9.50   10.00
  -7 -15  -4    1.20   14.00
  -7 -15  -4   14.90   15.30
  -7  15  -4   -1.50   12.40
   9 -15   4    6.30   11.90
  -9 -15  -4   18.30   16.20
  12 -16  -4  -13.60   16.80
 -12 -16   4   20.50   17.00
 -12  16   4   -0.80   17.40
 -10 -16   4   37.20   15.00
 -10 -16   4   28.70   12.80
  10 -16  -4   31.10   16.30
 -10  16   4   36.20   15.80
  -8 -16   4   51.49   13.60
  -8 -16   4   52.59   14.30
   8 -16  -4   67.39   15.50
  -8  16   4   61.69   15.30
  -6 -16   4  285.37   20.90
  -6 -16   4  329.27   19.50
  -6  16   4  325.17   22.60
  -4 -16   4   49.00   10.60
  -4 -16   4   43.10   12.40
  -4  16   4   48.70   13.10
  -2 -16   4   12.70   12.10
  -2 -16   4   46.00    8.00
  -2 -16   4   28.80    8.00
  -2  16   4   16.00   10.80
   0 -16   4   15.80   11.50
   0 -16   4   22.00    8.50
   0  16  -4   26.20    5.70
   0  16   4   17.50   11.10
   2 -16   4  322.97   20.40
   2 -16   4  298.37   18.50
  -2  16  -4  304.57   13.50
   2  16   4  314.27   22.30
   4 -16   4  213.98   17.90
  -4 -16  -4  179.48   20.40
   4 -16   4  193.88   15.20
  -4  16  -4  204.68   14.50
   4  16   4  205.88   20.30
   6 -16   4   49.80   12.50
  -6 -16  -4  102.49   17.80
  -6 -16  -4   67.69   17.30
   6  16   4   75.09   17.20
  -6  16  -4   49.90   12.60
   8 -16   4   28.60   12.50
  -8 -16  -4   25.90   17.10
 -10 -16  -4   79.29   22.80
  10 -16   4   29.40   15.30
 -11 -17   4   23.30   17.00
  11 -17  -4   12.10   16.80
 -11  17   4   21.30   17.00
  -9 -17   4   -7.00   10.90
   9 -17  -4   13.50   15.10
  -9 -17   4    1.10   13.70
  -9  17   4   18.80   14.90
   7 -17  -4    6.90   13.20
  -7 -17   4   30.00   12.70
  -7 -17   4   48.30   13.20
  -7  17   4   28.80   13.10
  -5 -17   4   92.79   13.10
  -5 -17   4   98.29   15.40
  -5  17   4  102.69   15.90
  -3 -17   4  182.78   13.60
  -3 -17   4  176.78   17.90
  -3  17   4  147.09   16.50
  -1 -17   4  271.37   15.40
  -1 -17   4  232.68   18.50
  -1  17   4  300.17   21.10
   1  17  -4  259.57   12.00
   1 -17   4   10.90    9.40
   1 -17   4   23.30   10.80
   1  17   4   47.70   13.20
   3 -17   4   35.80   10.90
   3 -17   4   29.10   10.70
   3  17   4   57.09   14.20
   5 -17   4   52.99   10.40
   5 -17   4   52.89   12.50
  -5 -17  -4   41.40   16.70
   5  17   4   32.60   13.10
  -7 -17  -4   -4.00   14.90
   7 -17   4   -0.60   11.20
  -7 -17  -4  -31.50   14.70
  -9 -17  -4    4.60   18.00
   9 -17   4    4.70   13.30
 -10 -18   4   12.30   12.40
 -10 -18   4   60.89   16.80
  10 -18  -4    3.10   15.30
 -10  18   4   17.20   15.50
  -8 -18   4   95.29   15.90
  -8 -18   4   71.09   15.50
   8 -18  -4   82.09   17.10
  -8  18   4   90.09   16.90
   6 -18  -4   98.29   15.50
  -6 -18   4   91.79   13.20
  -6 -18   4   93.89   15.80
  -6  18   4   88.19   15.50
  -4 -18   4  388.96   19.10
  -4 -18   4  405.46   24.30
  -4  18   4  419.96   24.70
  -2 -18   4  144.89   16.40
  -2 -18   4  127.89   11.40
  -2 -18   4  172.58   12.30
  -2  18   4  110.79   14.80
   0 -18   4  183.38   13.80
   0 -18   4  149.09   16.80
   0  18   4  145.49   17.10
   2 -18   4   35.40   10.70
   2 -18   4   35.80   11.90
   2  18   4   34.30   12.90
  -4 -18  -4   62.69   16.90
   4 -18   4   69.29   12.80
   4 -18   4   47.00   11.50
   4  18   4   58.99   14.80
   6 -18   4    9.80   11.80
  -6 -18  -4   35.60   17.00
  -6 -18  -4   15.60   16.50
   6  18   4    7.90   14.40
  -8 -18  -4   -7.20   15.70
   8 -18   4   21.70   13.30
 -11 -19   4   16.00   15.60
  11 -19  -4   18.80   17.20
 -11  19   4    3.40   16.50
  -9 -19   4   30.70   14.90
  -9 -19   4   31.50   13.80
   9 -19  -4    6.70   14.50
  -9  19   4    0.60   13.30
   7 -19  -4   82.09   16.10
  -7 -19   4   83.09   14.50
  -7 -19   4   80.89   15.80
  -7  19   4   86.59   16.10
  -5 -19   4  136.99   13.90
  -5 -19   4  129.89   16.90
   5 -19  -4  128.99   15.50
  -5  19   4  119.99   15.80
  -3 -19   4  568.94   21.60
   3 -19  -4  596.14   23.90
  -3 -19   4  554.94   27.90
  -3  19   4  533.85   27.40
   1 -19  -4  163.78   12.70
  -1 -19   4  137.59   17.50
  -1 -19   4  137.89   12.30
  -1  19   4  184.78   18.50
   1 -19   4   32.80   12.80
   1 -19   4   59.59   10.80
   1  19   4   50.89   13.60
   3 -19   4  178.38   15.90
   3 -19   4  135.79   15.00
  -3 -19  -4  172.18   21.10
   3  19   4  132.49   17.60
  -5 -19  -4   19.90   16.40
   5 -19   4   29.80   12.10
   5 -19   4    5.10   10.10
   5  19   4   -1.50   13.30
   7 -19   4   31.30   13.30
  -7 -19  -4   21.40   17.40
  -7 -19  -4   50.49   17.50
  -9 -19  -4   38.10   20.20
   9 -19   4   29.30   15.00
 -10 -20   4   30.70   15.30
 -10 -20   4   32.30   14.80
  10 -20  -4   36.00   17.40
 -10  20   4    1.90   16.20
  -8 -20   4   47.20   14.10
   8 -20  -4   38.00   14.50
   8 -20  -4   43.40   15.60
  -8 -20   4   54.09   15.00
  -8  20   4   30.50   14.90
  -6 -20   4   10.20   11.00
   6 -20  -4  -28.30   11.00
  -6 -20   4   11.60   13.20
  -6  20   4    4.90   11.80
  -4 -20   4   53.69   14.50
   4 -20  -4   57.69   12.10
  -4 -20   4   78.29   11.40
  -4  20   4   78.59   14.30
   2 -20  -4  197.78   14.60
  -2 -20   4  182.08   18.30
  -2 -20   4  220.18   13.70
  -2  20   4  229.38   19.90
   0 -20   4   10.10    8.30
   0 -20   4   11.60   12.40
   0  20   4   20.50   12.00
  -2 -20  -4   68.59   17.80
   2 -20   4   80.59   12.00
   2 -20   4   62.49   13.20
   2  20   4   57.19   13.90
  -4 -20  -4   56.29   18.20
   4 -20   4   70.09   13.50
   4 -20   4   35.30   11.30
   4  20   4   68.69   15.60
  -6 -20  -4   58.99   17.90
   6 -20   4   44.80   12.90
  -6 -20  -4   66.69   19.20
   6  20   4   39.60   15.00
   8 -20   4    9.80   13.50
  -8 -20  -4   40.50   19.10
   9 -21  -4   10.70   15.30
  -9 -21   4   42.60   15.20
  -9 -21   4   19.40   14.10
  -9  21   4   20.80   14.90
  -7 -21   4   23.70   12.30
   7 -21  -4   -1.60   12.60
   7 -21  -4  -30.80   11.10
  -7 -21   4  -18.80   12.50
  -7  21   4   17.00   13.60
  -5 -21   4   98.79   16.60
   5 -21  -4  109.69   14.90
  -5  21   4   71.79   14.20
  -3 -21   4  200.98   19.60
   3 -21  -4  183.28   15.70
  -3  21   4  186.48   17.90
  -1 -21   4  101.09   15.90
  -1 -21   4  110.89   11.20
  -1  21   4  109.39   15.90
   1 -21   4  188.28   15.30
  -1 -21  -4  245.88   23.30
   1 -21   4  236.28   19.50
   1  21   4  260.07   21.60
  -3 -21  -4    0.60   16.50
   3 -21   4   22.80   10.80
   3 -21   4   -5.60   10.00
   3  21   4   16.60   12.90
   5 -21   4   71.39   14.50
  -5 -21  -4   44.70   19.80
   5  21   4   64.59   16.90
  -7 -21  -4   54.49   19.20
   7 -21   4   70.79   15.70
  -7 -21  -4   80.29   20.00
 -10 -22   4   37.30   17.00
 -10 -22   4  -26.10   12.60
  10 -22  -4   -3.50   15.70
 -10  22   4  -19.10   14.40
  -8 -22   4   -2.50   13.40
   8 -22  -4   39.70   14.80
  -8  22   4    8.90   13.40
   6 -22  -4  -17.80   13.50
   6 -22  -4  -10.60   11.30
  -6 -22   4    1.40   12.20
  -6  22   4   23.80   13.60
  -4 -22   4    4.30   12.30
   4 -22  -4    6.60   10.60
  -4  22   4   30.20   12.80
  -2 -22   4   67.69    9.30
  -2 -22   4   53.59   13.80
  -2  22   4   74.09   13.70
   0 -22   4  144.09   12.90
   0 -22   4  124.39   16.90
   0 -22  -4  168.18   21.20
   0  22   4  134.19   17.10
   2 -22   4   34.90   10.60
   2 -22   4   27.60   12.10
  -2 -22  -4   25.50   16.90
   2  22   4    9.30   12.50
   4 -22   4  -14.20   10.50
   4 -22   4   -4.30    9.80
  -4 -22  -4  -10.40   17.00
   4  22   4    4.40   12.50
  -6 -22  -4  -13.10   14.90
   6 -22   4   -5.00   10.10
  -6 -22  -4   -8.00   16.60
   6  22   4  -31.20   13.30
  -8 -22  -4   57.49   21.00
   8 -22   4   29.70   14.70
  -8 -22  -4  -16.90   17.20
  -9 -23   4   35.80   16.90
   9 -23  -4   33.30   15.80
  -9  23   4   41.30   17.10
   7 -23  -4   55.39   15.60
  -7 -23   4   50.59   16.00
   7 -23  -4   41.10   17.10
  -7  23   4   56.09   16.00
   5 -23  -4   26.20   15.00
  -5 -23   4    2.20   13.90
   5 -23  -4    8.70   10.90
  -5  23   4   19.80   12.80
   3 -23  -4  139.29   13.90
   3 -23  -4  145.49   19.70
  -3 -23   4  120.09   17.30
  -3  23   4  150.78   18.30
  -1 -23   4   64.79   15.20
  -1 -23   4   57.39    9.30
   1 -23  -4   62.99   17.50
  -1  23   4   80.99   15.10
   1 -23   4   35.50   10.20
  -1 -23  -4   27.70   15.80
   1 -23   4   39.50   13.50
   1  23   4   30.30   13.40
   3 -23   4   17.90   10.50
   3 -23   4   14.80   11.30
  -3 -23  -4    7.50   16.60
   3  23   4   21.70   13.70
   5 -23   4   -4.30   10.10
  -5 -23  -4  -10.00   17.90
   5  23   4    2.20   14.30
   7 -23   4   22.30   14.20
  -7 -23  -4   17.40   19.90
  -7 -23  -4   39.10   18.80
  -8 -24   4   13.70   15.00
   8 -24  -4   -6.30   13.50
  -8  24   4   55.39   17.10
   6 -24  -4   24.10   12.50
  -6 -24   4   29.30   15.30
   6 -24  -4   35.40   16.30
  -6  24   4   15.10   13.30
   4 -24  -4  130.49   15.40
   4 -24  -4  100.39   19.00
  -4 -24   4  131.69   19.30
  -4  24   4  133.89   18.10
  -2 -24   4   19.40   14.20
   2 -24  -4   24.00   16.60
  -2  24   4   18.10   12.60
   0 -24   4   52.19   14.80
   0 -24  -4   29.50   16.30
   0 -24   4   46.50    9.80
   0  24   4   24.80   12.90
   2 -24   4   14.00   10.10
  -2 -24  -4   19.00   18.70
   2 -24   4   19.50   12.30
   2  24   4    8.00   13.00
  -4 -24  -4  -24.80   17.60
   4 -24   4   -6.70   11.10
   4 -24   4   13.70   11.20
   4  24   4    3.40   13.00
   6 -24   4   44.00   14.40
  -6 -24  -4   32.10   17.80
  -6 -24  -4   31.20   20.20
   6  24   4   70.59   19.10
   7 -25  -4   -3.20   12.20
   7 -25  -4   23.90   17.50
  -7 -25   4   -2.40   15.20
  -7  25   4    4.20   13.70
  -5 -25   4   68.29   16.20
   5 -25  -4   85.89   14.20
   5 -25  -4   75.49   18.30
  -5  25   4   85.19   16.70
  -3 -25   4   75.89   16.10
   3 -25  -4   90.59   19.30
  -3  25   4   77.39   16.00
  -1 -25   4   61.89   16.10
   1 -25  -4   70.19   17.90
  -1  25   4   46.20   14.20
   1 -25   4   11.90   13.10
   1 -25   4   20.00    9.50
  -1 -25  -4   34.90   18.70
   1  25   4   16.40   12.50
   3 -25   4   23.70   12.40
   3 -25   4   35.60   12.00
  -3 -25  -4   44.50   20.20
   3  25   4   42.60   14.60
   5 -25   4    7.40   11.50
  -5 -25  -4   -1.60   19.20
   5  25   4   -4.30   14.80
  -8 -26   4    8.30   16.10
   8 -26  -4   -3.80   13.30
  -8  26   4   -7.50   14.30
   6 -26  -4   24.20   16.60
   6 -26  -4   -6.00   10.80
  -6 -26   4    7.90   13.90
  -6  26   4   28.30   15.00
   4 -26  -4   44.20   16.30
  -4 -26   4   51.59   16.90
  -4  26   4   52.39   14.90
   2 -26  -4   36.90   16.60
  -2 -26   4   12.10   13.30
  -2  26   4   27.20   13.40
   0 -26  -4    5.60   16.00
   0 -26   4   -4.20   12.90
   0  26   4  -14.10   11.50
  -2 -26  -4   33.20   18.20
   2 -26   4   -7.40   11.60
   2 -26   4   20.10   10.30
   2  26   4   30.30   14.50
  -4 -26  -4    4.40   20.20
   4 -26   4    6.40   11.80
   4 -26   4    6.20   13.00
   4  26   4   50.19   16.20
   6 -26   4  -11.80   12.50
  -6 -26  -4   29.30   17.80
  -6 -26  -4   16.80   20.70
   6  26   4  -27.90   15.30
   7 -27  -4   40.70   19.10
  -7 -27   4    4.30   16.60
   7 -27  -4  -24.90   12.60
  -7  27   4    4.30   13.80
  -5 -27   4   -6.20   14.60
   5 -27  -4   -2.30   16.30
  -5  27   4   24.20   14.00
  -3 -27   4   22.50   15.10
   3 -27  -4    4.10   16.80
  -3  27   4   17.10   13.30
   1 -27  -4   41.40   18.70
  -1 -27   4   21.10   14.40
  -1  27   4   49.00   14.40
  -1 -27  -4   38.60   19.80
   1 -27   4  -13.70   11.80
   1  27   4   31.40   13.50
   3 -27   4   30.40   13.80
   3 -27   4    7.70   10.70
  -3 -27  -4   10.50   20.10
   3  27   4   19.80   13.40
  -5 -27  -4   -3.00   20.50
   5 -27   4    9.20   12.10
   5  27   4    4.70   16.00
   6 -28  -4    1.50   18.10
  -6 -28   4    1.80   16.50
  -6  28   4    9.10   14.50
   4 -28  -4   56.79   19.40
  -4 -28   4   39.60   16.70
  -4  28   4   77.59   17.20
  -2 -28   4  -11.40   13.80
   2 -28  -4   -5.80   16.40
  -2  28   4    4.10   12.50
   0 -28   4   34.00   14.80
   0 -28  -4    3.70   16.70
   0  28   4   23.60   13.60
   2 -28   4   -7.30   12.60
   2 -28   4    8.60    9.70
  -2 -28  -4    5.50   19.90
   2  28   4   16.10   14.50
  -4 -28  -4    7.50   21.30
   4 -28   4   32.80   13.00
   4 -28   4   20.10   13.60
   4  28   4   21.00   15.50
   5 -29  -4   -1.30   18.20
  -5 -29   4   -8.90   15.70
  -5  29   4   35.20   16.30
   3 -29  -4   41.00   18.40
  -3 -29   4   60.39   17.10
  -3  29   4   38.10   14.90
   1 -29  -4   15.80   18.60
  -1 -29   4    5.80   14.10
  -1  29   4   16.40   13.60
   1 -29   4   -7.60   14.40
  -1 -29  -4    9.30   18.80
   1  29   4  -10.10   12.00
  -3 -29  -4   30.50   22.20
   3 -29   4  -16.60   12.60
   3 -29   4   33.70   12.80
   3  29   4   31.10   16.10
   4 -30  -4  -10.10   18.70
  -4 -30   4   23.60   16.70
  -4  30   4   -0.30   13.90
   2 -30  -4   31.30   20.20
  -2 -30   4   34.00   16.80
  -2  30   4   57.79   16.20
   0 -30  -4   -3.90   19.90
   0 -30   4   -8.00   14.00
   0  30   4    6.00   13.50
   2 -30   4   21.70   15.10
  -2 -30  -4   78.59   24.30
   2  30   4   61.19   16.40
  -3  31   4  -12.50   12.90
   1 -31  -4   59.09   22.70
  -1 -31   4    8.70   15.60
  -1  31   4   45.90   16.20
   1  31   4   14.50   15.10
 -12   0   5   -6.90   16.40
 -10   0   5    6.00   14.50
  -8   0   5  -10.50   13.10
  -8   0   5   -3.60    7.60
  -6   0   5    4.90    7.00
  -6   0   5   -9.70    9.90
  -4   0   5    2.00    7.20
  -4   0   5    5.10    5.60
  -2   0   5   -1.00    5.30
  -2   0   5    6.60    5.70
   0   0   5   -3.80    4.70
   0   0   5   -4.50    5.10
   0   0   5   -0.10    5.90
   2   0   5   -1.50    6.60
   2   0   5   -0.30    6.10
   2   0   5    4.40    5.30
  -4   0  -5  -10.10   10.00
   4   0   5    2.10    5.50
   4   0   5   -4.20    7.30
   6   0   5   -3.20    8.60
  -6   0  -5  -21.60   13.30
   8   0   5  -12.10    8.60
  -8   0  -5   -8.30   15.00
  10   0   5  -16.00    9.80
 -10   0  -5   -5.90   16.00
 -13  -1   5   23.30   18.90
  13  -1  -5  -33.10   13.90
 -13   1   5  -12.80   17.60
  13   1  -5   -7.10   14.80
 -11  -1   5    1.30   16.20
 -11   1   5   24.20   17.20
  -9  -1   5   68.79   10.20
  -9  -1   5   93.39   17.00
  -9   1   5   46.00   16.20
  -9   1   5   98.79   10.50
  -7  -1   5   89.49   14.40
  -7  -1   5   62.09   10.00
  -7   1   5   75.19    9.70
  -7   1   5   62.09   14.00
  -5  -1   5   27.20    9.30
  -5  -1   5   35.80    7.80
  -5   1   5   37.20    9.90
  -5   1   5   42.40    7.80
  -3  -1   5   76.59    8.30
  -3  -1   5  102.39    9.00
  -3   1   5   98.19    9.40
  -3   1   5   76.29    9.10
  -1  -1   5  251.57   10.80
  -1  -1   5  260.77   12.40
  -1  -1   5  265.87   13.60
  -1   1   5  238.08   11.80
   1  -1   5   39.70    6.70
   1  -1   5   67.69    8.50
   1  -1   5   59.59    7.20
   1   1   5   60.79    7.60
   1   1   5   61.89    8.10
   1   1   5   65.69    7.90
   3  -1   5   11.40    5.50
  -3  -1  -5   18.30    9.50
   3  -1   5    6.60    7.30
   3   1   5   24.30    7.40
   3   1   5   16.20    5.90
  -3   1  -5   15.30    9.00
   5  -1   5   47.60    6.90
  -5  -1  -5   38.10   14.20
   5  -1   5   68.69   11.20
   5   1   5   57.69   10.70
  -5   1  -5   48.10   14.10
  -7  -1  -5  343.67   23.80
   7  -1   5  306.47   19.20
  -7   1  -5  318.57   24.20
   7   1   5  308.17   18.30
  -9  -1  -5   27.60   17.60
   9  -1   5   24.40   11.20
  -9   1  -5    4.70   15.60
   9   1   5   21.30   11.00
  11  -1   5   22.30   12.90
 -11  -1  -5   13.20   18.70
  11   1   5   15.20   12.40
 -11   1  -5   21.60   18.90
 -12  -2   5   41.90   18.30
 -12   2   5   31.30   18.20
 -10  -2   5   80.19   17.60
 -10  -2   5   83.29   10.80
 -10   2   5   62.79   17.30
  -8  -2   5   79.39   16.30
  -8  -2   5   81.29   10.70
  -8   2   5   78.49   16.00
  -8   2   5   73.09    9.90
  -6  -2   5   73.69   12.60
  -6  -2   5   35.90    8.40
  -6   2   5   40.10    7.90
  -6   2   5   51.59   12.30
  -4  -2   5  151.48   11.40
  -4  -2   5  162.08   12.00
  -4   2   5  145.39   12.20
  -4   2   5  163.88   12.30
  -2  -2   5  844.12   24.80
  -2  -2   5  883.31   23.30
  -2   2   5  847.52   25.20
   0  -2   5   22.70    6.40
   0  -2   5   31.30    5.50
   0  -2   5   27.30    5.80
   0   2   5   40.30    6.70
   0   2   5   31.60    6.70
   0   2   5   16.00    6.30
   2  -2   5   97.39    8.40
   2  -2   5   80.59    9.40
   2   2   5   90.39    8.60
  -2   2  -5  100.19   10.10
   2   2   5   99.69    9.30
   2   2   5  110.69   11.00
   4  -2   5  170.48   10.40
   4  -2   5  181.78   14.20
  -4  -2  -5  172.28   16.30
  -4   2  -5  168.88   15.10
   4   2   5  186.58   11.90
   4   2   5  172.68   12.80
   6  -2   5  331.17   19.40
  -6  -2  -5  265.47   22.30
   6   2   5  307.87   17.40
  -6   2  -5  301.67   23.80
  -8  -2  -5   41.60   16.60
   8  -2   5   27.60   11.20
   8   2   5   31.80   10.80
  -8   2  -5   20.20   14.80
 -10  -2  -5   22.50   18.00
  10  -2   5    3.10   10.80
  10   2   5   19.00   11.30
 -10   2  -5   -7.40   15.90
 -13  -3   5   30.30   20.20
  13  -3  -5   36.50   17.70
 -13   3   5   35.90   19.60
 -11  -3   5   41.50   17.20
 -11   3   5   31.90   16.90
  -9  -3   5  202.28   20.50
  -9  -3   5  238.88   16.70
  -9   3   5  263.47   14.40
  -9   3   5  265.27   22.60
  -7  -3   5   34.60   13.90
  -7  -3   5   18.00    8.90
  -7   3   5   25.60    7.90
  -7   3   5   17.50   12.80
  -5  -3   5   33.20    7.90
  -5  -3   5   32.60    9.90
  -5   3   5    3.60    9.20
  -5   3   5   21.80    7.00
  -3  -3   5  784.62   22.50
  -3  -3   5  777.42   24.50
  -3   3   5  766.92   25.30
  -3   3   5  766.72   23.50
  -1  -3   5  392.26   16.30
  -1  -3   5  375.26   12.30
  -1  -3   5  390.86   15.60
  -1   3   5  375.66   15.50
  -1   3   5  427.16   15.90
   1  -3   5  173.68   12.40
   1  -3   5  143.59   10.60
   1   3   5  167.38   10.80
   1   3   5  165.48   11.30
   1   3   5  155.18   11.80
  -1   3  -5  140.69    9.80
   3  -3   5  294.37   16.10
   3  -3   5  281.77   12.90
   3   3   5  264.97   16.90
   3   3   5  267.97   13.30
  -3   3  -5  314.37   16.40
   3   3   5  272.77   13.90
   5  -3   5   18.60    5.80
   5  -3   5   11.00    9.10
  -5  -3  -5   43.60   14.60
  -5   3  -5   12.80   12.90
   5   3   5   26.20    8.90
   7  -3   5   49.60   11.50
  -7  -3  -5   40.30   15.00
  -7   3  -5   37.40   15.10
   7   3   5   30.50    9.70
  -9  -3  -5   41.80   17.90
   9  -3   5   16.90   11.10
   9   3   5   28.40   10.90
  -9   3  -5   35.20   17.00
 -11  -3  -5   16.90   19.10
  11  -3   5   12.60   12.70
 -11   3  -5   15.10   20.50
 -12  -4   5   17.70   16.70
 -12   4   5   44.30   18.20
 -10  -4   5   27.40   15.40
 -10  -4   5   10.40    8.80
 -10   4   5   -2.50   14.50
  -8  -4   5  293.47   22.40
  -8  -4   5  298.07   18.90
  -8   4   5  294.57   15.60
  -8   4   5  247.68   22.10
  -6  -4   5  115.79   13.60
  -6  -4   5  114.49   11.60
  -6   4   5  118.99   14.90
  -6   4   5   96.19   10.00
  -4  -4   5  532.55   20.40
  -4  -4   5  540.25   18.80
  -4   4   5  528.65   19.60
  -4   4   5  505.15   20.90
  -2  -4   5 1431.56   33.00
  -2  -4   5 1359.06   36.00
  -2   4   5 1411.66   37.80
  -2   4   5 1402.36   36.60
   0  -4   5   22.50    6.50
   0  -4   5   23.30    4.50
   0  -4   5   17.50    6.40
   0   4   5   14.20    5.90
   0   4   5   30.10    7.40
   2  -4   5  116.79   11.20
   2  -4   5  154.88   11.00
   2   4   5  152.78   11.00
   2   4   5  150.38   12.50
   2   4   5  142.59   10.20
  -2   4  -5  152.68   11.00
  -4  -4  -5  231.18   18.50
   4  -4   5  206.38   15.60
   4  -4   5  216.28   11.80
  -4   4  -5  242.38   17.20
   4   4   5  218.78   13.20
  -6  -4  -5   56.69   16.90
   6  -4   5   65.99   12.60
  -6   4  -5   43.20   15.30
   6   4   5   63.19   10.70
   8  -4   5  116.89   15.50
  -8  -4  -5   93.49   19.60
   8   4   5  102.29   13.10
  -8   4  -5   74.39   16.80
  10  -4   5    9.90   11.60
 -10  -4  -5   10.10   17.50
  10   4   5    4.80   10.10
 -10   4  -5   23.50   17.90
  13  -5  -5   -3.80   16.00
 -13  -5   5  -24.20   18.30
 -13   5   5   -6.90   17.40
 -11  -5   5  211.58   23.80
 -11   5   5  257.57   25.60
  -9  -5   5   69.89   11.20
  -9  -5   5   64.39   16.00
  -9   5   5   45.20   15.50
  -9   5   5   68.09    9.10
  -7  -5   5  408.06   21.10
  -7  -5   5  361.26   23.60
  -7   5   5  363.06   22.10
  -7   5   5  371.46   17.50
  -5  -5   5  120.29   10.90
  -5  -5   5  125.09   12.80
  -5   5   5  115.39   10.50
  -5   5   5  125.99   13.50
  -3  -5   5  208.38   12.90
  -3  -5   5  215.38   11.20
  -3   5   5  203.78   13.10
  -3   5   5  183.38   13.50
  -1  -5   5  525.75   13.40
  -1  -5   5  545.15   19.40
  -1  -5   5  537.35   19.70
  -1   5   5  514.25   20.10
  -1   5   5  568.54   19.80
   1  -5   5  145.59   11.80
   1  -5   5  157.08   11.90
  -1   5  -5  167.88    9.20
   1   5   5  168.48   10.60
   1   5   5  173.78   13.00
   1   5   5  168.58   11.90
   3  -5   5   46.00    6.70
   3  -5   5   34.60    9.00
   3   5   5   30.40    7.90
   3   5   5   39.80    7.60
  -3   5  -5   24.60    9.10
   3   5   5   31.30   10.40
   5  -5   5  257.57   17.00
  -5  -5  -5  256.37   21.30
   5  -5   5  274.67   12.80
   5   5   5  233.88   14.80
  -5   5  -5  248.28   19.00
  -7  -5  -5  253.97   22.60
   7  -5   5  241.48   19.40
  -7   5  -5  216.88   19.90
   7   5   5  212.58   15.50
  -9  -5  -5    9.80   16.00
   9  -5   5    7.50   11.40
   9   5   5   15.90    9.80
  -9   5  -5    0.90   14.70
  11  -5   5   52.49   15.80
 -11  -5  -5   40.00   21.30
 -11   5  -5   66.49   21.60
 -12  -6   5   79.89   20.60
  12  -6  -5   94.49   19.30
 -12   6   5   72.29   20.00
 -10  -6   5  161.88   14.50
 -10  -6   5  134.99   19.70
 -10   6   5  125.39   20.00
  -8  -6   5   52.79   11.30
  -8  -6   5   69.19   16.20
  -8   6   5   42.60    8.80
  -8   6   5   60.89   16.00
  -6  -6   5  107.59   12.20
  -6  -6   5  100.39   14.20
  -6   6   5   95.19   10.20
  -6   6   5  109.69   13.90
  -4  -6   5   57.29    8.80
  -4  -6   5   43.90    8.80
  -4   6   5   49.80    8.10
  -4   6   5   45.20    9.90
  -2  -6   5   80.19    6.10
  -2  -6   5   67.89    8.70
  -2  -6   5   98.59    9.60
  -2   6   5   70.29    8.50
  -2   6   5   90.09   10.30
   0  -6   5  140.19   11.20
   0  -6   5  118.49    9.80
   0   6   5  106.99    9.80
   0   6   5  116.09   11.20
   2  -6   5  154.18   12.60
   2  -6   5  158.68   10.90
   2   6   5  156.48   10.70
   2   6   5  173.88   12.40
   2   6   5  169.78   14.00
  -2   6  -5  131.19    9.60
   4  -6   5   78.69   12.00
  -4  -6  -5   51.29   14.10
   4  -6   5   77.99    7.90
   4   6   5   57.19    8.70
  -4   6  -5   74.19   11.80
   4   6   5   94.79   14.30
   6  -6   5  196.08   17.60
  -6  -6  -5  186.48   20.40
  -6   6  -5  228.18   18.70
   6   6   5  214.18   14.20
   8  -6   5   -4.00   10.70
  -8  -6  -5   19.10   16.00
   8   6   5   12.70    9.20
  -8   6  -5   -0.90   14.00
 -10  -6  -5   31.40   18.70
  10  -6   5   19.30   13.00
 -10   6  -5   22.80   18.80
 -13  -7   5  -10.60   18.70
  13  -7  -5  -24.30   16.10
 -13   7   5   -0.70   18.20
 -11  -7   5   58.79   17.70
 -11   7   5   40.90   17.60
  -9  -7   5  164.28   19.20
  -9  -7   5  176.48   15.20
  -9   7   5  143.49   19.50
  -9   7   5  181.28   13.50
  -7  -7   5   15.70   13.50
  -7  -7   5   45.00   10.70
  -7   7   5   33.70    8.40
  -7   7   5   56.19   14.70
  -5  -7   5    1.20    9.90
  -5  -7   5    3.10    8.30
  -5   7   5   -3.50    6.70
  -5   7   5   11.90   10.10
  -3  -7   5  -12.00    6.00
  -3  -7   5   -1.50    5.40
  -3   7   5    0.40    6.30
  -3   7   5   -2.20    7.70
  -1  -7   5   35.80    7.40
  -1  -7   5   59.09    8.00
  -1   7   5   57.39    8.60
  -1   7   5   54.49    9.30
   1  -7   5  129.49   11.20
   1  -7   5  128.69   10.10
  -1   7  -5  103.99    7.30
   1   7   5  110.39   11.60
   1   7   5  123.29   10.60
   3  -7   5  162.88   13.70
   3  -7   5  142.29   10.20
   3   7   5  169.78   11.00
  -3   7  -5  154.58   11.90
   3   7   5  193.58   16.20
  -5  -7  -5  173.38   19.50
   5  -7   5  201.38   17.30
   5  -7   5  181.98   11.20
  -5   7  -5  193.88   16.80
   5   7   5  185.88   12.70
   7  -7   5  154.88   17.00
  -7  -7  -5  135.49   19.20
   7   7   5  168.18   13.50
  -7   7  -5  137.99   17.90
   9  -7   5    8.50   11.70
  -9  -7  -5   20.30   17.10
  -9   7  -5   -9.60   15.70
  11  -7   5   15.00   13.20
  12  -8  -5   67.19   18.60
 -12  -8   5   45.50   19.50
 -12   8   5   14.70   17.70
 -10  -8   5   94.19   17.50
 -10  -8   5   90.49   12.90
 -10   8   5   85.29   18.30
  -8  -8   5   62.69   11.50
  -8  -8   5   36.50   14.60
  -8   8   5   63.69   15.70
  -8   8   5   60.39    9.60
  -6  -8   5   36.70   10.30
  -6  -8   5   22.80   12.00
  -6   8   5   23.90    8.00
  -6   8   5   28.40   12.30
  -4  -8   5  316.37   15.00
  -4  -8   5  319.77   16.90
  -4   8   5  275.97   18.00
  -4   8   5  293.77   15.90
  -2  -8   5  517.15   21.50
  -2  -8   5  561.74   19.90
  -2   8   5  539.75   20.30
  -2   8   5  543.85   21.90
   0  -8   5  193.18   13.40
   0  -8   5  197.38   13.80
   0   8   5  192.98   14.60
   0   8   5  210.28   13.20
   2  -8   5   10.70    7.90
   2  -8   5   -4.70    6.10
   2   8   5    1.10    9.20
   2   8   5    6.60    5.80
  -2   8  -5    9.00    6.70
   4  -8   5  102.89   13.20
   4  -8   5  108.39    9.10
  -4   8  -5  115.59   13.00
   4   8   5   90.89    9.80
   4   8   5   97.39   15.20
   6  -8   5   19.90   10.80
  -6  -8  -5   22.90   14.70
   6   8   5   13.90    7.30
  -6   8  -5   -1.60   12.30
   8  -8   5   35.60   12.90
  -8  -8  -5    8.80   16.00
  -8   8  -5   63.99   16.40
 -10  -8  -5   31.60   20.10
  10  -8   5   12.60   12.00
 -10   8  -5   22.90   18.50
  13  -9  -5    5.30   18.00
 -13  -9   5   -9.60   18.70
 -13   9   5   -9.50   18.70
 -11  -9   5   52.49   17.40
 -11   9   5   57.89   19.20
  -9  -9   5   46.30   11.30
  -9  -9   5   30.20   14.10
  -9   9   5   31.90    9.50
  -9   9   5   38.50   15.20
  -7  -9   5   80.09   15.40
  -7  -9   5   90.29   13.00
  -7   9   5   70.89   10.80
  -7   9   5   89.89   15.80
  -5  -9   5   23.50    9.90
  -5  -9   5   32.80   10.80
  -5   9   5    6.80    7.80
  -5   9   5   21.70   11.20
  -3  -9   5  367.16   18.00
  -3  -9   5  375.76   13.70
  -3   9   5  384.46   18.20
  -3   9   5  380.96   19.60
  -1  -9   5  135.09   11.70
  -1  -9   5  138.19   11.20
  -1   9   5  142.09   12.40
  -1   9   5  149.79   13.40
   1  -9   5   50.09    8.70
   1  -9   5   44.10    8.40
   1   9   5   37.90    9.80
   3  -9   5  116.19   10.30
   3  -9   5  133.79   13.70
  -3   9  -5  121.79   11.30
   3   9   5  100.89   14.50
   3   9   5  117.59    9.30
  -5  -9  -5   63.39   15.10
   5  -9   5   57.99   12.00
   5  -9   5   46.50    7.20
   5   9   5   76.99   15.30
  -5   9  -5   53.89   13.50
   5   9   5   52.49    8.40
   7  -9   5   41.70   12.70
  -7  -9  -5   53.49   16.40
  -7   9  -5   32.00   13.90
   9  -9   5   15.40   12.80
  -9  -9  -5   18.00   17.50
  -9   9  -5    9.50   16.20
 -12 -10   5    6.70   16.40
  12 -10  -5    2.70   17.10
 -12  10   5   55.49   19.90
 -10 -10   5   95.89   17.80
 -10 -10   5   91.89   13.80
 -10  10   5   78.89   18.00
  -8 -10   5  136.49   16.50
  -8 -10   5  127.29   13.90
  -8  10   5  122.79   12.20
  -8  10   5  106.99   16.90
  -6 -10   5   31.90   11.00
  -6 -10   5    8.60   11.10
  -6  10   5   34.40    9.30
  -6  10   5   26.00   12.60
  -4 -10   5  410.36   21.30
  -4 -10   5  329.87   16.10
  -4  10   5  308.17   18.60
  -4  10   5  354.16   18.00
  -2 -10   5   44.60    8.60
  -2 -10   5   53.79   10.20
  -2  10   5   66.89   11.00
  -2  10   5   78.79   10.40
   0 -10   5   -3.20    7.70
   0 -10   5   13.70    7.70
   0  10   5   31.30    9.50
   2 -10   5  566.94   21.30
   2 -10   5  530.85   21.40
  -2  10  -5  490.75   15.90
   2  10   5  516.05   25.10
   4 -10   5  388.46   16.60
   4 -10   5  397.16   21.60
  -4  10  -5  373.26   18.80
   4  10   5  378.96   24.30
   4  10   5  365.76   15.00
  -6 -10  -5  206.88   21.90
   6 -10   5  241.48   19.60
  -6  10  -5  243.78   18.70
   8 -10   5   44.40   13.60
  -8 -10  -5   47.70   17.40
  -8  10  -5   19.10   14.70
 -10 -10  -5   47.40   20.80
  10 -10   5   31.60   13.30
 -10  10  -5   13.20   17.80
 -11 -11   5   47.00   17.80
  11 -11  -5   43.30   17.50
 -11  11   5   19.90   16.90
  -9 -11   5   20.70   11.10
  -9 -11   5   36.80   14.70
  -9  11   5   36.30   15.00
  -7 -11   5   17.00   11.00
  -7 -11   5   10.70   12.70
  -7  11   5    0.20   12.30
  -5 -11   5   35.50   10.80
  -5 -11   5   34.10   11.00
  -5  11   5   39.00    9.60
  -5  11   5   47.30   12.70
  -3 -11   5   13.00    9.30
  -3 -11   5   -4.10    6.50
  -3  11   5    4.00    8.00
  -3  11   5    2.60    9.30
  -1 -11   5   38.60    8.40
  -1 -11   5   59.19   10.40
  -1  11   5   56.49   10.50
   1 -11   5  105.99   11.90
   1 -11   5  117.59   11.90
   1  11   5  148.19   15.10
   3 -11   5   10.40    7.60
   3 -11   5   12.00    8.90
  -3  11  -5   -8.50    7.70
   3  11   5   -9.10   10.70
   5 -11   5  127.79   15.00
   5 -11   5  173.98   12.10
  -5 -11  -5  125.29   19.40
  -5  11  -5  160.68   15.20
   5  11   5  126.69   18.30
  -7 -11  -5   -1.00   14.60
   7 -11   5   15.90   11.70
  -7  11  -5   -6.60   12.20
   9 -11   5   48.80   14.90
  -9 -11  -5   44.10   18.40
  -9  11  -5   20.30   16.00
 -12 -12   5  -12.20   16.10
  12 -12  -5   11.20   17.50
 -12  12   5    5.50   17.70
 -10 -12   5   31.90   15.20
 -10 -12   5   61.39   13.10
 -10  12   5   53.49   16.80
  -8 -12   5  114.09   15.90
  -8 -12   5  139.99   15.30
  -8  12   5  107.29   17.10
  -6 -12   5   32.00   11.90
  -6 -12   5   23.10   11.50
  -6  12   5   63.69   14.30
  -4 -12   5  345.67   19.70
  -4 -12   5  310.77   15.70
  -4  12   5  298.37   19.10
  -2 -12   5  113.29   13.20
  -2 -12   5  113.09   11.20
  -2  12   5  108.09   13.00
   0 -12   5  662.33   24.40
   0 -12   5  677.53   23.90
   0  12   5  686.73   27.90
   2 -12   5   33.20    9.50
   2 -12   5   63.99   11.40
   2  12   5   49.40   13.00
  -2  12  -5   38.40    6.30
   4 -12   5   26.10    8.80
   4 -12   5    9.90   10.50
  -4  12  -5   30.20   10.20
   4  12   5   13.70   11.90
  -6 -12  -5   10.50   12.20
  -6 -12  -5    3.40   14.30
   6 -12   5    6.90   10.50
  -6  12  -5  -16.20   10.40
  -8 -12  -5  -21.10   15.40
   8 -12   5  -10.60   11.10
  -8  12  -5  -10.30   14.10
  10 -12   5   -8.60   13.00
 -10 -12  -5   15.40   19.60
  11 -13  -5  -15.30   16.50
 -11 -13   5   15.70   16.10
 -11  13   5   -9.10   15.50
  -9 -13   5   25.50   11.90
  -9 -13   5   21.90   13.50
  -9  13   5   27.90   15.00
  -7 -13   5  115.59   14.70
  -7 -13   5  132.99   15.70
  -7  13   5  160.88   18.50
  -5 -13   5  294.27   17.30
  -5 -13   5  303.07   20.00
  -5  13   5  297.97   20.10
  -3 -13   5  234.78   12.40
  -3 -13   5  232.38   17.70
  -3  13   5  251.97   19.40
  -1 -13   5   48.50   10.80
  -1 -13   5   61.29    9.70
  -1  13   5   56.29   11.30
   1 -13   5  114.49   12.40
   1 -13   5  116.69   13.00
   1  13   5  152.78   16.00
   3 -13   5  217.58   17.60
   3 -13   5  224.08   17.00
  -3  13  -5  198.28   12.50
   3  13   5  186.18   18.90
   5 -13   5  618.24   27.70
   5 -13   5  568.74   20.90
   5  13   5  548.05   28.40
  -5  13  -5  541.15   22.90
  -7 -13  -5   77.39   16.00
  -7 -13  -5   50.19   18.10
   7 -13   5   68.19   14.00
  -9 -13  -5   18.30   18.00
   9 -13   5   16.60   13.40
 -12 -14   5   -3.20   17.40
  12 -14  -5  -10.20   17.00
 -12  14   5   18.50   17.30
  10 -14  -5  -26.30   13.20
 -10 -14   5    6.00   14.20
 -10 -14   5   10.90   11.60
 -10  14   5   23.90   15.60
  -8 -14   5  132.49   15.50
  -8 -14   5   95.89   15.60
  -8  14   5  137.49   18.20
  -6 -14   5   38.90   12.40
  -6 -14   5   27.40   11.80
  -6  14   5   33.20   12.00
  -4 -14   5  169.18   13.40
  -4 -14   5  140.79   15.40
  -4  14   5  173.88   17.70
  -2 -14   5  256.37   16.30
  -2 -14   5  242.78   18.30
  -2  14   5  282.17   19.50
   0 -14   5   28.00   10.20
   0 -14   5   14.70    8.80
   0  14   5   29.50   10.50
   2 -14   5   95.89   13.10
   2 -14   5  116.29   12.80
   2  14   5  107.69   15.90
   4 -14   5   42.00    9.40
   4 -14   5   35.10   11.40
   4  14   5   54.59   14.80
  -6 -14  -5   29.90   14.00
  -6 -14  -5   12.20   13.90
   6 -14   5   15.90   11.60
   8 -14   5    6.70   12.00
  -8 -14  -5    2.00   16.30
 -11 -15   5   19.00   12.00
 -11 -15   5   27.40   16.80
  11 -15  -5    4.40   16.80
 -11  15   5   30.00   17.00
  -9 -15   5   29.80   14.00
  -9 -15   5   16.20   12.30
   9 -15  -5   12.80   14.40
  -9  15   5   17.70   14.60
  -7 -15   5   48.30   12.60
  -7 -15   5   53.99   12.60
  -7  15   5   55.99   13.40
  -5 -15   5  109.09   15.60
  -5 -15   5   87.39   12.30
  -5  15   5   73.59   13.70
  -3 -15   5   19.30    7.80
  -3 -15   5    8.40   10.80
  -3  15   5    4.40    9.80
  -1 -15   5  299.27   17.00
  -1 -15   5  340.27   22.40
  -1  15   5  325.57   21.40
   1 -15   5  598.24   22.90
   1 -15   5  610.04   26.00
   1  15   5  497.15   27.30
   3 -15   5   38.10   11.80
   3 -15   5   66.89   11.60
   3  15   5   61.49   14.10
   5 -15   5   32.90   12.10
  -5 -15  -5   54.19   14.50
   5  15   5   42.60   14.90
  -7 -15  -5   92.69   18.20
  -7 -15  -5   66.19   18.80
   7 -15   5   97.79   16.70
  -9 -15  -5   11.40   18.70
   9 -15   5   19.30   14.10
 -10 -16   5   -1.30   14.10
 -10 -16   5   -1.00   11.20
  10 -16  -5   41.40   15.80
 -10  16   5   -3.30   14.20
  -8 -16   5    2.30   11.40
  -8 -16   5    1.80   12.10
  -8  16   5   22.90   13.80
  -6 -16   5   -9.60   11.00
  -6 -16   5   34.50   11.20
  -6  16   5   -7.10   11.10
  -4 -16   5   31.00   12.90
  -4 -16   5    6.70    9.40
  -4  16   5   18.00   11.10
  -2 -16   5  174.28   13.80
  -2 -16   5  196.98   18.00
  -2  16   5  181.38   17.70
   0 -16   5  116.59   12.50
   0 -16   5  109.29   14.80
   0  16   5  119.89   15.00
   2 -16   5   17.10   10.30
   2 -16   5   30.00   11.30
   2  16   5   10.70   11.30
   4 -16   5   32.60   11.50
   4 -16   5   18.00    9.30
   4  16   5   33.10   13.40
   6 -16   5    6.20   11.70
  -6 -16  -5  -22.90   13.50
  -6 -16  -5   32.20   16.30
   6  16   5   22.40   15.00
   8 -16   5   33.00   14.40
  -8 -16  -5   39.30   18.70
 -11 -17   5    1.30   16.10
 -11 -17   5   14.30   13.90
  11 -17  -5   13.70   17.90
 -11  17   5   -3.10   15.50
   9 -17  -5   62.99   18.30
  -9 -17   5   99.59   15.80
  -9 -17   5   65.59   15.60
  -9  17   5   94.89   18.00
  -7 -17   5   82.09   13.90
  -7 -17   5   75.39   14.40
  -7  17   5   47.10   14.70
  -5 -17   5   47.50   13.60
  -5 -17   5   49.90   10.80
  -5  17   5   50.39   13.70
  -3 -17   5    4.30   11.30
  -3  17   5    8.20   11.80
  -1 -17   5  232.58   18.70
  -1 -17   5  296.17   16.70
  -1  17   5  264.97   21.40
   1 -17   5  135.79   13.70
   1 -17   5  133.79   15.50
   1  17   5  125.29   16.60
   3 -17   5   65.19   11.70
   3 -17   5   54.59   12.30
   3  17   5   62.19   13.40
  -5 -17  -5   47.60   16.50
   5 -17   5   38.30   12.80
   5  17   5   33.90   15.00
   7 -17   5   49.30   14.90
  -7 -17  -5   62.19   18.50
  -7 -17  -5   37.30   16.60
  -9 -17  -5   86.89   23.10
   9 -17   5   45.80   16.60
  10 -18  -5   -2.10   16.10
 -10 -18   5    9.60   14.80
 -10 -18   5   -2.20   11.90
 -10  18   5   12.20   15.50
  -8 -18   5   55.09   14.20
  -8 -18   5  103.29   16.20
   8 -18  -5   87.39   17.90
  -8  18   5   70.39   16.30
  -6 -18   5   10.00   11.10
  -6 -18   5   27.00   11.20
  -6  18   5    8.20   12.30
  -4 -18   5   18.50   11.60
  -4  18   5   33.90   11.70
  -2 -18   5   93.19   11.20
  -2 -18   5  105.39   14.90
  -2  18   5   70.79   14.40
   0 -18   5  233.18   15.70
   0 -18   5  219.48   18.40
   0  18   5  198.08   19.20
   2 -18   5  501.75   24.70
   2 -18   5  570.24   24.10
   2  18   5  484.95   27.50
   4 -18   5   13.30   10.00
   4 -18   5   31.10   11.90
  -4 -18  -5   52.69   16.30
   4  18   5   48.60   15.20
  -6 -18  -5  -10.30   14.90
  -6 -18  -5   32.80   16.10
   6 -18   5   13.30   11.30
   6  18   5   -0.60   14.10
  -8 -18  -5   39.70   19.30
   8 -18   5   63.89   16.30
  11 -19  -5    7.80   17.90
 -11 -19   5   31.50   17.50
 -11 -19   5  -28.80   13.00
 -11  19   5  -25.70   14.80
   9 -19  -5   23.90   15.90
  -9 -19   5    8.30   12.40
  -9 -19   5  -26.70   11.80
  -9  19   5   14.40   14.50
   7 -19  -5   57.69   15.60
  -7 -19   5   45.00   14.70
  -7  19   5   52.59   14.90
  -5 -19   5   15.40   12.40
  -5  19   5    0.90   11.20
  -3 -19   5  135.89   16.10
  -3  19   5  126.09   16.70
  -1 -19   5   59.39   10.00
  -1 -19   5   30.20   11.90
  -1  19   5   48.60   13.60
   1 -19   5  153.18   16.00
   1 -19   5  167.38   14.50
   1  19   5  109.39   16.30
   3 -19   5  185.58   16.30
   3 -19   5  204.38   17.90
   3  19   5  202.38   20.60
   5 -19   5   27.50   12.60
  -5 -19  -5   33.20   16.70
   5  19   5   24.70   15.10
  -7 -19  -5   -4.10   15.90
   7 -19   5   24.80   13.60
  -7 -19  -5   15.00   16.90
  10 -20  -5   20.40   17.50
 -10 -20   5   32.90   15.10
 -10  20   5    7.50   15.70
  -8 -20   5   17.60   13.20
   8 -20  -5   13.70   14.80
  -8  20   5   30.30   15.00
  -6 -20   5   12.70   13.30
   6 -20  -5    5.10   12.80
  -6  20   5   13.20   13.00
  -4 -20   5  147.09   17.70
  -4  20   5  182.68   18.70
  -2 -20   5  103.49   15.90
  -2 -20   5  101.09   11.30
  -2  20   5   96.89   15.50
   0 -20   5  114.59   12.70
   0 -20   5  114.29   14.80
   0  20   5  124.69   16.90
   2 -20   5   79.59   14.10
   2 -20   5   64.79   12.10
   2  20   5   86.69   16.10
  -4 -20  -5   37.20   17.80
   4 -20   5  -12.30    9.50
   4 -20   5    9.70   10.80
   4  20   5   10.00   13.10
  -6 -20  -5   15.20   17.80
   6 -20   5  -11.30   10.90
  -6 -20  -5    9.10   15.90
   6  20   5   17.70   16.00
   8 -20   5   35.90   15.40
  -8 -20  -5   18.10   18.60
  -9 -21   5   66.79   15.70
   9 -21  -5   82.59   18.30
  -9  21   5   85.19   18.80
  -7 -21   5    5.80   13.50
   7 -21  -5    6.40   13.50
  -7  21   5   41.80   15.00
  -5 -21   5   35.70   14.30
   5 -21  -5   22.90   13.10
  -5  21   5   38.80   13.90
  -3 -21   5   24.80   12.60
   3 -21  -5   35.90   11.20
  -3  21   5   32.30   12.90
  -1 -21   5  124.99   16.60
  -1 -21   5  149.59   12.90
  -1  21   5  140.59   17.90
   1 -21   5   15.60   11.50
   1 -21   5   24.60    9.50
   1  21   5   32.50   12.20
   3 -21   5   12.90   10.60
   3 -21   5   -0.60   10.60
  -3 -21  -5   -0.50   16.80
   3  21   5   -2.00   12.30
  -5 -21  -5   27.60   17.40
   5 -21   5    4.30   11.30
   5  21   5    2.50   12.80
  -7 -21  -5   56.19   19.80
   7 -21   5    8.00   13.30
  -7 -21  -5   35.10   17.10
  -8 -22   5  -13.20   12.90
   8 -22  -5    7.80   14.30
  -8  22   5   25.40   14.90
  -6 -22   5  115.89   18.50
   6 -22  -5  183.68   18.80
  -6  22   5  159.68   20.10
   4 -22  -5   64.89   13.40
  -4 -22   5   61.09   15.40
  -4  22   5   65.89   15.30
  -2 -22   5   24.50    9.10
  -2 -22   5   42.40   13.90
  -2  22   5   15.00   12.40
   0 -22   5  168.78   17.80
   0 -22   5  167.88   14.60
   0  22   5  174.98   20.00
   2 -22   5   -2.70   11.00
   2 -22   5   -0.10    9.20
  -2 -22  -5    1.40   16.20
   2  22   5    6.80   13.30
   4 -22   5   21.50   12.30
  -4 -22  -5   30.30   18.00
   4 -22   5   24.10   11.70
  -6 -22  -5   66.39   21.60
   6 -22   5  121.29   18.00
  -6 -22  -5   74.09   18.50
   6  22   5   88.49   19.80
   9 -23  -5  -15.90   15.20
  -9 -23   5    4.50   14.10
  -9  23   5    8.00   15.00
  -7 -23   5    3.50   14.30
   7 -23  -5   46.00   15.10
  -7  23   5   15.50   13.90
   5 -23  -5   11.10   12.60
  -5 -23   5   25.30   13.40
  -5  23   5   20.80   13.30
  -3 -23   5   -1.10   12.90
  -3  23   5   11.30   11.50
  -1 -23   5   67.49   10.40
  -1 -23   5   56.99   14.90
  -1  23   5   55.39   14.50
   1 -23   5   -3.50   11.60
  -1 -23  -5   14.30   14.80
   1 -23   5   20.10    9.30
   1  23   5   20.30   13.30
   3 -23   5   12.40   10.60
  -3 -23  -5    8.20   18.10
   3 -23   5   16.70   12.70
   3  23   5   19.90   13.70
  -5 -23  -5   -8.50   17.40
   5 -23   5   -4.00   11.30
   5  23   5   -2.20   13.90
   7 -23   5    8.40   13.40
  -7 -23  -5   21.10   19.00
  -7 -23  -5   18.40   20.90
   8 -24  -5   17.40   14.80
  -8 -24   5   13.60   15.40
  -8  24   5   11.90   15.30
  -6 -24   5   87.89   17.80
   6 -24  -5   52.19   15.10
  -6  24   5  105.29   18.00
  -4 -24   5    9.50   14.00
  -4  24   5   15.50   13.10
  -2 -24   5   61.19   15.40
  -2  24   5   66.39   15.70
   0 -24   5   43.40   14.10
   0 -24  -5   74.19   17.70
   0 -24   5   61.49   11.30
   0  24   5   72.69   15.90
   2 -24   5   -6.90    9.00
   2 -24   5   -7.30   10.70
  -2 -24  -5    6.60   16.40
   2  24   5   -5.30   12.80
   4 -24   5   21.70   12.60
  -4 -24  -5    9.00   19.30
   4 -24   5   45.10   13.10
   4  24   5   29.60   15.10
   6 -24   5    9.40   12.90
  -6 -24  -5    6.20   19.50
  -6 -24  -5   40.90   18.90
   6  24   5    9.40   17.30
   7 -25  -5  -20.40   12.80
   7 -25  -5   15.60   16.30
  -7 -25   5  -29.40   13.50
  -7  25   5    8.10   14.90
  -5 -25   5   -8.50   13.30
   5 -25  -5   30.60   15.80
  -5  25   5   -2.90   12.60
   3 -25  -5   39.00   16.30
  -3 -25   5   45.10   15.10
  -3  25   5   28.80   14.10
  -1 -25   5   -3.40   12.70
   1 -25  -5   15.40   15.20
  -1  25   5   -7.80   11.60
   1 -25   5   16.10    9.20
   1 -25   5   -1.90   12.00
  -1 -25  -5    9.80   18.00
   1  25   5  -12.60   11.60
   3 -25   5   -3.80   11.50
  -3 -25  -5    1.80   18.40
   3 -25   5    4.80   11.20
   3  25   5    2.10   13.70
   5 -25   5  -20.10   10.90
  -5 -25  -5   10.00   20.30
   5  25   5    4.30   15.30
   6 -26  -5   47.40   14.80
  -6 -26   5   43.50   16.80
   6 -26  -5   59.39   18.50
  -6  26   5   49.10   16.20
   4 -26  -5   49.60   17.50
  -4 -26   5   10.90   14.40
  -4  26   5   23.40   13.70
  -2 -26   5   55.29   15.70
   2 -26  -5   51.29   17.20
  -2  26   5   25.30   13.60
   0 -26  -5   50.59   19.70
   0 -26   5   42.90   10.30
   0 -26   5   40.30   14.60
   0  26   5   36.70   14.60
  -2 -26  -5   55.39   20.70
   2 -26   5  -10.90    9.30
   2 -26   5    9.70   12.40
   2  26   5   15.40   13.80
   4 -26   5   66.99   15.30
  -4 -26  -5   83.89   23.70
   4  26   5   58.09   17.80
   7 -27  -5   60.89   20.90
   7 -27  -5   59.99   16.20
  -7 -27   5   35.80   17.90
  -7  27   5   84.09   18.00
  -5 -27   5   -4.50   13.20
   5 -27  -5   40.10   18.20
  -5  27   5    5.00   13.50
   3 -27  -5   -2.90   16.40
  -3 -27   5   -7.90   12.40
  -3  27   5   14.60   13.50
  -1 -27   5   25.40   14.30
   1 -27  -5   10.70   18.10
  -1  27   5   16.40   13.30
   1 -27   5   -0.70   12.60
  -1 -27  -5  -12.50   17.80
   1 -27   5   14.40    9.80
   1  27   5   25.40   14.00
   3 -27   5   30.40   11.80
   3 -27   5   10.00   13.70
  -3 -27  -5   70.69   22.90
   3  27   5   43.80   16.50
   6 -28  -5   10.10   17.80
  -6 -28   5  -14.70   15.10
  -6  28   5    2.40   14.40
   4 -28  -5    5.30   15.70
  -4 -28   5   27.20   16.00
  -4  28   5   23.20   14.90
   2 -28  -5   65.19   20.00
  -2 -28   5   16.40   14.90
  -2  28   5   58.49   16.50
   0 -28  -5   15.20   18.90
   0 -28   5    2.80   13.50
   0  28   5   22.30   14.20
  -2 -28  -5   -1.50   20.50
   2 -28   5    0.50   10.30
   2 -28   5  -20.70   12.00
   2  28   5    1.70   13.70
   5 -29  -5   30.00   19.00
  -5 -29   5    5.90   16.00
  -5  29   5    2.90   14.80
   3 -29  -5    6.90   17.80
  -3 -29   5    9.50   15.20
  -3  29   5   25.50   14.80
   1 -29  -5  126.99   23.60
  -1 -29   5   57.19   16.90
  -1  29   5  129.89   20.00
   1 -29   5  -19.60   12.90
  -1 -29  -5   18.20   19.40
   1  29   5   15.40   14.90
   2 -30  -5   39.10   20.60
  -2 -30   5   39.40   16.40
  -2  30   5   33.90   15.60
   0 -30   5    3.20   14.60
   0 -30  -5   21.00   21.10
   0  30   5   18.90   15.30
 -12   0   6   49.30   18.60
 -10   0   6  155.58   13.60
 -10   0   6  166.48   20.50
  -8   0   6  701.73   32.20
  -8   0   6  775.62   27.70
  -6   0   6   40.20    9.50
  -6   0   6   44.80   12.80
  -4   0   6  720.53   24.30
  -4   0   6  680.63   23.70
  -2   0   6  211.48   12.00
  -2   0   6  195.88   12.80
   0   0   6  250.27   13.10
   0   0   6  239.68   12.00
   0   0   6  271.77   14.80
   2   0   6  127.69   11.60
   2   0   6  115.49   10.00
   2   0   6  120.59   11.50
   4   0   6    3.00    6.60
  -4   0  -6    2.30   11.00
   4   0   6    4.50    8.00
   6   0   6  307.47   18.60
  -6   0  -6  302.67   22.90
  -8   0  -6    5.00   14.80
   8   0   6   -2.60    9.60
  10   0   6   45.00   13.40
 -10   0  -6    0.30   17.80
 -13  -1   6    6.60   18.70
 -13   1   6   13.20   18.30
 -11  -1   6   -4.20   15.20
 -11   1   6   -0.60   14.90
  -9  -1   6  168.58   14.20
  -9  -1   6  178.08   19.20
  -9   1   6  149.88   18.30
  -9   1   6  144.39   13.30
  -7  -1   6   86.29   11.30
  -7  -1   6   80.79   14.30
  -7   1   6   98.09   11.50
  -7   1   6   77.99   14.70
  -5  -1   6   84.99   11.90
  -5  -1   6   67.69   10.10
  -5   1   6   56.19    9.40
  -5   1   6   63.19   11.10
  -3  -1   6 1722.43   44.30
  -3  -1   6 1764.42   43.20
  -3   1   6 1652.93   43.50
  -3   1   6 1752.42   44.40
  -1  -1   6  112.89   10.00
  -1  -1   6  125.89   10.90
  -1  -1   6  125.79    9.20
  -1   1   6  123.39    9.70
  -1   1   6  118.19   10.30
   1  -1   6   21.70    7.10
   1  -1   6    9.30    6.10
   1  -1   6   24.60    6.80
   1   1   6   17.10    6.80
   1   1   6   11.90    7.20
   1   1   6   16.10    7.10
  -3  -1  -6   98.99   13.30
   3  -1   6  101.59   11.30
   3  -1   6   95.39    9.40
   3   1   6   98.29   11.00
  -3   1  -6   88.19   13.00
   3   1   6  104.39    9.80
  -5  -1  -6   14.70   13.10
   5  -1   6    4.20    9.10
   5  -1   6   23.50    6.80
   5   1   6   14.70    9.10
   5   1   6    5.30    7.00
  -5   1  -6   23.20   13.80
  -7  -1  -6   96.39   17.40
   7  -1   6   72.09   12.80
   7   1   6   82.99   12.40
  -7   1  -6   62.89   15.50
  -9  -1  -6   35.70   17.50
   9  -1   6   19.40   11.00
   9   1   6    6.80   10.90
  -9   1  -6   42.10   17.60
 -12  -2   6   30.30   17.80
 -12   2   6   17.90   16.90
 -10  -2   6   71.39   17.40
 -10  -2   6   83.29   11.80
 -10   2   6  102.39   18.20
 -10   2   6   69.89   10.50
  -8  -2   6   87.69   12.60
  -8  -2   6   80.09   16.00
  -8   2   6   90.39   11.30
  -8   2   6   90.99   16.60
  -6  -2   6  258.17   17.90
  -6  -2   6  217.98   16.70
  -6   2   6  235.88   18.50
  -6   2   6  271.57   16.50
  -4  -2   6  713.83   24.40
  -4  -2   6  727.13   23.60
  -4   2   6  716.93   24.60
  -4   2   6  728.53   25.30
  -2  -2   6 1584.74   38.30
  -2  -2   6 1572.74   40.80
  -2   2   6 1580.34   40.90
   0  -2   6  113.29    8.60
   0  -2   6  107.99   10.70
   0  -2   6   86.69    9.40
   0   2   6  111.29   10.50
   0   2   6  112.19   10.10
   0   2   6  112.09   10.30
   2  -2   6    2.10    5.70
   2  -2   6   12.30    7.90
   2   2   6   -4.60    6.60
   2   2   6    0.90    6.30
  -2   2  -6   -1.80    8.30
   2   2   6   16.40    8.30
   4  -2   6   47.50    7.60
  -4  -2  -6   28.00   13.30
   4  -2   6   52.49   10.80
   4   2   6   49.90    8.80
  -4   2  -6   49.10   12.60
   4   2   6   60.99    9.90
  -6  -2  -6  266.67   21.50
   6  -2   6  268.97   19.50
  -6   2  -6  208.28   19.70
   6   2   6  264.77   17.30
   8  -2   6   24.60   11.40
  -8  -2  -6   30.90   15.90
  -8   2  -6   23.50   16.00
   8   2   6   32.80   10.70
 -10  -2  -6   35.90   18.30
  10  -2   6   14.50   12.00
  10   2   6   -0.90   10.60
 -10   2  -6  -12.20   15.90
 -13  -3   6    0.90   18.40
 -13   3   6  -30.90   16.60
 -11  -3   6    6.00   15.40
 -11   3   6   27.90   16.20
  -9  -3   6   76.59   15.70
  -9  -3   6   78.59   11.60
  -9   3   6   92.09   11.00
  -9   3   6   84.59   16.50
  -7  -3   6  300.07   19.80
  -7  -3   6  316.17   22.30
  -7   3   6  307.97   22.00
  -7   3   6  311.57   17.90
  -5  -3   6   41.10    9.20
  -5  -3   6   40.60   10.30
  -5   3   6   20.80   10.70
  -5   3   6   37.30    8.10
  -3  -3   6  163.58   10.80
  -3  -3   6  171.58   12.80
  -3   3   6  195.88   12.60
  -3   3   6  161.88   12.90
  -1  -3   6   22.60    7.30
  -1  -3   6   26.50    7.40
  -1  -3   6   26.90    5.00
  -1   3   6   33.00    7.80
  -1   3   6   16.20    7.10
   1  -3   6   41.10    7.00
   1  -3   6   45.60    8.30
   1  -3   6   40.90    7.40
   1   3   6   52.39    9.50
   1   3   6   44.60    8.30
  -1   3  -6   44.50    7.70
   1   3   6   51.89    8.40
   3  -3   6  121.59   12.60
   3  -3   6   95.99    9.40
  -3   3  -6  104.19   12.50
   3   3   6  125.59   13.60
   3   3   6  103.99   10.90
   3   3   6  123.49   10.80
   5  -3   6   16.50   10.00
  -5  -3  -6   19.60   14.60
   5  -3   6   16.50    6.20
   5   3   6   20.30    8.40
  -5   3  -6  -11.30   12.60
   7  -3   6   68.79   12.50
  -7  -3  -6   84.59   16.80
   7   3   6   73.89   11.70
  -7   3  -6  103.59   17.10
  -9  -3  -6   -2.80   15.90
   9  -3   6  -11.40   10.00
  -9   3  -6   28.10   17.10
   9   3   6    8.50   10.20
 -12  -4   6   24.60   17.60
 -12   4   6   31.10   17.80
 -10  -4   6  132.69   19.20
 -10  -4   6  113.89   13.40
 -10   4   6  114.29   19.10
 -10   4   6  115.89   11.90
  -8  -4   6  110.29   17.20
  -8  -4   6  104.49   12.60
  -8   4   6  100.19   17.10
  -8   4   6  104.19   11.30
  -6  -4   6  111.99   12.80
  -6  -4   6  119.09   14.20
  -6   4   6   92.79   14.30
  -6   4   6   91.39   11.10
  -4  -4   6  248.98   15.20
  -4  -4   6  267.17   14.30
  -4   4   6  274.27   16.60
  -4   4   6  275.87   15.10
  -2  -4   6   93.59    7.00
  -2  -4   6   91.09   10.20
  -2   4   6  101.59   10.20
  -2   4   6   81.29    9.50
   0  -4   6   29.60    7.00
   0  -4   6   29.20    5.50
   0  -4   6   43.60    8.50
   0   4   6   24.60    7.60
   0   4   6   17.50    7.40
   2  -4   6  188.48   14.20
   2  -4   6  191.78   13.60
   2   4   6  175.98   13.00
   2   4   6  173.98   14.50
  -2   4  -6  184.78   13.10
   2   4   6  190.98   12.70
   4  -4   6  281.77   14.30
   4  -4   6  264.67   18.30
  -4  -4  -6  252.77   20.40
   4   4   6  262.17   14.90
  -4   4  -6  267.37   19.20
   4   4   6  261.17   15.30
  -6  -4  -6    7.60   13.70
   6  -4   6   -8.30    9.10
   6   4   6   26.00    8.70
  -6   4  -6   13.40   11.90
  -8  -4  -6  152.08   20.80
   8  -4   6  135.59   16.40
   8   4   6  150.48   14.80
  -8   4  -6  137.69   19.60
 -10  -4  -6   34.20   18.90
  10  -4   6   10.00   12.00
 -10   4  -6    6.20   18.10
 -13  -5   6   10.10   18.80
 -13   5   6   -9.70   18.00
 -11  -5   6   39.10   16.50
 -11   5   6   17.00   16.10
  -9  -5   6   81.39   16.00
  -9   5   6   94.39   10.80
  -9   5   6   81.79   16.90
  -7  -5   6   75.39   12.20
  -7  -5   6   88.19   15.10
  -7   5   6  106.19   15.80
  -7   5   6   77.89   10.90
  -5  -5   6   57.19   10.70
  -5  -5   6   47.40   10.00
  -5   5   6   35.00    9.00
  -5   5   6   78.79   12.50
  -3  -5   6    7.20    5.90
  -3  -5   6   17.80    7.30
  -3   5   6   25.50    8.40
  -3   5   6   15.10    7.90
  -1  -5   6  362.96   11.20
  -1  -5   6  363.96   16.50
  -1  -5   6  374.56   17.00
  -1   5   6  382.96   17.00
  -1   5   6  352.16   17.60
   1  -5   6  124.29   11.90
   1  -5   6  114.99   10.20
  -1   5  -6  130.89    9.00
   1   5   6  115.29   12.50
   1   5   6  131.59   10.80
   1   5   6  117.29   11.20
   3  -5   6   50.19   10.70
   3  -5   6   41.40    7.80
   3   5   6   19.60   11.00
  -3   5  -6   40.60   10.70
   3   5   6   45.90    8.40
   3   5   6   57.49    9.20
   5  -5   6   36.80    7.00
  -5  -5  -6   35.20   15.60
   5  -5   6   69.19   12.90
   5   5   6   32.10    8.90
  -5   5  -6   46.90   13.40
  -7  -5  -6   12.20   14.60
   7  -5   6    7.30   10.50
   7   5   6   19.00    8.90
  -7   5  -6   27.60   14.30
   9  -5   6   74.89   14.90
  -9  -5  -6   65.79   19.10
  -9   5  -6   81.49   18.30
 -12  -6   6   -1.90   16.00
 -12   6   6   -7.60   16.50
 -10  -6   6    7.90    9.00
 -10  -6   6   -8.60   13.40
 -10   6   6   21.70   15.70
  -8  -6   6    5.50    9.50
  -8  -6   6   15.80   12.60
  -8   6   6    5.70    7.60
  -8   6   6  -15.20   12.40
  -6  -6   6   59.19   11.30
  -6  -6   6   63.19   12.60
  -6   6   6   52.59   13.00
  -6   6   6   52.19    9.80
  -4  -6   6  107.59   10.30
  -4  -6   6  119.09   12.40
  -4   6   6  136.39   12.40
  -4   6   6  121.69   13.10
  -2  -6   6   59.09    9.00
  -2  -6   6   58.39    9.50
  -2  -6   6   57.79    5.10
  -2   6   6   51.89    8.60
  -2   6   6   49.00    9.20
   0  -6   6   -1.70    6.60
   0  -6   6   -3.70    7.10
   0   6   6   -1.80    6.20
   0   6   6    6.00    7.50
   2  -6   6    1.30    6.40
   2  -6   6    5.00    8.00
   2   6   6    7.10    7.80
   2   6   6   13.70    7.00
   2   6   6   -9.40    8.80
  -2   6  -6    0.00    7.60
   4  -6   6   19.40   10.40
  -4  -6  -6   21.30   13.90
   4  -6   6   27.40    7.30
   4   6   6   37.10   12.90
  -4   6  -6   22.70   11.60
   4   6   6   28.30    8.60
  -6  -6  -6    7.30   12.70
   6  -6   6   -3.60    9.60
   6   6   6   -1.20    6.70
  -6   6  -6    7.70   12.50
   8  -6   6    7.90   10.80
  -8  -6  -6   12.40   15.90
  -8   6  -6  -11.70   14.10
   8   6   6    2.10    8.60
 -10  -6  -6   15.00   18.50
  10  -6   6    6.60   12.50
 -10   6  -6  -10.20   18.10
  13  -7  -6    7.40   16.60
 -13  -7   6   -2.90   17.30
 -13   7   6  -30.60   17.60
 -11  -7   6   43.10   17.00
 -11   7   6   51.19   18.00
  -9  -7   6   36.10   15.10
  -9  -7   6   46.40   11.20
  -9   7   6   21.30   14.50
  -9   7   6   30.90    8.70
  -7  -7   6  174.68   17.10
  -7  -7   6  178.38   16.10
  -7   7   6  163.88   13.90
  -7   7   6  183.08   18.80
  -5  -7   6   10.10    8.40
  -5  -7   6   10.70    9.60
  -5   7   6   -5.60    7.60
  -5   7   6    6.90   10.40
  -3  -7   6  198.18   14.40
  -3  -7   6  201.28   10.00
  -3   7   6  222.28   15.80
  -3   7   6  208.98   15.20
  -1  -7   6   55.29    9.50
  -1  -7   6   48.10    8.70
  -1   7   6   55.79    9.60
  -1   7   6   70.29   10.50
   1  -7   6  157.28   12.20
   1  -7   6  169.58   14.10
   1   7   6  155.48   12.80
   1   7   6  165.78   14.40
  -1   7  -6  182.58    9.20
   3  -7   6  239.08   13.50
   3  -7   6  190.98   15.50
   3   7   6  229.28   18.40
  -3   7  -6  203.88   14.70
   3   7   6  215.48   13.20
   5  -7   6  173.88   11.80
   5  -7   6  126.29   14.70
  -5  -7  -6  159.68   19.20
   5   7   6  161.38   12.60
  -5   7  -6  145.29   15.40
   7  -7   6  153.38   17.40
  -7  -7  -6  187.78   21.70
   7   7   6  146.19   13.60
  -7   7  -6  150.58   18.20
   9  -7   6   15.80   12.30
  -9  -7  -6   62.39   18.30
  -9   7  -6    3.30   16.50
 -12  -8   6    5.40   16.40
 -12   8   6    9.70   17.20
 -10  -8   6   71.69   16.80
 -10  -8   6   61.79   12.70
 -10   8   6   57.89   17.20
  -8  -8   6    9.20    9.80
  -8  -8   6   14.50   13.10
  -8   8   6   14.60    7.80
  -8   8   6    0.80   11.00
  -6  -8   6    3.90    9.80
  -6  -8   6   20.00   11.30
  -6   8   6   22.80   12.30
  -6   8   6    9.60    8.30
  -4  -8   6  208.48   13.00
  -4  -8   6  187.88   14.70
  -4   8   6  204.68   15.40
  -4   8   6  190.78   16.50
  -2  -8   6   22.10    8.30
  -2  -8   6    8.90    7.70
  -2   8   6    0.40    8.20
  -2   8   6    5.70    7.80
   0  -8   6    1.90    7.60
   0  -8   6   14.60    8.40
   0   8   6    8.90    8.60
   0   8   6   23.80    8.90
   2  -8   6  110.49   10.80
   2  -8   6  128.39   13.30
  -2   8  -6  128.69    9.90
   2   8   6  124.79   10.40
   2   8   6  120.39   14.60
   4  -8   6   10.10   10.40
   4  -8   6    5.70    6.90
   4   8   6   -5.30    6.60
  -4   8  -6  -10.00   10.90
   4   8   6   -4.20   12.00
  -6  -8  -6  348.07   25.30
   6  -8   6  370.96   22.90
   6   8   6  330.47   16.50
  -6   8  -6  306.57   21.80
   8  -8   6   25.90   12.60
  -8  -8  -6   39.30   17.00
  -8   8  -6  -13.90   14.00
 -10  -8  -6   -8.40   17.90
  10  -8   6    4.90   12.50
 -13  -9   6   14.20   19.50
  13  -9  -6    2.70   18.60
 -13   9   6   16.60   19.80
 -11  -9   6    2.60   15.60
 -11  -9   6   52.89   12.70
 -11   9   6   28.20   17.00
  -9  -9   6  189.48   19.80
  -9  -9   6  201.78   17.10
  -9   9   6  203.48   15.40
  -9   9   6  194.38   21.10
  -7  -9   6   77.09   14.40
  -7  -9   6   43.90   11.60
  -7   9   6   48.30   10.50
  -7   9   6   63.59   14.60
  -5  -9   6   59.29   10.70
  -5  -9   6   78.39   12.50
  -5   9   6   45.80   10.00
  -5   9   6   58.79   13.00
  -3  -9   6    0.10    5.10
  -3  -9   6    4.50    8.00
  -3   9   6    4.00    9.30
  -3   9   6    0.40    8.10
  -1  -9   6  127.49   12.30
  -1  -9   6  132.19   12.20
  -1   9   6  119.69   12.30
  -1   9   6  114.29   13.30
   1  -9   6  322.27   18.50
   1  -9   6  305.17   17.00
   1   9   6  322.07   18.40
   1   9   6  306.67   19.30
   3  -9   6   21.60    8.10
   3  -9   6   18.00   10.50
  -3   9  -6   22.40    9.30
   3   9   6   24.20   12.00
   3   9   6   16.00    7.50
  -5  -9  -6  337.87   24.20
   5  -9   6  311.17   20.20
  -5   9  -6  266.97   19.00
   5   9   6  322.37   14.90
   5   9   6  311.07   23.50
   7  -9   6    7.60   11.30
  -7  -9  -6   -8.80   15.50
  -7   9  -6    9.80   14.10
   9  -9   6   -7.70   11.50
  -9  -9  -6   18.00   18.00
 -12 -10   6   13.00   17.10
 -12  10   6   -0.40   16.90
 -10 -10   6   46.50   15.60
 -10 -10   6   54.49   13.10
 -10  10   6   59.29   17.40
  -8 -10   6    6.20   12.30
  -8 -10   6    0.50   10.20
  -8  10   6    7.30    8.60
  -8  10   6   -0.70   12.00
  -6 -10   6   -2.30   10.30
  -6 -10   6   -6.20   11.60
  -6  10   6    9.50   11.00
  -6  10   6  -11.90    8.30
  -4 -10   6   59.89    9.10
  -4 -10   6   30.70   10.90
  -4  10   6   45.50   12.30
  -4  10   6   33.50   10.20
  -2 -10   6   53.19   10.30
  -2 -10   6   51.79   10.10
  -2  10   6   45.10   10.50
  -2  10   6   50.79   11.50
   0 -10   6   66.89   10.40
   0 -10   6   75.79   11.10
   0  10   6   73.39   11.50
   0  10   6   73.39   12.30
   2 -10   6   64.49   11.10
   2 -10   6   45.60    9.30
   2  10   6   70.89   13.80
   4 -10   6   38.70    8.40
   4 -10   6   47.50   11.90
   4  10   6   40.40   13.70
   4  10   6   42.20    7.80
  -4  10  -6   29.60   10.80
   6 -10   6   20.10   11.20
  -6 -10  -6   22.10   15.30
   8 -10   6    9.00   12.00
  -8 -10  -6   -2.10   15.90
 -11 -11   6    4.60   11.20
 -11 -11   6   -1.80   15.80
 -11  11   6   17.60   15.80
  -9 -11   6   23.30   14.20
  -9 -11   6   12.20   10.50
  -9  11   6    0.90   14.10
  -7 -11   6   45.10   13.20
  -7 -11   6   55.59   12.00
  -7  11   6   47.60   13.90
  -7  11   6   48.70   10.80
  -5 -11   6  139.69   13.30
  -5 -11   6  166.08   16.10
  -5  11   6  128.39   13.80
  -5  11   6  128.69   16.40
  -3 -11   6  103.79   13.50
  -3  11   6   86.69   12.60
  -3  11   6  101.69   12.10
  -1 -11   6  247.08   16.60
  -1 -11   6  292.17   19.40
  -1  11   6  257.17   18.90
  -1  11   6  289.27   18.30
   1 -11   6   61.09   10.90
   1 -11   6   76.59   11.60
   1  11   6   67.79   12.60
   3 -11   6   12.40    8.40
   3 -11   6   -0.30   10.00
   3  11   6   -8.00   11.30
  -5 -11  -6  396.26   26.80
   5 -11   6  410.86   23.80
   5  11   6  388.66   25.90
   7 -11   6   23.40   12.50
  -7 -11  -6   53.09   17.40
  -9 -11  -6   45.40   19.70
   9 -11   6   34.50   14.30
 -12 -12   6   -5.80   16.30
  12 -12  -6   12.50   18.30
 -12  12   6   -2.20   16.90
 -10 -12   6  117.59   18.20
 -10 -12   6   97.99   14.50
 -10  12   6   79.59   18.00
  -8 -12   6  318.07   22.10
  -8 -12   6  401.06   23.30
  -8  12   6  397.06   25.60
  -6 -12   6  135.69   14.60
  -6 -12   6  134.79   15.20
  -6  12   6  141.09   14.10
  -6  12   6  166.88   18.10
  -4 -12   6  103.79   10.10
  -4 -12   6  102.29   13.40
  -4  12   6   75.39   12.20
  -4  12   6   99.09   14.80
  -2 -12   6   50.59   11.10
  -2 -12   6   47.80   10.00
  -2  12   6   39.70   11.80
   0 -12   6  189.08   15.70
   0 -12   6  190.98   15.10
   0  12   6  174.28   16.20
   2 -12   6  522.15   23.40
   2 -12   6  536.45   24.30
   2  12   6  526.85   27.40
   4 -12   6  236.18   15.20
   4 -12   6  277.77   20.10
   4  12   6  254.27   22.30
   6 -12   6  123.29   16.50
  -6 -12  -6  123.79   19.90
   8 -12   6   47.00   14.40
  -8 -12  -6   45.70   18.40
 -11 -13   6   41.00   17.00
 -11 -13   6   28.90   12.50
 -11  13   6   29.00   17.70
  -9 -13   6   32.20   14.70
  -9 -13   6   11.20   11.20
  -9  13   6   24.70   15.00
  -7 -13   6   23.40   12.50
  -7 -13   6   46.20   12.20
  -7  13   6   45.00   13.20
  -5 -13   6   38.60   10.50
  -5 -13   6   29.60   12.60
  -5  13   6   28.20   13.00
  -3 -13   6   15.20   11.10
  -3  13   6   36.30   12.00
  -1 -13   6  138.19   14.30
  -1 -13   6  121.49   12.60
  -1  13   6  101.79   14.70
   1 -13   6   67.69   11.90
   1 -13   6   64.59   11.70
   1  13   6   77.99   13.90
   3 -13   6   88.29   11.60
   3 -13   6   79.79   13.40
   3  13   6   88.69   15.70
   5 -13   6  133.09   16.60
   5  13   6  157.18   19.60
   7 -13   6    0.30   10.30
  -7 -13  -6   12.40   16.20
   9 -13   6   26.00   14.20
  -9 -13  -6   11.80   18.80
 -12 -14   6   -0.70   17.30
  12 -14  -6   36.00   18.50
 -12  14   6   15.60   18.60
 -10 -14   6   57.39   14.10
 -10 -14   6   74.29   17.50
 -10  14   6   64.89   17.70
  -8 -14   6  123.79   16.20
  -8 -14   6  103.09   15.90
  -8  14   6  113.59   17.80
  -6 -14   6   -6.00   10.70
  -6 -14   6   -0.30    9.60
  -6  14   6   15.00   12.20
  -4 -14   6   44.20   12.00
  -4  14   6   53.59   14.00
  -2 -14   6  114.79   12.80
  -2 -14   6  115.99   15.10
  -2  14   6  120.69   15.40
   0 -14   6  495.95   24.30
   0 -14   6  497.15   22.20
   0  14   6  429.96   23.50
   2 -14   6  290.47   18.20
   2 -14   6  286.37   18.80
   2  14   6  290.97   23.10
   4 -14   6  152.08   16.60
   4 -14   6   89.19   11.20
   4  14   6  138.89   18.60
  -6 -14  -6   23.20   16.10
  -6 -14  -6   19.40   13.40
   6 -14   6   -0.40   11.60
  -8 -14  -6   11.50   17.30
   8 -14   6    2.40   11.10
 -11 -15   6   -6.60   11.60
  11 -15  -6   11.50   17.90
 -11 -15   6   -5.30   16.10
 -11  15   6   11.90   16.20
  -9 -15   6  146.39   17.60
  -9 -15   6  157.68   18.60
  -9  15   6  117.49   19.30
  -7 -15   6  100.69   15.20
  -7 -15   6  101.99   14.60
  -7  15   6  116.69   16.60
  -5 -15   6   10.30   10.40
  -5  15   6   15.10   10.70
  -3 -15   6   99.39   14.70
  -3  15   6  109.49   15.70
  -1 -15   6   32.30    9.80
  -1 -15   6   36.20   11.30
  -1  15   6   37.20   12.80
   1 -15   6   55.79   11.80
   1 -15   6   49.80   11.20
   1  15   6   37.80   13.00
   3 -15   6   38.80   10.10
   3 -15   6   36.50   11.30
   3  15   6   45.10   12.80
   5 -15   6   89.39   15.60
   5  15   6  111.89   18.20
  -7 -15  -6   56.19   18.60
   7 -15   6   75.39   14.80
   9 -15   6   27.00   15.20
 -10 -16   6  157.38   18.00
  10 -16  -6  129.89   21.70
 -10 -16   6  128.89   19.70
 -10  16   6  126.99   21.00
  -8 -16   6  115.89   16.60
  -8 -16   6  114.89   16.20
  -8  16   6  193.28   21.50
  -6 -16   6   58.69   12.50
  -6  16   6   49.20   13.10
  -4 -16   6   95.29   13.90
  -4  16   6   52.19   13.40
  -2 -16   6   16.50   11.70
  -2 -16   6    6.20    8.70
  -2  16   6    5.40   10.20
   0 -16   6  469.75   21.80
   0 -16   6  475.55   24.40
   0  16   6  458.65   25.70
   2 -16   6   70.89   12.50
   2 -16   6   60.69   12.20
   2  16   6  104.29   15.60
   4 -16   6   47.10   12.90
   4 -16   6   21.10    9.60
   4  16   6   33.00   14.50
   6 -16   6   29.00   13.20
  -6 -16  -6   33.80   16.60
  -6 -16  -6   25.30   16.50
   6  16   6   44.30   16.90
   8 -16   6   14.40   12.60
  -8 -16  -6   60.49   20.40
  11 -17  -6   31.90   19.30
 -11 -17   6   37.10   14.90
 -11  17   6   11.50   17.20
  -9 -17   6    1.60   12.20
  -9  17   6    7.20   13.00
  -7 -17   6    7.70   12.00
  -7  17   6   15.40   13.20
  -5 -17   6   57.99   13.70
  -5  17   6   63.89   13.40
  -3 -17   6   38.60   12.10
  -3  17   6   72.59   13.50
  -1 -17   6   85.09   13.90
  -1 -17   6   78.19   11.60
  -1  17   6   68.09   14.30
   1 -17   6   47.00   10.90
   1 -17   6   73.09   12.70
   1  17   6   68.39   14.20
   3 -17   6   78.19   12.60
   3 -17   6   82.59   13.60
   3  17   6   75.99   15.70
   5 -17   6    6.00   11.70
   5  17   6   19.10   14.40
  -7 -17  -6    9.40   16.30
   7 -17   6   34.90   13.90
  10 -18  -6   26.30   18.10
 -10 -18   6   59.09   15.70
 -10  18   6   20.60   16.70
  -8 -18   6   57.59   14.20
  -8  18   6   29.70   15.20
  -6 -18   6   87.69   15.50
  -6  18   6   68.19   15.80
  -4 -18   6  141.89   16.10
  -4  18   6  150.28   18.00
  -2 -18   6  425.56   20.30
  -2 -18   6  481.95   26.00
  -2  18   6  514.85   27.20
   0 -18   6  242.78   16.80
   0 -18   6  280.77   20.60
   0  18   6  261.67   22.10
   2 -18   6   54.89   12.00
   2 -18   6   60.49   12.20
   2  18   6   67.39   15.50
   4 -18   6   42.40   11.20
   4 -18   6   26.30   12.00
   4  18   6   22.70   14.20
  -6 -18  -6   52.89   18.20
  -6 -18  -6   73.59   18.20
   6 -18   6   33.20   13.80
   6  18   6   16.30   15.60
  -8 -18  -6  -24.60   17.10
   8 -18   6   -8.90   13.20
   9 -19  -6   11.40   16.20
  -9 -19   6   13.60   13.40
  -9  19   6   28.70   15.80
  -7 -19   6  -11.10   11.60
  -7  19   6   12.20   12.00
  -5 -19   6   16.30   12.50
  -5  19   6    4.80   11.90
  -3 -19   6   69.29   14.50
  -3  19   6   92.19   15.80
  -1 -19   6    6.20   11.50
  -1 -19   6   19.40    8.50
  -1  19   6   15.80   12.10
   1 -19   6   98.89   14.10
   1 -19   6   85.59   12.80
   1  19   6   93.29   16.10
   3 -19   6  108.89   14.70
   3 -19   6  114.59   15.20
   3  19   6  112.29   17.90
   5 -19   6   44.30   13.80
  -5 -19  -6   43.30   17.80
   5  19   6   49.60   16.40
  -7 -19  -6   35.50   19.00
  -7 -19  -6   38.70   19.60
   7 -19   6   31.90   14.90
  10 -20  -6   28.60   18.20
 -10 -20   6    7.30   14.00
 -10  20   6   11.80   16.30
  -8 -20   6   11.60   12.80
   8 -20  -6  -16.60   14.00
  -8  20   6   10.40   13.50
  -6 -20   6   23.50   13.30
  -6  20   6   67.59   15.70
  -4 -20   6   45.00   14.50
  -4  20   6   26.60   13.30
  -2 -20   6   39.40    9.90
  -2 -20   6   10.00   12.70
  -2  20   6   20.40   12.90
   0 -20   6   65.09   13.70
   0 -20   6   49.20   10.90
   0  20   6   34.30   13.80
   2 -20   6   -6.20    9.70
   2 -20   6    4.00    9.50
   2  20   6   14.60   13.10
   4 -20   6   42.00   13.40
   4 -20   6   58.59   12.70
  -4 -20  -6   56.59   18.00
   4  20   6   57.59   16.10
  -6 -20  -6    5.50   16.20
   6 -20   6   18.60   13.40
  -6 -20  -6   10.30   17.30
   6  20   6  -13.60   15.00
  -9 -21   6   15.40   14.10
   9 -21  -6  -10.40   14.90
  -9  21   6  -15.40   14.10
   7 -21  -6  134.89   19.20
  -7 -21   6  149.39   18.10
  -7  21   6  154.78   20.30
  -5 -21   6   64.69   15.90
  -5  21   6   33.40   13.80
  -3 -21   6   76.79   15.70
  -3  21   6   80.49   15.80
  -1 -21   6  223.58   20.10
  -1 -21   6  229.38   16.50
  -1  21   6  185.38   20.40
   1 -21   6   72.49   13.80
   1 -21   6   88.99   12.80
   1  21   6   62.89   15.90
   3 -21   6   21.60   11.50
   3 -21   6   -8.10   10.50
   3  21   6   22.70   14.50
  -5 -21  -6   36.90   18.90
   5 -21   6   56.09   14.70
   5  21   6    9.40   15.50
   7 -21   6   37.60   15.60
  -7 -21  -6   11.10   20.60
  -7 -21  -6    6.50   18.10
   8 -22  -6    3.60   14.60
  -8 -22   6   -0.10   13.30
  -8  22   6   23.30   15.70
  -6 -22   6    8.20   12.20
   6 -22  -6   -9.40   13.70
  -6  22   6   30.90   14.00
  -4 -22   6   -6.30   11.70
  -4  22   6   -2.00   10.40
  -2 -22   6  110.59   13.10
  -2 -22   6  115.39   16.60
  -2  22   6  120.29   18.00
   0 -22   6    5.90   12.50
   0 -22   6   22.60    9.90
   0  22   6   14.20   12.90
   2 -22   6   50.79   11.80
   2 -22   6   27.20   12.00
   2  22   6   38.40   15.20
   4 -22   6   11.20   11.20
  -4 -22  -6   19.40   17.90
   4  22   6   -4.90   13.40
  -6 -22  -6  -14.50   16.60
  -6 -22  -6   18.50   19.30
   6 -22   6   -2.10   13.00
   6  22   6   -7.20   16.30
  -9 -23   6   -3.90   14.30
   9 -23  -6   -5.50   15.20
  -9  23   6    9.90   16.30
   7 -23  -6   28.10   15.60
  -7 -23   6   19.40   13.70
  -7  23   6   79.19   17.90
  -5 -23   6   37.90   15.20
   5 -23  -6   22.30   13.60
  -5  23   6   48.70   14.90
  -3 -23   6   13.80   13.30
  -3  23   6   33.60   13.90
  -1 -23   6   -4.20   11.20
  -1 -23   6   20.10    9.50
  -1  23   6   41.30   14.20
   1 -23   6   -4.90   11.00
   1 -23   6   10.40   10.20
   1  23   6   11.20   13.20
   3 -23   6   31.70   12.00
  -3 -23  -6   20.10   16.90
   3 -23   6   55.39   12.90
   3  23   6   59.59   16.50
  -5 -23  -6   28.70   19.90
   5 -23   6   -4.50   11.70
   5  23   6   35.10   17.60
  -8 -24   6  -15.50   13.50
   8 -24  -6  -10.80   15.30
  -8  24   6   12.10   14.90
   6 -24  -6  121.69   17.90
  -6 -24   6  143.09   20.50
  -6  24   6  152.98   20.60
  -4 -24   6   46.60   15.70
  -4  24   6   38.40   14.70
  -2 -24   6   13.90    9.30
  -2 -24   6   22.20   14.00
  -2  24   6   31.30   14.30
   0 -24   6   22.40    9.40
   0 -24   6  -13.40   11.60
   0  24   6   17.90   13.40
  -2 -24  -6   16.70   17.90
   2 -24   6   -2.10   11.20
   2 -24   6    9.10   10.60
   2  24   6   -4.30   13.10
   4 -24   6   30.00   13.10
  -4 -24  -6   18.80   19.50
   4  24   6   22.60   15.70
   7 -25  -6   12.40   15.10
  -7 -25   6   10.40   15.40
  -7  25   6    1.50   14.20
  -5 -25   6   46.10   16.40
  -5  25   6   35.40   15.00
  -3 -25   6   -5.20   13.10
  -3  25   6   18.70   14.20
  -1 -25   6   13.80   13.20
  -1 -25   6   24.20    9.20
  -1  25   6   45.00   15.00
  -1 -25  -6   13.20   17.60
   1 -25   6    8.80   12.30
   1 -25   6   39.70   10.80
   1  25   6   15.60   14.10
   3 -25   6   45.50   13.40
   3 -25   6   52.99   13.50
  -3 -25  -6   39.00   20.60
   3  25   6   55.19   16.90
   5 -25   6   34.20   14.40
   5  25   6   46.90   18.70
  -6 -26   6   -6.50   14.80
  -6  26   6    0.10   14.30
  -4 -26   6   23.80   15.30
  -4  26   6   51.99   16.00
  -2 -26   6   62.59   16.20
  -2  26   6   65.79   16.30
   0 -26   6   -6.80   12.60
   0 -26   6    5.90    9.30
   0 -26  -6    2.70   16.70
   0  26   6    2.80   13.20
   2 -26   6   56.79   13.20
  -2 -26  -6   59.89   21.40
   2 -26   6   35.80   13.60
   2  26   6   65.19   17.50
  -4 -26  -6   23.80   21.90
   4 -26   6   -0.90   11.80
   4  26   6    8.60   15.60
  -5 -27   6   15.50   14.50
   5 -27  -6   35.70   17.20
  -5  27   6   12.80   14.50
   3 -27  -6   22.10   17.10
  -3 -27   6   36.30   15.90
  -3  27   6   41.40   16.00
   1 -27  -6   26.50   18.30
  -1 -27   6   31.20   14.60
  -1  27   6   54.09   16.30
  -1 -27  -6   61.69   19.60
   1 -27   6  -13.80   11.90
   1 -27   6   14.10   10.80
   1  27   6   25.60   14.70
  -3 -27  -6   -6.20   20.50
   3 -27   6  -15.20   12.30
   3 -27   6    6.00   10.60
   3  27   6   -6.00   14.30
   4 -28  -6   35.70   19.10
  -4 -28   6   -8.50   14.70
  -4  28   6    7.80   14.90
  -2 -28   6   20.40   15.20
   2 -28  -6   14.10   18.50
  -2  28   6   24.80   15.80
   0 -28   6    1.60   14.00
   0 -28  -6   21.90   19.30
   0  28   6   28.50   15.70
  -2 -28  -6   22.00   22.20
   2 -28   6   23.00   14.00
   2 -28   6   41.10   12.40
   2  28   6   33.10   16.00
   3 -29  -6   29.30   19.60
  -3 -29   6   23.60   15.90
  -3  29   6   20.60   15.30
   1 -29  -6   21.20   19.60
  -1 -29   6    2.30   14.00
  -1  29   6   -2.40   13.80
   1  29   6   40.60   17.00
 -12   0   7  -26.60   15.00
 -10   0   7  -10.60   14.60
 -10   0   7   -7.20    8.00
  -8   0   7    6.40   12.30
  -8   0   7  -12.30    7.50
  -6   0   7  -14.70    9.80
  -6   0   7   -3.70    8.60
  -4   0   7    4.30    8.50
  -4   0   7   -0.30    7.90
  -2   0   7    0.90    6.80
  -2   0   7    0.40    6.30
   0   0   7    7.10    7.40
   0   0   7   -0.50    7.00
   0   0   7    2.70    7.00
   2   0   7    0.80    6.80
   2   0   7   -2.40    8.10
   2   0   7    2.10    8.10
   4   0   7   14.90    9.20
  -4   0  -7    3.40   12.00
   4   0   7   -1.00    6.60
   6   0   7   -9.50    8.30
  -6   0  -7   -2.30   12.80
  -8   0  -7    9.70   15.40
   8   0   7   10.30   10.00
 -13  -1   7   67.89   21.00
 -13   1   7   99.09   22.20
 -11  -1   7   70.39   17.80
 -11   1   7   59.39   17.50
  -9  -1   7   62.89   15.30
  -9  -1   7   35.20   10.40
  -9   1   7   40.10    9.80
  -9   1   7   43.20   14.80
  -7  -1   7  429.56   22.30
  -7  -1   7  397.26   23.20
  -7   1   7  403.56   23.30
  -7   1   7  412.86   21.40
  -5  -1   7  -12.70    7.00
  -5  -1   7    3.80    9.20
  -5   1   7   -0.30    9.10
  -5   1   7   -2.60    7.50
  -3  -1   7 1222.98   34.40
  -3  -1   7 1277.77   37.10
  -3   1   7 1294.37   35.80
  -1  -1   7  117.99   11.10
  -1  -1   7  110.49    9.20
  -1   1   7   96.79   10.60
  -1   1   7   97.19    9.70
   1  -1   7   31.30    8.60
   1  -1   7   36.60    8.60
   1  -1   7   28.10    8.20
   1   1   7   26.70    8.80
   1   1   7   34.50    9.00
   1   1   7   16.90    8.00
   3  -1   7   -3.30    8.50
   3  -1   7    6.90    6.90
  -3  -1  -7   10.80   11.40
   3   1   7   10.90    8.70
   3   1   7   20.30    7.60
  -3   1  -7    0.90   10.70
  -5  -1  -7  250.87   20.20
   5  -1   7  264.47   14.00
   5  -1   7  238.38   17.10
   5   1   7  237.28   16.40
   5   1   7  254.67   14.50
  -5   1  -7  255.57   20.00
  -7  -1  -7   -1.30   13.50
   7  -1   7   21.40   11.20
   7   1   7   23.50   10.60
  -7   1  -7   41.60   15.30
  -9  -1  -7   -1.50   17.00
   9  -1   7   13.40   11.40
  -9   1  -7   20.40   17.30
   9   1   7   -6.20   10.70
 -12  -2   7  123.69   21.20
 -12   2   7  117.99   21.10
 -10  -2   7   59.29   11.20
 -10  -2   7   32.10   15.80
 -10   2   7   28.20   15.60
 -10   2   7   40.10   10.20
  -8  -2   7   50.39   11.00
  -8  -2   7   27.20   13.70
  -8   2   7   23.30    9.60
  -8   2   7   28.50   13.60
  -6  -2   7  208.98   16.60
  -6  -2   7  209.78   17.10
  -6   2   7  184.68   17.00
  -6   2   7  186.38   15.30
  -4  -2   7  324.37   15.80
  -4  -2   7  296.17   18.90
  -4   2   7  303.57   17.80
  -4   2   7  328.77   17.60
  -2  -2   7  128.99   10.20
  -2  -2   7  126.79   12.30
  -2   2   7  133.39   11.50
  -2   2   7  121.69   12.00
   0  -2   7   84.29   11.20
   0  -2   7   76.49   10.10
   0  -2   7   75.99    8.50
   0   2   7   93.49   11.00
   0   2   7   78.49   10.50
   0   2   7   84.69    9.80
   2  -2   7   -2.80    7.20
   2  -2   7    0.50    8.70
   2   2   7   19.80    8.40
   2   2   7   12.00    8.00
   2   2   7   12.40    9.30
  -2   2  -7    7.00    9.60
  -4  -2  -7   69.19   14.30
   4  -2   7   61.89    9.00
   4  -2   7   83.29   11.90
   4   2   7   65.59   10.70
  -4   2  -7   71.39   13.70
   4   2   7   79.79   10.10
   6  -2   7   54.09   12.30
  -6  -2  -7   52.99   15.50
   6   2   7   57.69   11.00
  -6   2  -7   36.80   14.40
  -8  -2  -7   38.30   17.20
   8  -2   7   35.00   11.90
  -8   2  -7   23.70   15.90
   8   2   7   33.90   10.70
 -13  -3   7  -23.30   16.80
 -13   3   7  -10.90   18.30
 -11  -3   7   -7.30   16.00
 -11  -3   7   21.10   10.10
 -11   3   7   12.90   15.30
  -9  -3   7  150.48   18.00
  -9  -3   7  145.59   14.70
  -9   3   7  146.49   13.80
  -9   3   7  117.99   18.00
  -7  -3   7   81.39   14.20
  -7  -3   7   74.59   12.60
  -7   3   7   81.79   12.00
  -7   3   7   68.59   14.40
  -5  -3   7  208.28   16.10
  -5  -3   7  218.58   15.30
  -5   3   7  232.58   18.00
  -5   3   7  219.38   16.10
  -3  -3   7  205.18   15.10
  -3  -3   7  196.68   11.80
  -3   3   7  203.58   15.00
  -3   3   7  183.98   14.50
  -1  -3   7   98.29    8.00
  -1  -3   7   83.39   10.70
  -1  -3   7   75.69   10.70
  -1   3   7   95.89   10.40
  -1   3   7   73.49   10.00
   1  -3   7  149.79   13.80
   1  -3   7  181.98   12.30
   1  -3   7  162.88   12.60
  -1   3  -7  154.98   11.80
   1   3   7  150.48   12.90
   1   3   7  138.99   12.60
   1   3   7  166.48   14.30
   3  -3   7   66.49    9.60
   3  -3   7   80.89   12.10
   3   3   7   55.09   10.10
   3   3   7   85.39   10.80
   3   3   7   69.49   12.60
  -3   3  -7   85.89   12.10
   5  -3   7   14.70    6.50
   5  -3   7   12.40    9.30
  -5  -3  -7   14.80   12.90
  -5   3  -7    6.60   11.50
   5   3   7   -3.60    7.30
  -7  -3  -7   17.60   14.60
   7  -3   7   10.90   10.70
  -7   3  -7   -8.40   13.90
   7   3   7   25.40    9.90
   9  -3   7   32.70   12.60
  -9  -3  -7   48.80   18.10
   9   3   7   31.50   11.40
  -9   3  -7   10.60   16.90
 -12  -4   7   27.00   17.20
 -12   4   7   28.20   18.40
 -10  -4   7   12.50   14.20
 -10  -4   7   -1.60    9.70
 -10   4   7    1.60    8.50
 -10   4   7    1.90   14.50
  -8  -4   7  123.39   13.90
  -8  -4   7   94.29   15.50
  -8   4   7  128.19   16.80
  -8   4   7  114.09   12.40
  -6  -4   7   14.60   11.00
  -6  -4   7    2.60    9.30
  -6   4   7   27.00   11.90
  -6   4   7    2.00    8.70
  -4  -4   7  291.97   15.10
  -4  -4   7  311.47   19.00
  -4   4   7  283.37   18.30
  -4   4   7  289.57   18.10
  -2  -4   7  326.77   12.80
  -2  -4   7  321.97   18.20
  -2   4   7  357.96   18.70
  -2   4   7  331.57   17.40
   0  -4   7   28.30    7.70
   0  -4   7   43.50    7.00
   0  -4   7   45.90    9.30
   0   4   7   45.10    9.70
   0   4   7   53.89    9.80
   2  -4   7   32.60    8.60
   2  -4   7   38.40   10.30
   2   4   7   41.20    9.20
   2   4   7   30.20   11.00
  -2   4  -7   16.40    9.50
   2   4   7   25.10    8.80
  -4  -4  -7   92.59   15.20
   4  -4   7   81.09    9.60
   4  -4   7   96.89   13.00
   4   4   7   74.79   10.10
   4   4   7   65.79   10.40
  -4   4  -7   82.79   13.70
  -6  -4  -7   76.89   16.30
   6  -4   7   74.49   13.50
  -6   4  -7   80.39   15.00
   6   4   7   77.89   11.70
   8  -4   7   31.80   12.10
  -8  -4  -7   39.10   17.50
  -8   4  -7   21.30   15.40
   8   4   7   17.20   10.20
 -13  -5   7   27.90   20.10
 -13   5   7   42.20   20.40
 -11  -5   7   57.99   17.70
 -11  -5   7   57.99   12.70
 -11   5   7   64.49   17.80
  -9  -5   7   14.70   12.90
  -9  -5   7   27.80   10.20
  -9   5   7   25.00   14.00
  -9   5   7   16.90    8.60
  -7  -5   7   49.90   11.50
  -7  -5   7   17.30   12.20
  -7   5   7   34.40   13.10
  -7   5   7   50.49   10.70
  -5  -5   7   75.69   11.00
  -5  -5   7   57.09   10.70
  -5   5   7   54.09   10.00
  -5   5   7   80.09   13.40
  -3  -5   7   87.89   12.00
  -3  -5   7  119.59    9.00
  -3   5   7   84.79   11.70
  -3   5   7  111.99   12.70
  -1  -5   7   71.79    6.30
  -1  -5   7   79.49   10.60
  -1  -5   7   73.59   11.30
  -1   5   7   74.89   10.70
  -1   5   7   61.59   10.80
   1  -5   7    3.90    8.00
   1  -5   7   16.00    8.50
   1   5   7   13.60    8.20
   1   5   7   12.30    9.40
  -1   5  -7   16.00    7.50
   1   5   7   22.60    8.90
   3  -5   7  -10.70    6.80
   3  -5   7    1.30    9.40
   3   5   7    3.90    7.70
   3   5   7    4.40   10.80
   3   5   7    0.30    8.10
  -3   5  -7    2.80   10.50
  -5  -5  -7   75.99   15.40
   5  -5   7   88.69   13.70
  -5   5  -7   89.39   14.30
   5   5   7   69.89   10.10
  -7  -5  -7   60.49   16.70
   7  -5   7   50.99   13.30
   7   5   7   28.10   10.00
  -7   5  -7   37.40   14.60
   9  -5   7    9.90   12.10
  -9  -5  -7    2.20   16.40
  -9   5  -7   -8.20   16.10
 -12  -6   7   -2.10   15.70
 -12   6   7   -7.90   16.40
 -10  -6   7  138.69   15.30
 -10  -6   7  165.68   19.70
 -10   6   7  151.48   14.20
 -10   6   7  220.98   23.10
  -8  -6   7  226.18   19.00
  -8  -6   7  233.18   17.90
  -8   6   7  205.68   20.00
  -8   6   7  217.28   15.40
  -6  -6   7   97.99   13.60
  -6  -6   7   90.19   12.60
  -6   6   7  151.18   16.80
  -6   6   7   85.39   11.70
  -4  -6   7   34.50    7.90
  -4  -6   7   24.50    9.20
  -4   6   7   23.00    9.60
  -4   6   7   36.30   10.60
  -2  -6   7  125.39   12.90
  -2  -6   7  107.59    7.30
  -2   6   7  104.49   11.90
  -2   6   7  118.69   13.00
   0  -6   7   99.69   11.20
   0  -6   7   80.89   11.70
   0   6   7   98.39   12.10
   0   6   7   86.69   11.90
   0   6  -7  104.89    8.00
   2  -6   7  150.38   14.60
   2  -6   7  168.18   12.80
  -2   6  -7  159.58   12.00
   2   6   7  153.48   12.60
   2   6   7  140.79   13.20
   2   6   7  149.29   15.90
   4  -6   7    3.00    6.70
   4  -6   7   10.00    9.70
  -4  -6  -7   14.10   13.00
   4   6   7    1.30   10.80
   4   6   7    1.40    7.50
  -4   6  -7    8.50   11.20
   6  -6   7    8.90   10.30
  -6  -6  -7   -2.20   13.40
  -6   6  -7    0.40   12.10
   6   6   7   10.60    7.90
   8  -6   7    3.10   11.20
  -8  -6  -7    2.40   15.50
 -11  -7   7    3.90   16.10
 -11  -7   7   23.30   11.30
 -11   7   7    4.30   15.20
  -9  -7   7   94.29   13.80
  -9  -7   7  104.49   16.10
  -9   7   7  112.79   12.40
  -9   7   7   87.29   17.00
  -7  -7   7   18.60   10.70
  -7  -7   7   19.60   11.80
  -7   7   7    5.20   11.60
  -7   7   7   20.10    9.40
  -5  -7   7   48.00   11.70
  -5  -7   7   24.80   10.00
  -5   7   7    8.20    8.30
  -5   7   7   55.99   12.50
  -3  -7   7   38.40    6.20
  -3  -7   7   34.80   10.40
  -3   7   7   28.10   10.00
  -3   7   7   46.40   10.90
  -1  -7   7  147.29   13.50
  -1  -7   7  183.68   15.10
  -1   7   7  146.59   14.10
  -1   7   7  138.49   13.70
   1  -7   7  157.08   14.80
   1  -7   7  203.18   15.20
   1   7   7  168.98   14.60
   1   7   7  192.78   16.40
   3  -7   7   14.00    9.40
   3  -7   7   -4.80    7.20
   3   7   7   -4.40   11.00
   3   7   7    3.50    8.30
  -3   7  -7   11.50   10.00
   3   7   7   13.50    7.50
   5  -7   7  146.09   16.20
  -5  -7  -7  124.79   18.00
  -5   7  -7  120.49   14.30
   5   7   7  124.59   12.00
  -7  -7  -7   26.00   15.60
   7  -7   7   12.70   10.80
   9  -7   7   46.70   14.90
  -9  -7  -7   30.60   18.10
 -12  -8   7   45.80   17.90
 -12   8   7   19.50   17.40
 -10  -8   7   23.80   14.70
 -10  -8   7   34.90   12.10
 -10   8   7   58.99   16.50
 -10   8   7   29.70   10.00
  -8  -8   7   12.10   10.00
  -8  -8   7   -3.20   11.80
  -8   8   7    4.20    8.40
  -8   8   7  -11.90   11.60
  -6  -8   7   48.30   12.20
  -6  -8   7    3.80   10.40
  -6   8   7   -4.40   11.30
  -6   8   7    0.90    8.70
  -4  -8   7  121.89   14.10
  -4  -8   7  140.09   10.20
  -4   8   7  133.59   15.20
  -4   8   7  126.89   13.70
  -2  -8   7  230.98   16.50
  -2  -8   7  192.58   15.50
  -2   8   7  211.48   16.50
  -2   8   7  187.18   15.70
   0  -8   7  254.37   17.40
   0  -8   7  185.48   15.00
   0   8   7  265.57   18.10
   0   8   7  262.57   17.70
   2  -8   7  141.69   12.60
   2  -8   7  115.59   14.00
   2   8   7  135.19   13.80
   2   8   7  133.89   15.80
   4  -8   7  300.07   20.30
   4  -8   7  291.17   15.30
   4   8   7  243.58   14.60
   4   8   7  281.67   21.40
   6  -8   7   56.99   12.70
  -6  -8  -7   35.80   15.80
   6   8   7   41.00    9.50
   8  -8   7   49.99   14.80
  -8  -8  -7   72.89   18.80
 -11  -9   7  -20.00   14.60
 -11  -9   7  -10.20   10.30
 -11   9   7  -16.50   13.90
  -9  -9   7   69.69   13.20
  -9  -9   7   52.99   15.20
  -9   9   7   75.49   11.80
  -9   9   7   63.29   16.00
  -7  -9   7  163.48   16.40
  -7  -9   7  152.18   16.00
  -7   9   7  185.88   15.20
  -7   9   7  192.88   19.40
  -5  -9   7   -2.10    8.80
  -5  -9   7  -11.60   10.00
  -5   9   7   -3.40    9.00
  -5   9   7   11.20   11.30
  -3  -9   7   93.59   12.30
  -3   9   7   76.09   11.60
  -3   9   7   93.19   13.10
  -1  -9   7  155.28   14.10
  -1  -9   7  200.18   15.50
  -1   9   7  164.78   15.50
  -1   9   7  233.58   17.60
   1  -9   7   40.70    9.90
   1  -9   7   33.40    9.80
   1   9   7   33.90   12.00
   1   9   7   35.10   10.80
   3  -9   7  148.29   15.00
   3  -9   7  130.59   12.00
   3   9   7  152.98   17.10
   3   9   7  149.09   12.40
  -5  -9  -7   57.19   15.60
   5  -9   7   82.99   14.20
   5   9   7   75.09   16.00
   5   9   7   71.19    9.70
  -7  -9  -7   72.69   18.00
   7  -9   7   83.39   14.90
  -9  -9  -7   53.89   20.90
   9  -9   7   51.19   15.90
 -12 -10   7  -47.80   15.40
 -12  10   7  -33.70   15.10
 -10 -10   7   50.39   13.00
 -10 -10   7   62.69   16.00
 -10  10   7   71.09   12.30
 -10  10   7   58.19   16.80
  -8 -10   7  120.19   15.90
  -8 -10   7  139.09   15.70
  -8  10   7  149.49   19.00
  -8  10   7  147.89   14.30
  -6 -10   7  113.69   13.40
  -6 -10   7  103.69   13.70
  -6  10   7  127.59   13.80
  -6  10   7   84.39   14.90
  -4 -10   7  238.48   18.40
  -4  10   7  244.98   19.80
  -4  10   7  235.68   17.90
  -2 -10   7   12.50    9.70
  -2 -10   7   -2.90    8.60
  -2  10   7   -6.10    9.50
  -2  10   7    7.00    8.90
   0 -10   7   -1.60    9.10
   0 -10   7   14.70    9.50
   0  10   7   13.00   10.50
   0  10   7   -3.40    9.90
   2 -10   7  347.97   19.30
   2 -10   7  336.27   19.90
   2  10   7  361.86   22.60
   4 -10   7  115.69   11.40
   4 -10   7  147.39   16.30
   4  10   7  120.49   11.40
   4  10   7  138.29   17.90
   6 -10   7  124.19   17.10
  -6 -10  -7  170.48   21.20
   8 -10   7   87.79   17.20
  -8 -10  -7   82.99   20.00
 -11 -11   7  -17.00   15.00
 -11 -11   7    8.90   11.70
 -11  11   7   17.20   15.80
  -9 -11   7    4.20   13.30
  -9 -11   7   14.70   11.10
  -9  11   7    3.60   13.60
  -9  11   7   12.50   10.10
  -7 -11   7    7.90    9.60
  -7 -11   7   -2.40   11.10
  -7  11   7   14.80   12.50
  -7  11   7   11.10    9.10
  -5 -11   7  122.29   15.10
  -5  11   7   86.29   12.90
  -5  11   7   79.29   14.70
  -3 -11   7  106.39   13.40
  -3  11   7   97.49   13.60
  -3  11   7   69.29   12.00
  -1 -11   7  343.47   19.40
  -1 -11   7  281.87   20.10
  -1  11   7  317.37   19.40
  -1  11   7  301.97   20.60
   1 -11   7  162.38   15.40
   1 -11   7  172.18   15.00
   1  11   7  171.18   17.30
   3 -11   7   10.10    9.40
   3 -11   7   17.60    8.40
   3  11   7    6.40   11.10
  -5 -11  -7  129.29   19.20
   5 -11   7   95.49   15.30
   5  11   7  119.79   18.10
  -7 -11  -7   83.39   18.60
   7 -11   7   39.20   14.30
  -9 -11  -7   34.50   19.10
   9 -11   7    3.10   13.90
 -12 -12   7   -6.80   15.90
 -12  12   7   -9.90   16.60
 -10 -12   7    9.10   14.80
 -10 -12   7   40.90   12.70
 -10  12   7   46.40   16.70
  -8 -12   7   17.20   11.30
  -8 -12   7    3.50   11.90
  -8  12   7   17.60   13.50
  -8  12   7    9.90   10.20
  -6 -12   7    1.50    9.40
  -6  12   7    9.80   11.50
  -6  12   7   34.10    9.80
  -4 -12   7   12.70   11.10
  -4  12   7   17.70   10.20
  -4  12   7   16.40   11.70
  -2 -12   7   23.00   10.10
  -2 -12   7   12.40   10.70
  -2  12   7   -2.40   10.80
  -2  12   7   -5.60    9.10
   0 -12   7  164.38   15.60
   0 -12   7  148.69   14.20
   0  12   7  161.58   17.20
   2 -12   7   25.70    9.80
   2 -12   7   16.80    8.80
   2  12   7   23.90   12.10
   4 -12   7  102.89   14.10
   4 -12   7   95.39   11.60
   4  12   7  135.39   18.50
   6 -12   7   22.30   11.90
  -6 -12  -7    8.10   15.10
  -8 -12  -7   10.60   17.40
   8 -12   7   -2.00   11.60
 -11 -13   7    1.30   12.40
 -11 -13   7  -15.70   15.30
 -11  13   7    1.50   16.10
  -9 -13   7   -1.00   14.20
  -9 -13   7    4.40   11.00
  -9  13   7   -6.20   13.60
  -7 -13   7   75.29   14.40
  -7  13   7   91.49   15.40
  -5 -13   7    8.70   10.10
  -5  13   7   20.80   12.20
  -5  13   7   33.80   10.90
  -3 -13   7    6.90   10.20
  -3  13   7   17.60   10.10
  -3  13   7   14.50   11.40
  -1 -13   7   34.40   11.70
  -1 -13   7   45.80   10.10
  -1  13   7   19.20   11.60
   1 -13   7   61.59   12.00
   1 -13   7   75.59   12.20
   1  13   7   88.49   13.60
   3 -13   7   39.30   11.50
   3  13   7   31.80   13.10
   5 -13   7   76.59   14.90
   5  13   7   82.99   17.60
  -7 -13  -7   20.70   17.50
   7 -13   7   41.10   14.60
 -10 -14   7   40.70   14.10
 -10  14   7   72.59   18.20
  -8 -14   7   34.10   11.90
  -8  14   7   60.59   16.10
  -6 -14   7   26.30   10.80
  -6  14   7   25.00   11.90
  -4 -14   7   29.90   11.10
  -4  14   7   36.80   11.60
  -2 -14   7   85.59   12.90
  -2 -14   7   87.99   14.30
  -2  14   7   97.09   15.20
   0 -14   7   94.19   12.30
   0 -14   7   96.39   13.50
   0  14   7   97.19   15.60
   2 -14   7   40.90   10.30
   2 -14   7   71.09   12.80
   2  14   7   57.39   14.50
   4 -14   7   56.99   12.60
   4 -14   7   29.20    9.40
   4  14   7   37.20   15.00
  -6 -14  -7   27.00   15.80
   6 -14   7   23.50   12.90
  -8 -14  -7   31.20   19.00
   8 -14   7   26.30   14.80
 -11 -15   7  109.89   17.70
 -11  15   7  121.89   22.10
  -9 -15   7  114.49   16.60
  -9  15   7  124.89   18.90
  -7 -15   7    1.80   10.50
  -7  15   7   20.00   13.00
  -5 -15   7    2.80   11.10
  -5  15   7  -10.10    9.40
  -3 -15   7   65.49   12.70
  -3  15   7   44.80   13.20
  -1 -15   7   13.60    9.10
  -1 -15   7   13.70   10.90
  -1  15   7   -2.60   10.50
   1 -15   7    9.10    9.40
   1 -15   7   -6.80    8.90
   1  15   7    1.60    9.70
   3 -15   7   32.30   10.20
   3 -15   7   35.40   12.00
   3  15   7   36.30   13.90
   5 -15   7    1.50   11.10
   5  15   7   10.10   13.70
  -7 -15  -7   11.60   17.30
   7 -15   7   27.60   13.90
 -10 -16   7    5.50   12.30
 -10  16   7  -18.90   14.00
  -8 -16   7    9.00   12.20
  -8  16   7   22.70   14.30
  -6 -16   7   44.20   12.40
  -6  16   7   15.10   12.90
  -4 -16   7    4.40   10.20
  -4  16   7   10.60   11.70
  -2 -16   7   50.39   10.90
  -2 -16   7   63.79   13.30
  -2  16   7   61.89   14.00
   0 -16   7   34.10   10.20
   0 -16   7   28.30   11.60
   0  16   7   16.90   11.70
   2 -16   7   89.99   13.60
   2 -16   7   84.39   12.60
   2  16   7   90.89   16.70
   4 -16   7   -7.10    8.50
   4 -16   7    5.80   11.20
   4  16   7    5.30   13.70
  -6 -16  -7   17.20   14.80
  -6 -16  -7   12.90   16.50
   6 -16   7    1.20   12.30
   6  16   7    5.30   16.00
  11 -17  -7   15.60   18.80
 -11 -17   7   -1.20   13.50
  -9 -17   7   10.70   12.40
  -9  17   7    4.70   14.50
  -7 -17   7  -11.90   11.70
  -7  17   7   -5.70   11.00
  -5 -17   7   15.80   11.00
  -5  17   7   15.60   12.50
  -3 -17   7   -0.50   11.20
  -3  17   7    9.50   11.40
  -1 -17   7  162.78   14.70
  -1 -17   7  192.18   18.20
  -1  17   7  166.78   18.10
   1 -17   7   32.30   11.20
   1 -17   7   25.70   10.70
   1  17   7   18.80   12.70
   3 -17   7   50.29   13.00
   3 -17   7   30.40   11.20
   3  17   7   68.59   16.20
   5 -17   7    4.70   11.90
   5  17   7   17.70   15.10
  -7 -17  -7   21.00   18.00
   7 -17   7    8.20   12.70
 -10 -18   7   39.10   15.20
 -10  18   7   58.69   18.50
  -8 -18   7   13.10   12.90
  -8  18   7   -1.10   13.10
  -6 -18   7   82.19   15.80
  -6  18   7   90.89   17.30
  -4 -18   7   58.49   13.80
  -4  18   7   35.50   13.70
  -2 -18   7  139.79   16.10
  -2 -18   7  156.18   14.70
  -2  18   7  124.09   17.60
   0 -18   7   19.30   11.40
   0 -18   7   46.80   10.70
   0  18   7   52.99   14.60
   2 -18   7   51.39   12.80
   2 -18   7   42.00   12.20
   2  18   7   57.99   15.90
   4 -18   7   28.80   12.40
   4  18   7    8.80   13.80
  -6 -18  -7   47.40   18.60
   6 -18   7    6.10   12.10
  -6 -18  -7   36.80   17.50
   6  18   7  -13.30   15.70
  -9 -19   7   88.79   17.00
  -9  19   7  103.79   19.70
  -7 -19   7  199.88   20.80
  -7  19   7  190.08   22.20
  -5 -19   7   77.59   15.80
  -5  19   7   84.29   16.30
  -3 -19   7   57.99   14.00
  -3  19   7   28.80   13.60
  -1 -19   7    9.90    9.00
  -1 -19   7   12.70   11.90
  -1  19   7   -2.10   11.60
   1 -19   7  238.98   18.70
   1 -19   7  203.88   18.40
   1  19   7  250.47   23.20
   3 -19   7   48.80   13.20
   3 -19   7   48.90   12.00
   3  19   7   43.90   13.90
   5 -19   7   25.60   13.10
  -5 -19  -7   19.60   16.50
   5  19   7    6.50   15.00
  10 -20  -7  -46.80   16.10
  -8 -20   7   -6.50   12.90
  -8  20   7   -4.10   13.80
  -6 -20   7   43.70   14.60
  -6  20   7   29.60   14.30
  -4 -20   7    2.90   12.10
  -4  20   7   10.80   11.50
  -2 -20   7   19.30   10.10
  -2 -20   7   -5.20   11.50
  -2  20   7   26.70   13.40
   0 -20   7  175.28   17.90
   0 -20   7  162.18   16.00
   0  20   7  166.58   18.90
   2 -20   7   55.29   13.10
   2 -20   7   71.69   13.10
   2  20   7   57.69   16.20
   4 -20   7   45.50   13.30
   4  20   7   40.00   16.10
  -6 -20  -7   70.09   20.00
  -6 -20  -7   56.89   20.10
   6 -20   7   67.09   16.90
   6  20   7   45.90   19.50
   9 -21  -7   -0.10   16.80
  -9 -21   7  -10.00   13.50
  -9  21   7   10.20   15.50
  -7 -21   7  -11.20   12.40
  -7  21   7   -1.90   13.40
  -5 -21   7   49.40   14.90
  -5  21   7   62.69   15.80
  -3 -21   7   80.79   14.50
  -3  21   7   82.99   16.70
  -1 -21   7  117.19   13.90
  -1 -21   7  128.79   17.20
  -1  21   7  140.09   18.70
   1 -21   7   83.79   14.40
   1 -21   7   98.59   14.00
   1  21   7   66.59   16.10
   3 -21   7   25.00   11.70
   3 -21   7    0.10   10.20
   3  21   7    0.70   13.30
   5 -21   7   30.20   14.30
  -5 -21  -7   45.70   19.50
   5  21   7   17.00   16.50
   8 -22  -7  134.19   21.20
  -8 -22   7  137.19   20.10
  -8  22   7  142.59   21.90
  -6 -22   7  157.88   18.90
  -6  22   7  153.48   20.80
  -4 -22   7   77.69   14.90
  -4  22   7   90.29   17.40
  -2 -22   7  115.99   13.80
  -2 -22   7   91.59   15.50
  -2  22   7  134.59   18.80
   0 -22   7   81.59   12.80
   0 -22   7   75.89   14.70
   0  22   7   81.19   16.80
   2 -22   7   56.99   13.40
   2 -22   7   43.40   12.30
   2  22   7   46.60   16.30
  -4 -22  -7   72.39   20.90
   4 -22   7   68.99   15.00
   4  22   7   36.80   16.80
   7 -23  -7  -28.00   13.60
  -7 -23   7    7.90   14.10
  -7  23   7    9.90   14.70
  -5 -23   7   30.50   14.20
  -5  23   7   18.40   14.00
  -3 -23   7   49.90   15.00
  -3  23   7   61.89   16.10
  -1 -23   7   24.20   10.50
  -1 -23   7   12.80   12.20
  -1  23   7   30.20   14.20
   1 -23   7   45.00   11.70
   1 -23   7   24.40   12.90
   1  23   7   60.99   16.30
   3 -23   7  -16.40   11.30
   3 -23   7    6.60   11.40
  -3 -23  -7   18.20   17.60
   3  23   7  -14.40   13.00
  -5 -23  -7   45.30   21.30
   5 -23   7   76.49   16.30
   5  23   7   73.29   20.40
  -6 -24   7   15.20   14.50
   6 -24  -7   26.00   15.40
  -6  24   7   22.20   14.80
  -4 -24   7   47.20   15.00
  -4  24   7   83.69   17.90
  -2 -24   7   94.59   16.40
  -2 -24   7  139.49   15.00
  -2  24   7  117.59   19.30
   0 -24   7  172.68   18.60
   0 -24   7  169.78   16.40
   0  24   7  185.08   22.10
   2 -24   7   -3.30   11.30
   2 -24   7   -4.20    9.60
   2  24   7   21.90   14.80
   4 -24   7   80.39   16.10
  -4 -24  -7   82.09   22.90
   4  24   7   67.19   19.40
   7 -25  -7  -18.10   15.00
  -7 -25   7  -31.60   11.40
  -7  25   7   -9.80   13.80
  -5 -25   7   -7.00   13.30
  -5  25   7   21.00   15.30
  -3 -25   7    4.50   12.70
  -3  25   7    5.70   13.90
  -1 -25   7   46.00   11.10
  -1 -25   7   23.90   13.70
  -1  25   7   28.20   15.00
   1 -25   7   16.60   10.70
   1 -25   7    8.10   11.80
   1  25   7   16.00   14.70
  -3 -25  -7   48.20   22.40
   3 -25   7   35.70   13.40
   3 -25   7   32.60   13.50
   3  25   7   31.30   17.00
  -6 -26   7    2.00   13.10
  -6  26   7   15.80   15.00
  -4 -26   7    5.90   13.60
  -4  26   7   29.10   15.20
  -2 -26   7   18.50   12.80
  -2  26   7   38.70   15.10
   0 -26   7   -3.90   12.40
   0 -26   7    8.90   10.20
   0  26   7    8.90   13.90
  -2 -26  -7   34.10   19.50
   2 -26   7   29.80   12.30
   2 -26   7    0.90   13.00
   2  26   7   13.60   15.30
  -5 -27   7    6.60   14.90
  -5  27   7   47.50   17.50
  -3 -27   7   71.79   17.30
  -3  27   7  112.09   19.90
  -1 -27   7   28.80   14.70
  -1  27   7   50.99   16.70
   1 -27   7   50.59   12.70
   1 -27   7   13.30   13.10
  -1 -27  -7   30.20   21.00
   1  27   7   43.60   17.50
  -2 -28   7   53.59   16.50
   2 -28  -7   60.19   20.30
  -2  28   7   74.29   18.50
   0 -28   7   -9.30   12.40
   0  28   7  -10.10   13.50
 -12   0   8  -18.10   15.30
 -10   0   8   29.70   15.10
 -10   0   8   54.09   12.00
  -8   0   8  225.28   19.50
  -8   0   8  176.28   15.90
  -6   0   8  155.08   15.70
  -6   0   8  139.69   14.70
  -4   0   8  731.93   28.30
  -4   0   8  708.93   25.50
  -2   0   8  276.57   14.70
  -2   0   8  322.57   18.80
   0   0   8  188.68   15.40
   0   0   8  185.58   13.80
   0   0   8  178.28   14.30
   2   0   8   91.09   12.40
   2   0   8  103.89   12.50
   2   0   8   85.39   10.90
   4   0   8  195.58   13.70
  -4   0  -8  190.58   17.00
   4   0   8  166.58   15.00
  -6   0  -8   22.70   13.80
   6   0   8   19.90   10.30
   8   0   8   25.80   11.00
  -8   0  -8   42.80   17.30
 -11  -1   8    2.80    9.60
 -11  -1   8   -7.00   14.40
 -11   1   8    3.40   15.00
 -11   1   8   11.90    9.70
  -9  -1   8   34.20   14.60
  -9  -1   8   18.30   10.50
  -9   1   8   20.80   10.50
  -9   1   8   32.40   14.00
  -7  -1   8   53.39   12.40
  -7  -1   8   72.49   12.30
  -7   1   8   86.29   14.50
  -7   1   8   71.09   12.00
  -5  -1   8  410.16   20.20
  -5  -1   8  402.36   21.50
  -5   1   8  397.96   20.90
  -5   1   8  435.76   22.70
  -3  -1   8   68.59    9.40
  -3  -1   8   78.19   11.30
  -3   1   8   80.99   11.10
  -3   1   8   73.29   10.30
  -1  -1   8  150.18   13.80
  -1  -1   8  146.89   11.10
  -1   1   8  139.39   13.60
  -1   1   8  136.59   11.50
   1  -1   8   93.79   11.50
   1  -1   8   83.09   12.10
   1  -1   8   98.89   11.20
   1   1   8   89.49   11.50
   1   1   8   98.29   12.70
   1   1   8   99.59   12.20
   3  -1   8   42.60    9.00
  -3  -1  -8   61.79   12.90
   3  -1   8   51.99   11.00
   3   1   8   48.80   10.10
  -3   1  -8   52.79   11.90
   3   1   8   57.69    9.70
   5  -1   8  130.69   14.70
  -5  -1  -8  151.48   17.30
   5   1   8  147.49   14.80
  -5   1  -8  138.69   16.90
   5   1   8  139.29   12.30
  -7  -1  -8   21.20   15.00
   7  -1   8   16.80   10.10
  -7   1  -8   38.20   15.40
   7   1   8   38.40   11.00
  -9  -1  -8   13.40   17.00
   9  -1   8   21.10   11.90
   9   1   8   29.40   11.90
  -9   1  -8   35.80   17.90
 -12  -2   8   62.39   18.90
 -12   2   8   76.99   20.50
 -10  -2   8   18.20   10.70
 -10  -2   8   12.10   13.70
 -10   2   8   24.20   10.20
 -10   2   8  -13.20   13.20
  -8  -2   8   22.30   10.10
  -8  -2   8   31.70   12.30
  -8   2   8   15.30   11.80
  -8   2   8    2.30    9.10
  -6  -2   8   92.29   13.10
  -6  -2   8   85.79   12.70
  -6   2   8   91.69   14.00
  -6   2   8   93.19   12.90
  -4  -2   8   84.09   10.80
  -4  -2   8   66.99   12.10
  -4   2   8   61.39   11.40
  -4   2   8   70.09   11.60
  -2  -2   8  160.58   11.30
  -2  -2   8  109.09   12.40
  -2   2   8  130.89   13.00
  -2   2   8  138.79   12.70
   0  -2   8   59.69   11.70
   0  -2   8   63.49   10.50
   0  -2   8   47.90    8.70
   0   2   8   56.59   10.10
   0   2   8   36.00    9.90
   2  -2   8   47.40    9.70
   2  -2   8   47.70   10.60
   2   2   8   30.40    9.00
   2   2   8   49.60   11.60
   2   2   8   32.70    9.80
  -2   2  -8   31.70   10.80
   4  -2   8  153.98   12.50
   4  -2   8  169.18   15.80
  -4  -2  -8  169.38   17.00
   4   2   8  174.08   13.70
  -4   2  -8  188.08   16.10
   4   2   8  195.58   15.80
  -6  -2  -8  195.28   20.50
   6  -2   8  183.18   17.50
   6   2   8  211.88   17.20
  -6   2  -8  190.98   19.40
   8  -2   8   21.40   11.50
  -8  -2  -8   -6.40   15.90
  -8   2  -8   -9.10   15.10
   8   2   8   11.90   10.70
 -11  -3   8   -8.80   13.90
 -11  -3   8   26.80   11.20
 -11   3   8   21.60   15.30
  -9  -3   8    5.90   13.50
  -9  -3   8    6.00    9.70
  -9   3   8   10.20   13.20
  -9   3   8    1.20    8.90
  -7  -3   8   85.49   13.60
  -7  -3   8  101.59   13.70
  -7   3   8   79.49   12.60
  -7   3   8  116.59   15.80
  -5  -3   8   85.89   12.70
  -5  -3   8   94.29   12.10
  -5   3   8  101.79   13.60
  -5   3   8  109.59   13.80
  -3  -3   8   87.19    9.30
  -3  -3   8   55.39   11.30
  -3   3   8  100.99   12.30
  -3   3   8   56.69   10.70
  -1  -3   8  107.59   12.70
  -1  -3   8  121.19   13.70
  -1  -3   8  142.29   10.20
  -1   3   8  108.29   11.80
  -1   3   8  130.49   13.00
   1  -3   8   27.80   10.20
   1  -3   8   27.40    8.70
   1   3   8   32.80    9.70
  -1   3  -8   29.50    9.80
   1   3   8   22.70    9.70
   1   3   8   14.80    9.90
   3  -3   8   84.99   10.30
  -3  -3  -8   67.29   14.20
   3  -3   8   88.59   12.10
   3   3   8   65.59   12.30
   3   3   8   63.39   10.60
   3   3   8   79.49   10.50
  -3   3  -8   87.49   12.50
  -5  -3  -8  112.49   16.60
   5  -3   8   61.59   12.20
   5   3   8   85.59   12.20
   5   3   8   74.59   10.60
  -5   3  -8   96.79   14.40
   7  -3   8   33.20   11.40
  -7  -3  -8   36.40   15.30
   7   3   8   27.20   10.90
  -7   3  -8   34.10   14.90
   9  -3   8    2.90   11.80
 -12  -4   8  -31.60   15.80
 -12   4   8   -0.30   17.40
 -10  -4   8   53.29   12.80
 -10  -4   8   30.90   15.70
 -10   4   8   37.50   16.30
 -10   4   8   71.39   12.30
  -8  -4   8  127.49   16.40
  -8  -4   8  146.69   15.50
  -8   4   8  114.59   13.50
  -8   4   8  126.29   16.70
  -6  -4   8   49.40   11.50
  -6  -4   8   66.49   12.80
  -6   4   8   70.99   13.10
  -6   4   8   47.80   11.30
  -4  -4   8   94.59   13.10
  -4  -4   8   90.29   10.10
  -4   4   8   62.49   11.90
  -4   4   8   82.19   12.20
  -2  -4   8   45.50    7.00
  -2  -4   8   50.69   11.00
  -2   4   8   31.40    9.70
  -2   4   8   39.30    9.80
   0  -4   8  121.49    9.80
   0  -4   8  108.89   13.50
   0  -4   8  135.19   13.10
   0   4   8   97.69   12.70
   0   4   8  136.49   12.80
   2  -4   8   37.30    9.20
   2  -4   8   47.10   11.10
   2   4   8   30.40    9.80
  -2   4  -8   44.20   10.40
   2   4   8   62.39   11.80
   2   4   8   29.10    9.40
  -4  -4  -8   30.70   12.70
   4  -4   8   28.50   10.40
   4  -4   8   14.70    7.30
   4   4   8   14.40    8.30
   4   4   8   10.60    8.40
  -4   4  -8   34.50   11.30
   6  -4   8   -1.10   10.00
  -6  -4  -8   -3.10   13.80
   6   4   8   -6.80    8.30
  -8  -4  -8   47.40   17.70
   8  -4   8   13.40   11.80
   8   4   8   18.20   10.90
 -11  -5   8   12.70   14.50
 -11  -5   8   23.20   11.10
 -11   5   8  -20.40   13.80
  -9  -5   8   96.19   16.60
  -9  -5   8  128.39   15.30
  -9   5   8   94.19   17.00
  -9   5   8  106.29   13.40
  -7  -5   8   33.40   11.60
  -7  -5   8   59.59   11.90
  -7   5   8   46.80   10.70
  -7   5   8   71.09   14.20
  -5  -5   8   84.49   13.10
  -5  -5   8   47.00   10.00
  -5   5   8   58.39   12.60
  -5   5   8   74.69   12.60
  -3  -5   8  130.59   10.00
  -3  -5   8  136.39   14.20
  -3   5   8  133.99   13.90
  -3   5   8  129.49   13.60
  -1  -5   8  162.28   15.20
  -1  -5   8  145.29   14.10
  -1  -5   8  138.59    9.30
  -1   5   8  148.89   13.90
  -1   5   8  108.89   13.00
   1  -5   8   56.29   10.20
   1  -5   8   33.10   10.20
   1   5   8   40.10   11.80
   1   5   8   59.39   11.10
   3  -5   8   95.79   10.50
   3  -5   8   99.09   13.60
   3   5   8  111.19   12.40
   3   5   8  104.89   11.50
   3   5   8  127.49   15.70
   5  -5   8    4.20    9.90
  -5  -5  -8   22.20   13.50
   5   5   8   20.80    8.90
   7  -5   8   -4.30   10.40
  -7  -5  -8    4.30   14.30
   7   5   8   13.70    9.50
 -12  -6   8    6.60   16.90
 -12   6   8   48.20   18.30
 -10  -6   8   75.19   13.60
 -10  -6   8   50.39   15.80
 -10   6   8   61.99   11.80
 -10   6   8   53.09   16.20
  -8  -6   8   -2.00   11.50
  -8  -6   8    1.60    9.40
  -8   6   8    1.90    8.90
  -8   6   8   -5.10   12.50
  -6  -6   8    2.30    9.30
  -6  -6   8    7.60   10.50
  -6   6   8    3.60    9.30
  -6   6   8   -3.70   11.20
  -4  -6   8   38.50    8.20
  -4  -6   8   73.49   12.60
  -4   6   8   65.29   12.80
  -4   6   8   52.59   12.00
  -2  -6   8   24.30    9.20
  -2   6   8   41.30   10.20
  -2   6   8   40.30   10.60
   0  -6   8   92.09   13.00
   0  -6   8   93.39   12.20
   0   6   8  107.09   12.90
   0   6   8  107.09   13.00
   2  -6   8   64.69    9.80
   2  -6   8   62.99   12.10
   2   6   8   72.19   11.30
   2   6   8   40.00    9.40
   2   6   8   48.00   12.00
   4  -6   8   55.79   11.90
  -4  -6  -8   51.69   14.30
   4  -6   8   55.39    9.30
   4   6   8   46.60    9.60
   4   6   8   79.99   14.60
  -6  -6  -8   16.10   14.10
   6  -6   8   26.10   11.80
   6   6   8   31.80    9.80
   8  -6   8  -10.90   11.40
  -8  -6  -8   -1.00   15.40
 -11  -7   8  114.89   15.80
 -11  -7   8   70.79   18.30
 -11   7   8  132.39   20.70
  -9  -7   8  105.59   14.60
  -9  -7   8   69.29   15.40
  -9   7   8   89.89   16.80
  -9   7   8   72.19   12.50
  -7  -7   8   89.69   13.00
  -7  -7   8   81.79   13.50
  -7   7   8   81.79   12.30
  -7   7   8   78.79   14.90
  -5  -7   8  104.99   11.10
  -5  -7   8   85.69   13.20
  -5   7   8  128.99   15.50
  -5   7   8   83.19   12.60
  -3  -7   8  155.88   15.10
  -3   7   8  191.48   16.60
  -3   7   8  186.88   16.00
  -1  -7   8   85.29   11.60
  -1  -7   8   86.49   13.20
  -1   7   8   56.89   11.40
  -1   7   8   73.29   12.40
   1  -7   8  113.89   12.50
   1  -7   8   91.99   12.90
   1   7   8   92.59   12.80
   1   7   8  132.69   15.70
   3  -7   8   25.30    9.70
   3  -7   8   17.70    7.80
   3   7   8   21.30    8.70
   3   7   8   48.50   12.80
   3   7   8   14.40    8.80
   5  -7   8  100.09   14.80
  -5  -7  -8   71.49   16.50
   5   7   8   82.19   11.40
  -7  -7  -8   11.60   15.10
   7  -7   8  -12.90   10.20
 -12  -8   8  -19.30   15.30
 -12   8   8  -18.10   15.90
 -10  -8   8   62.49   16.50
 -10  -8   8   48.60   12.90
 -10   8   8   74.59   17.50
 -10   8   8   78.59   12.50
  -8  -8   8   66.09   14.30
  -8  -8   8   50.29   12.80
  -8   8   8   66.19   11.80
  -8   8   8   64.39   15.30
  -6  -8   8   27.00   10.90
  -6  -8   8   47.60   10.30
  -6   8   8   12.40   11.40
  -6   8   8   26.60    9.80
  -4  -8   8   39.30   11.70
  -4   8   8   32.60   10.20
  -4   8   8   10.70   10.90
  -2  -8   8   33.00   10.80
  -2  -8   8   58.29   12.50
  -2   8   8   33.00   11.40
  -2   8   8   48.10   11.60
   0  -8   8  699.83   26.90
   0  -8   8  663.43   26.80
   0   8   8  676.83   28.10
   0   8   8  687.23   27.60
   2  -8   8   60.19   10.00
   2  -8   8   59.89   11.30
   2   8   8   64.19   12.90
   2   8   8   68.39   11.80
   4  -8   8   36.90    8.50
   4  -8   8   44.50   11.20
   4   8   8   27.20   12.90
   4   8   8   28.30    8.90
  -6  -8  -8   86.89   17.80
   6  -8   8  100.99   16.00
   8  -8   8  105.49   17.60
  -8  -8  -8   54.29   18.60
 -11  -9   8   10.60   15.90
 -11  -9   8   28.60   12.90
 -11   9   8   -5.40   15.40
  -9  -9   8   23.30   11.50
  -9  -9   8   14.10   13.90
  -9   9   8   27.10   10.10
  -9   9   8   16.30   14.00
  -7  -9   8   -8.20    9.90
  -7  -9   8    8.40   10.80
  -7   9   8   20.10   12.40
  -7   9   8    8.90    9.30
  -5  -9   8   27.00   11.40
  -5   9   8    4.80   10.80
  -5   9   8    9.70    9.50
  -3  -9   8   22.30   10.30
  -3   9   8   42.90   11.90
  -3   9   8   11.90   10.60
  -1  -9   8   33.00   10.70
  -1  -9   8   20.10   10.80
  -1   9   8   25.40   10.20
  -1   9   8   33.60   11.10
   1  -9   8   44.10    9.90
   1  -9   8   45.70   11.20
   1   9   8   53.29   11.80
   1   9   8   58.99   13.50
   3  -9   8   41.80   10.90
   3  -9   8   38.70    9.10
   3   9   8   63.09   14.30
   5  -9   8   -5.70   10.40
  -5  -9  -8   -4.40   13.20
   7  -9   8   38.00   14.00
  -7  -9  -8   41.60   16.90
 -12 -10   8  -25.80   16.20
 -12  10   8    9.60   16.80
 -10 -10   8    5.80   11.90
 -10 -10   8   -4.80   13.70
 -10  10   8   22.60   10.50
 -10  10   8   20.70   14.50
  -8 -10   8   26.00   12.10
  -8  10   8   33.70   14.50
  -8  10   8   34.40   10.70
  -6 -10   8   -6.00    8.80
  -6  10   8   -3.60    8.70
  -6  10   8   15.40   11.40
  -4 -10   8   35.80   12.10
  -4  10   8   27.20   11.10
  -4  10   8   47.80   12.30
  -2 -10   8    3.10   10.20
  -2 -10   8    7.90   10.30
  -2  10   8   11.00   10.50
  -2  10   8   -5.50    9.80
   0 -10   8  112.89   14.00
   0 -10   8  117.59   13.70
   0  10   8  105.49   14.20
   0  10   8  126.99   14.30
   2 -10   8   19.30    9.30
   2 -10   8   16.50    8.20
   2  10   8   30.90   12.30
   4 -10   8   18.10    8.20
   4 -10   8   -9.40    9.80
   4  10   8   15.20   13.10
   4  10   8   10.40    8.20
  -6 -10  -8   44.20   16.70
   6 -10   8   61.19   14.50
   8 -10   8    8.30   13.60
  -8 -10  -8    1.00   16.80
 -11 -11   8   21.80   12.60
 -11  11   8   13.30   16.50
  -9 -11   8   26.30   12.00
  -9  11   8   16.60   10.00
  -9  11   8   10.40   13.60
  -7 -11   8   64.79   13.70
  -7  11   8   83.99   16.10
  -7  11   8   60.09   11.80
  -5 -11   8  127.99   15.40
  -5  11   8  122.49   14.10
  -5  11   8  124.59   16.00
  -3 -11   8   74.69   13.40
  -3  11   8   72.49   13.40
  -3  11   8   79.59   13.70
  -1 -11   8  113.99   14.20
  -1 -11   8  118.19   14.10
  -1  11   8  138.19   15.80
  -1  11   8   98.09   14.40
   1 -11   8   32.50   11.00
   1 -11   8   -2.90    8.30
   1  11   8   23.70   11.40
   3 -11   8   24.80    9.00
   3 -11   8   24.10   11.20
   3  11   8   16.20   12.40
   5 -11   8   -7.70   10.90
  -5 -11  -8    8.10   14.40
   5  11   8  -15.40   12.50
  -7 -11  -8   47.90   17.50
   7 -11   8   34.30   14.20
 -10 -12   8    5.30   12.20
 -10  12   8  -14.40   13.80
  -8 -12   8   77.79   14.30
  -8  12   8   72.89   16.40
  -8  12   8   80.49   13.30
  -6 -12   8    9.20   10.30
  -6  12   8   21.70   10.90
  -6  12   8   28.20   13.00
  -4 -12   8   68.19   13.20
  -4  12   8   63.59   11.90
  -4  12   8   79.89   14.10
  -2 -12   8   37.40   11.40
  -2 -12   8   48.00   11.50
  -2  12   8   34.70   11.90
  -2  12   8   25.70   11.60
   0 -12   8   16.90   10.00
   0 -12   8   24.60    9.40
   0  12   8    6.10   10.20
   2 -12   8  119.69   14.40
   2 -12   8  125.69   13.30
   2  12   8  155.18   17.90
   4 -12   8  116.89   16.10
   4 -12   8  119.79   12.70
   4  12   8  190.68   21.00
   6 -12   8   22.50   12.50
  -6 -12  -8   17.10   15.70
 -11 -13   8   37.90   14.50
 -11  13   8   35.60   17.90
  -9 -13   8   21.10   12.60
  -9  13   8   -1.90   13.80
  -7 -13   8   80.59   14.60
  -7  13   8   76.09   15.90
  -7  13   8   54.19   12.50
  -5 -13   8   13.60   11.60
  -5  13   8   40.60   12.20
  -5  13   8   28.40   12.60
  -3 -13   8   57.59   13.00
  -3  13   8   42.60   11.40
  -3  13   8   56.99   13.00
  -1 -13   8  169.68   15.80
  -1 -13   8  165.48   16.20
  -1  13   8  203.78   18.50
   1 -13   8  103.59   14.10
   1 -13   8   90.19   12.70
   1  13   8   63.29   14.30
   3 -13   8   37.70   10.50
   3 -13   8   23.80   10.90
   3  13   8   29.30   13.90
   5 -13   8   37.50   13.10
  -5 -13  -8   -0.30   15.00
   5  13   8   12.10   14.80
  -7 -13  -8   29.60   17.80
   7 -13   8   19.70   14.20
 -10 -14   8   47.00   14.60
 -10  14   8   41.40   17.50
  -8 -14   8   35.20   13.30
  -8  14   8   56.89   16.50
  -6 -14   8   -9.80   10.60
  -6  14   8    5.90   11.90
  -6  14   8   -9.20    9.70
  -4 -14   8   27.70   11.60
  -4  14   8   14.50   11.60
  -2 -14   8   47.20   11.40
  -2 -14   8   22.70   10.40
  -2  14   8   21.70   11.80
   0 -14   8   48.80   10.50
   0 -14   8   69.19   12.40
   0  14   8   43.30   12.30
   2 -14   8  154.78   15.10
   2 -14   8  127.49   15.80
   2  14   8  153.78   18.70
   4 -14   8   19.50   11.80
   4  14   8   54.59   15.70
   6 -14   8   43.90   13.90
  -6 -14  -8   61.99   18.80
 -11 -15   8    9.10   13.50
 -11  15   8    9.30   17.10
  -9 -15   8   -3.40   11.50
  -9  15   8   18.80   12.90
  -7 -15   8   71.39   15.00
  -7  15   8   70.99   16.30
  -5 -15   8   15.50   11.90
  -5  15   8   17.10   12.10
  -3 -15   8   41.40   11.80
  -3  15   8   28.70   12.30
  -1 -15   8    5.70    8.90
  -1 -15   8   13.80   10.70
  -1  15   8    9.70   10.80
   1 -15   8   84.79   13.60
   1 -15   8  102.59   13.80
   1  15   8   77.89   15.70
   3 -15   8   29.20   12.40
   3 -15   8   24.70   10.40
   3  15   8   18.10   13.80
   5 -15   8   -1.30   11.90
   5  15   8   -2.70   13.90
  -7 -15  -8   26.00   19.70
   7 -15   8    5.80   13.70
 -10 -16   8  170.68   20.60
 -10  16   8  139.39   22.20
  -8 -16   8   79.59   15.80
  -8  16   8  103.49   18.30
  -6 -16   8   58.99   14.50
  -6  16   8   92.59   16.60
  -4 -16   8  119.39   16.20
  -4  16   8  135.49   17.90
  -2 -16   8  114.09   14.60
  -2 -16   8  139.79   16.50
  -2  16   8  140.19   17.80
   0 -16   8   53.19   11.80
   0 -16   8   43.10   12.20
   0  16   8   83.49   15.00
   2 -16   8   75.29   13.50
   2 -16   8  103.29   15.20
   2  16   8   48.20   15.30
   4 -16   8   70.09   14.40
   4  16   8   61.69   16.90
  -6 -16  -8   24.90   17.70
   6 -16   8   18.80   14.50
  -9 -17   8   12.90   13.70
  -9  17   8   -7.50   14.40
  -7 -17   8   73.79   15.50
  -7  17   8   30.30   14.80
  -5 -17   8    7.30   12.20
  -5  17   8   -1.90   11.60
  -3 -17   8   24.40   11.60
  -3  17   8   42.10   14.20
  -1 -17   8   48.20   11.40
  -1 -17   8   30.10   11.20
  -1  17   8   35.70   13.40
   1 -17   8   67.79   13.20
   1 -17   8   71.69   12.60
   1  17   8   50.59   15.00
   3 -17   8   12.30   11.20
   3 -17   8  -21.20    8.90
   3  17   8   10.90   13.80
   5 -17   8   -4.50   11.00
   5  17   8   21.20   15.70
 -10 -18   8   25.10   14.60
 -10  18   8   35.00   17.20
  -8 -18   8   14.40   12.00
  -8  18   8   14.70   14.80
  -6 -18   8    3.50   11.10
  -6  18   8   27.90   14.20
  -4 -18   8   -0.60   10.60
  -4  18   8   14.80   12.30
  -2 -18   8   76.19   14.10
  -2 -18   8   64.19   12.30
  -2  18   8   98.49   16.90
   0 -18   8  176.38   16.50
   0 -18   8  172.68   17.50
   0  18   8  204.38   21.10
   2 -18   8   38.10   12.60
   2 -18   8   16.00   10.90
   2  18   8   18.20   13.60
   4 -18   8   70.99   14.90
   4  18   8   78.59   18.50
   6 -18   8   20.20   14.80
  -6 -18  -8   33.80   19.50
  -6 -18  -8   33.00   17.70
   6  18   8  -23.20   16.30
  -9 -19   8   11.30   14.00
  -9  19   8    9.40   15.50
  -7 -19   8    5.80   12.90
  -7  19   8  -18.20   10.80
  -5 -19   8    4.30   11.10
  -5  19   8  -15.40   12.00
  -3 -19   8   50.89   14.10
  -3  19   8   58.69   14.30
  -1 -19   8  140.59   15.70
  -1 -19   8  143.59   17.60
  -1  19   8  158.28   18.80
   1 -19   8    0.40   10.20
   1 -19   8   13.60   10.70
   1  19   8    6.60   13.00
   3 -19   8   24.30   12.20
   3 -19   8    6.50   11.10
   3  19   8   40.70   15.80
   5 -19   8    8.40   13.10
   5  19   8   -0.90   15.00
  -8 -20   8   21.60   14.80
  -8  20   8   11.20   15.20
  -6 -20   8   -5.90   12.30
  -6  20   8   29.70   14.10
  -4 -20   8   18.60   13.10
  -4  20   8   78.09   17.20
  -2 -20   8  135.89   18.00
  -2 -20   8  147.09   15.80
  -2  20   8  182.58   20.60
   0 -20   8  236.48   20.50
   0 -20   8  231.98   18.80
   0  20   8  278.67   24.70
   2 -20   8  -21.40   10.20
   2 -20   8    5.40   10.30
   2  20   8   11.80   12.20
   4 -20   8  -15.30   11.20
   4  20   8   -7.60   15.10
  -7 -21   8   85.89   17.70
  -7  21   8   91.29   18.50
  -5 -21   8   55.99   15.40
  -5  21   8   34.90   14.70
  -3 -21   8  157.38   18.50
  -3  21   8  157.28   20.60
  -1 -21   8   -6.90   11.10
  -1 -21   8    5.80   10.10
  -1  21   8   -6.70   12.00
   1 -21   8   91.79   14.50
   1 -21   8   53.39   13.70
   1  21   8   86.59   16.70
   3 -21   8   48.80   13.80
   3 -21   8   29.70   12.70
   3  21   8   50.49   17.20
   5  21   8   -0.10   16.60
  -8 -22   8  -29.80   12.90
  -8  22   8    1.50   14.70
  -6 -22   8   -0.70   12.70
  -6  22   8    3.20   13.70
  -4 -22   8   12.80   13.00
  -4  22   8   31.70   15.20
  -2 -22   8  204.48   17.90
  -2 -22   8  158.18   19.50
  -2  22   8  226.88   23.20
   0 -22   8   26.50   12.70
   0 -22   8   13.80   10.90
   0  22   8   19.10   14.00
   2 -22   8   55.59   13.60
   2 -22   8   51.39   13.60
   2  22   8   67.69   17.30
   4 -22   8    2.50   12.00
   4  22   8  -19.30   14.90
  -7 -23   8   56.79   16.20
  -7  23   8   96.09   19.80
  -5 -23   8   50.59   15.70
  -5  23   8   33.70   15.30
  -3 -23   8   31.20   14.30
  -3  23   8   50.79   16.30
  -1 -23   8   76.39   15.80
  -1 -23   8   95.29   14.00
  -1  23   8  127.69   19.60
   1 -23   8   24.80   11.40
   1 -23   8   24.60   12.70
   1  23   8   18.30   14.90
   3 -23   8   34.60   13.80
   3  23   8   12.80   15.70
  -6 -24   8  105.69   18.00
  -6  24   8  107.19   20.10
  -4 -24   8   22.60   14.40
  -4  24   8   31.50   15.40
  -2 -24   8    0.50   12.60
  -2 -24   8  -13.70    9.60
  -2  24   8   21.90   14.30
   0 -24   8   35.40   11.50
   0 -24   8   25.40   13.20
   0  24   8   36.10   15.70
   2 -24   8   -6.00   11.50
   2 -24   8   15.70   12.10
   2  24   8   19.50   15.60
  -5 -25   8  117.89   19.60
  -5  25   8  152.48   22.20
  -3 -25   8   12.50   13.20
  -3  25   8   44.00   16.00
  -1 -25   8   79.39   16.80
  -1 -25   8   57.79   12.80
  -1  25   8   99.79   19.10
   1 -25   8   41.20   14.30
   1 -25   8   87.79   14.90
   1  25   8   55.59   17.80
  -4 -26   8    1.10   13.90
  -4  26   8  -12.90   13.90
  -2 -26   8    4.30   13.60
  -2  26   8   30.60   16.40
   0 -26   8  -27.40   12.00
   0 -26   8    0.90   11.00
   0  26   8    6.30   14.80
 -12   0   9   -6.10   15.50
 -10   0   9  -16.60   12.70
 -10   0   9    4.70   10.40
  -8   0   9   -8.20   10.20
  -8   0   9    7.60    9.80
  -6   0   9   -1.30    9.00
  -6   0   9    7.10    9.70
  -4   0   9   -1.60    8.30
  -4   0   9    6.60    8.20
  -2   0   9    5.40    7.60
  -2   0   9    7.20    9.50
   0   0   9   -2.20    9.10
   0   0   9   -2.60    8.00
   0   0   9   -1.50    8.20
   2   0   9  -12.40    7.60
   2   0   9   11.20    8.20
  -2   0  -9    9.20    9.80
   2   0   9   -7.50    9.00
   4   0   9    6.20    7.50
   4   0   9   -2.00    8.60
  -4   0  -9   14.20   11.60
   6   0   9   10.50   10.10
  -6   0  -9   23.50   13.70
   8   0   9   14.20   10.90
 -11  -1   9   30.90   11.40
 -11  -1   9    2.40   15.70
 -11   1   9    5.20    9.60
 -11   1   9    8.30   15.30
  -9  -1   9    9.90    9.70
  -9  -1   9   -8.50   11.30
  -9   1   9    6.30   10.00
  -9   1   9  -11.30   11.60
  -7  -1   9   38.90   11.80
  -7  -1   9   48.70   11.80
  -7   1   9   34.80   12.20
  -7   1   9   63.29   12.60
  -5  -1   9  327.47   17.70
  -5  -1   9  315.37   19.80
  -5   1   9  324.17   18.70
  -5   1   9  296.47   20.90
  -3  -1   9  450.45   19.30
  -3  -1   9  505.05   24.70
  -3   1   9  479.85   20.80
  -3   1   9  485.75   23.20
  -1  -1   9  136.19   11.70
  -1   1   9  110.79   11.50
  -1   1   9  125.09   14.20
   1  -1   9   17.00    9.00
   1  -1   9   23.60    9.00
   1  -1   9    0.30    9.30
   1   1   9   17.20    9.30
   1   1   9   24.60    8.80
   1   1   9   30.60   10.10
   3  -1   9  259.57   18.00
  -3  -1  -9  239.98   18.30
   3  -1   9  251.87   16.10
   3   1   9  268.37   16.90
   3   1   9  245.08   17.50
  -3   1  -9  263.47   18.30
  -5  -1  -9  111.89   16.50
   5  -1   9   78.19   13.20
   5   1   9  104.49   13.90
  -5   1  -9  109.69   15.80
  -7  -1  -9   39.30   15.80
   7  -1   9   28.40   11.70
   7   1   9   46.40   12.60
 -12  -2   9   15.40   16.60
 -12   2   9    5.50   16.10
 -10  -2   9   20.20   11.60
 -10  -2   9   -5.90   13.60
 -10   2   9   -3.40   13.50
 -10   2   9   19.90   10.60
  -8  -2   9   61.89   13.30
  -8  -2   9   56.09   13.60
  -8   2   9   69.39   13.10
  -8   2   9   52.89   13.70
  -6  -2   9  115.29   14.60
  -6  -2   9  108.49   12.90
  -6   2   9   99.89   14.00
  -6   2   9  120.69   14.60
  -4  -2   9  256.57   15.10
  -4  -2   9  259.67   19.30
  -4   2   9  248.38   16.60
  -4   2   9  286.27   20.20
  -2  -2   9  145.49   11.40
  -2  -2   9  140.89   14.10
  -2   2   9  146.79   13.10
  -2   2   9  132.49   14.70
   0  -2   9  126.89   13.40
   0  -2   9  121.59   14.00
   0  -2   9  146.39   11.90
   0   2   9  114.09   13.10
   0   2   9  152.08   13.90
   2  -2   9   54.19   10.50
   2  -2   9   57.09   11.30
   2   2   9   61.89   11.80
  -2   2  -9   58.79   11.40
   2   2   9   45.20    9.80
   2   2   9   74.39   12.10
   4  -2   9  106.09   13.60
   4  -2   9  101.99   11.30
  -4  -2  -9  111.39   16.00
   4   2   9  108.49   13.20
   4   2   9  117.09   12.90
  -6  -2  -9   32.30   14.40
   6  -2   9   13.90   10.50
   6   2   9    9.90    9.70
  -8  -2  -9   21.20   17.60
   8  -2   9   14.40   12.60
   8   2   9   27.10   12.30
 -11  -3   9   36.80   12.50
 -11  -3   9   32.50   16.10
 -11   3   9   31.20   15.70
 -11   3   9   29.30   11.60
  -9  -3   9   34.00   11.90
  -9  -3   9   40.10   14.00
  -9   3   9   35.60   11.40
  -9   3   9   47.60   14.10
  -7  -3   9   18.30   11.20
  -7  -3   9   39.50   11.80
  -7   3   9   36.30   10.40
  -7   3   9   11.70   10.70
  -5  -3   9  206.48   14.50
  -5  -3   9  197.78   17.10
  -5   3   9  187.18   16.50
  -5   3   9  204.28   17.10
  -3  -3   9    9.80    7.10
  -3  -3   9   11.90    9.80
  -3   3   9   18.10    9.20
  -3   3   9    8.90    8.90
  -1  -3   9  154.88   14.80
  -1   3   9  138.29   14.60
  -1   3   9  140.19   13.20
   1  -3   9   99.09   11.90
   1  -3   9   86.99   12.70
   1   3   9  121.29   13.40
   1   3   9   73.89   11.20
   1   3   9  108.89   13.10
   3  -3   9   41.50    9.10
   3  -3   9   25.80   10.70
  -3  -3  -9   66.89   13.80
   3   3   9   45.20   10.30
   3   3   9   37.80    9.50
   3   3   9   51.29   12.90
  -5  -3  -9  109.89   16.90
   5  -3   9   91.89   14.30
   5   3   9   88.99   12.80
  -7  -3  -9   -7.10   14.50
   7  -3   9   -3.00   10.60
   7   3   9    9.80   10.30
 -12  -4   9   47.50   18.40
 -12   4   9   50.39   18.40
 -10  -4   9  -17.50   12.40
 -10  -4   9   10.40   11.40
 -10   4   9    5.00   14.50
 -10   4   9    3.60    9.80
  -8  -4   9    5.20   10.60
  -8  -4   9   -0.60   11.20
  -8   4   9   11.40   12.10
  -8   4   9    9.30    9.40
  -6  -4   9  142.59   13.60
  -6  -4   9  153.08   16.50
  -6   4   9  135.59   15.60
  -6   4   9  154.18   16.00
  -4  -4   9   19.10    7.70
  -4  -4   9   21.50    9.70
  -4   4   9   22.30   10.50
  -4   4   9   11.30    9.70
  -2  -4   9    8.70    9.60
  -2   4   9    0.90    8.50
  -2   4   9    3.80    8.50
   0  -4   9   84.69   13.30
   0  -4   9   71.39   11.30
   0   4   9   58.89   11.80
   0   4   9   63.79   10.80
   2  -4   9   82.79   11.00
   2  -4   9   48.60   11.40
   2   4   9   73.99   11.30
   2   4   9   63.99   11.10
   2   4   9  100.59   13.90
  -4  -4  -9   19.70   13.20
   4  -4   9   33.70   11.20
   4  -4   9   35.80    8.80
   4   4   9   21.50    8.90
   4   4   9   18.40    8.90
  -6  -4  -9   73.79   17.00
   6  -4   9   52.99   13.00
   6   4   9   70.89   12.10
 -11  -5   9   35.40   13.10
 -11  -5   9   17.10   16.30
 -11   5   9    4.90   15.00
 -11   5   9   14.60   10.50
  -9  -5   9   -6.90   12.30
  -9  -5   9   19.70   11.70
  -9   5   9   27.80   11.10
  -9   5   9   24.30   13.60
  -7  -5   9  153.68   16.80
  -7  -5   9  146.09   15.00
  -7   5   9  143.69   17.30
  -7   5   9  142.99   15.90
  -5  -5   9   52.39   12.30
  -5   5   9   70.19   12.80
  -5   5   9   60.29   11.50
  -3  -5   9  180.48   16.50
  -3   5   9  175.38   16.80
  -3   5   9  196.88   16.20
  -1  -5   9    6.50    9.10
  -1  -5   9   -3.60    9.70
  -1   5   9   15.10    9.00
  -1   5   9   24.70   10.20
   1  -5   9   68.49   10.80
   1  -5   9   70.69   12.40
   1   5   9   79.09   11.80
   1   5   9   70.89   12.40
   3  -5   9    7.70    9.90
   3  -5   9   -0.20    7.60
   3   5   9   -0.70    8.50
   3   5   9    7.20    8.20
   3   5   9   -8.10   10.60
   5  -5   9   19.30   11.20
  -5  -5  -9   36.30   15.10
   5   5   9   33.80    9.90
  -7  -5  -9   14.40   16.00
   7  -5   9    1.30   11.00
 -12  -6   9  -13.30   15.20
 -12   6   9   -3.30   16.40
 -10  -6   9   76.29   17.20
 -10  -6   9  104.89   15.90
 -10   6   9   64.19   17.60
 -10   6   9   87.19   13.90
  -8  -6   9   33.90   12.30
  -8  -6   9   13.30   11.90
  -8   6   9   38.50   13.70
  -8   6   9   17.70   10.00
  -6  -6   9   94.99   14.40
  -6   6   9   66.19   13.70
  -6   6   9  109.89   14.30
  -4  -6   9   19.50   10.80
  -4   6   9   43.10   11.50
  -4   6   9   45.30   11.30
  -2  -6   9  346.27   21.00
  -2   6   9  335.27   20.00
  -2   6   9  316.57   18.80
   0  -6   9  372.66   21.90
   0  -6   9  378.86   20.60
   0   6   9  370.46   21.00
   0   6   9  348.07   20.40
   2  -6   9  133.59   13.40
   2  -6   9  152.48   15.20
   2   6   9  140.29   15.50
   2   6   9  131.49   14.30
  -4  -6  -9   58.49   15.40
   4  -6   9   67.49   10.60
   4  -6   9   85.69   13.80
   4   6   9   70.59   11.90
  -6  -6  -9   33.40   15.40
   6  -6   9   13.20   11.50
   6   6   9  -11.80    8.40
 -11  -7   9    2.30   12.10
 -11  -7   9  -10.10   15.10
 -11   7   9   -5.50   14.80
  -9  -7   9   -0.50   10.80
  -9   7   9   19.10   10.20
  -9   7   9  -18.00   12.60
  -7  -7   9   12.00   10.10
  -7   7   9    0.90   11.30
  -7   7   9   15.10   10.10
  -5  -7   9   13.10    9.30
  -5   7   9   16.60   10.50
  -5   7   9   30.10   10.50
  -3  -7   9   16.50    9.90
  -3   7   9   17.30    9.70
  -3   7   9   17.80   10.20
  -1  -7   9   23.50    9.80
  -1  -7   9   12.90    8.50
  -1   7   9   32.50   10.00
  -1   7   9   10.40    9.60
   1  -7   9    2.30    9.60
   1  -7   9   23.70    9.00
   1   7   9   40.00   11.80
   1   7   9   14.90    9.60
   3  -7   9    4.10    9.00
   3  -7   9    1.50    7.80
   3   7   9   -5.00    8.50
   3   7   9   16.30    8.60
   3   7   9    8.30   11.70
   5  -7   9   12.60   10.50
  -5  -7  -9    0.00   14.20
   5   7   9   18.20    9.20
  -7  -7  -9   28.80   17.10
   7  -7   9   17.70   12.50
 -10  -8   9   11.00   11.70
 -10   8   9    9.50   14.20
 -10   8   9   21.20   10.20
  -8  -8   9   38.10   12.40
  -8   8   9   32.70   14.00
  -8   8   9   40.50   11.30
  -6  -8   9   31.20   12.10
  -6   8   9   18.40   10.30
  -6   8   9   18.90   11.50
  -4  -8   9   86.49   13.20
  -4   8   9   92.99   13.20
  -4   8   9   94.89   13.80
  -2  -8   9    6.70    9.50
  -2   8   9   16.00    9.40
  -2   8   9   13.00   10.10
   0  -8   9   34.70   10.70
   0  -8   9   15.40    9.40
   0   8   9   40.90   10.30
   0   8   9   32.20   10.20
   2  -8   9   14.70   10.50
   2  -8   9   10.60    8.30
   2   8   9   11.80    9.70
   2   8   9   15.60   11.40
   4  -8   9   78.69   14.60
  -4  -8  -9   90.59   17.30
   4   8   9   65.79   11.50
   4   8   9   61.69   15.10
   6  -8   9   63.19   14.70
  -6  -8  -9   64.79   16.90
 -11  -9   9   -1.50   12.50
 -11   9   9    1.20   15.10
  -9  -9   9   47.00   13.40
  -9   9   9   33.50   14.90
  -9   9   9   34.50   11.80
  -7  -9   9   26.40   11.90
  -7   9   9   18.50   10.60
  -7   9   9    3.60   11.70
  -5  -9   9   69.89   12.80
  -5   9   9   69.99   14.10
  -5   9   9   54.89   11.50
  -3  -9   9   -6.90    9.30
  -3   9   9    1.40    9.00
  -3   9   9   15.10   10.30
  -1  -9   9  133.29   14.40
  -1  -9   9  142.39   15.90
  -1   9   9  130.09   15.20
  -1   9   9  136.49   14.80
   1  -9   9   98.19   13.20
   1  -9   9   94.79   12.40
   1   9   9   80.69   13.30
   1   9   9  120.59   16.20
   3  -9   9   48.40   10.30
   3  -9   9   54.09   12.00
   3   9   9   73.79   15.30
   5  -9   9   17.80   12.10
  -5  -9  -9   17.30   14.80
  -7  -9  -9   37.80   17.50
   7  -9   9   -3.60   11.80
 -10 -10   9   -4.70   11.80
 -10  10   9    5.70   10.70
 -10  10   9   -7.70   13.60
  -8 -10   9   23.00   11.30
  -8  10   9   30.50   14.20
  -8  10   9   13.40    9.80
  -6 -10   9    9.80   11.00
  -6  10   9   -1.10   11.10
  -6  10   9   14.90   10.30
  -4 -10   9  221.08   18.80
  -4  10   9  197.98   18.00
  -4  10   9  172.68   17.80
  -2 -10   9   56.39   12.50
  -2 -10   9   47.70   12.00
  -2  10   9   44.90   12.00
  -2  10   9   48.30   11.50
   0 -10   9   40.80   10.60
   0 -10   9   16.30   10.20
   0  10   9   19.60   10.70
   0  10   9   28.70   11.00
   2 -10   9   61.99   11.40
   2 -10   9   53.09   13.10
   2  10   9   46.20   13.90
   4 -10   9   72.39   13.50
   4  10   9   64.69   16.00
   6 -10   9   72.79   15.90
  -6 -10  -9   82.49   18.80
 -11 -11   9   14.40   12.70
 -11  11   9   31.10   17.80
  -9 -11   9   37.10   13.50
  -9  11   9   42.00   12.10
  -9  11   9   25.70   14.90
  -7 -11   9   63.39   14.30
  -7  11   9   40.10   12.00
  -7  11   9   54.59   14.70
  -5 -11   9    7.60   10.30
  -5  11   9   24.90   11.60
  -5  11   9   12.50   10.80
  -3 -11   9   72.19   12.80
  -3  11   9   41.40   12.10
  -3  11   9   83.89   13.50
  -1 -11   9   73.79   12.70
  -1 -11   9   65.99   12.20
  -1  11   9   56.79   12.90
  -1  11   9   94.79   13.80
   1 -11   9    4.60    9.60
   1 -11   9    5.80    8.90
   1  11   9   -5.40   10.70
   3 -11   9   60.99   13.60
   3 -11   9   69.19   11.50
   3  11   9   80.09   16.30
  -5 -11  -9   38.00   16.80
   5 -11   9   -4.30   11.30
   5  11   9    6.20   14.70
  -7 -11  -9    6.00   17.50
   7 -11   9    3.60   13.00
 -10 -12   9   53.09   15.10
 -10  12   9   37.70   17.20
 -10  12   9   49.00   13.90
  -8 -12   9   29.10   12.90
  -8  12   9   -7.20    9.90
  -8  12   9   12.90   13.70
  -6 -12   9   -2.30   11.40
  -6  12   9    5.20   10.90
  -6  12   9    3.30   11.50
  -4 -12   9    9.60    9.90
  -4  12   9  -12.40    9.90
  -4  12   9   -3.30   10.40
  -2 -12   9   12.60   10.40
  -2 -12   9   31.90   11.50
  -2  12   9    6.00   10.60
  -2  12   9   11.50   10.70
   0 -12   9   61.59   12.20
   0 -12   9   65.29   12.50
   0  12   9   46.10   12.20
   2 -12   9   11.90   10.80
   2 -12   9    1.50    9.20
   2  12   9    6.10   11.90
   4 -12   9  182.08   18.80
   4  12   9  149.99   20.00
  -6 -12  -9   40.70   17.20
   6 -12   9   34.80   14.20
  -9 -13   9    3.70   12.00
  -9  13   9    0.60   11.00
  -9  13   9   -2.20   13.60
  -7 -13   9   54.79   14.20
  -7  13   9    9.80   13.00
  -7  13   9   24.30   12.00
  -5 -13   9   18.50   10.70
  -5  13   9    1.50   11.10
  -5  13   9   -5.50   10.60
  -3 -13   9   13.70   10.90
  -3  13   9    0.40   11.10
  -3  13   9    6.20   10.30
  -1 -13   9   88.49   14.00
  -1 -13   9   82.69   13.60
  -1  13   9  101.59   15.10
   1 -13   9   -2.60    9.10
   1 -13   9   -6.50    8.50
   1  13   9   10.30   12.30
   3 -13   9   31.50   10.60
   3 -13   9   48.30   12.90
   3  13   9   60.09   15.10
   5 -13   9   -7.10   11.50
  -5 -13  -9    3.60   14.80
   5  13   9   13.40   15.40
 -10 -14   9   -9.90   12.00
 -10  14   9    2.00   15.30
  -8 -14   9    1.80   11.10
  -8  14   9    2.40   11.10
  -8  14   9   22.70   14.50
  -6 -14   9   76.29   14.60
  -6  14   9   59.89   14.10
  -6  14   9   55.09   15.20
  -4 -14   9   -2.80   10.10
  -4  14   9  -10.20   10.70
  -4  14   9   -3.50   10.10
  -2 -14   9   12.20   11.10
  -2 -14   9   13.40   10.60
  -2  14   9   20.30   11.30
   0 -14   9   -4.80    9.40
   0 -14   9    2.90    9.90
   0  14   9   12.70   11.20
   2 -14   9   33.10   12.30
   2 -14   9   49.99   11.40
   2  14   9   58.19   15.30
   4 -14   9   34.40   13.30
   4  14   9   29.20   15.10
   6 -14   9   14.80   13.70
  -6 -14  -9   19.10   17.10
  -9 -15   9   62.09   15.70
  -9  15   9   55.99   17.00
  -7 -15   9   32.70   13.90
  -7  15   9   27.80   14.90
  -5 -15   9   69.79   14.70
  -5  15   9   54.09   14.80
  -3 -15   9  -20.90    8.90
  -3  15   9    4.20   11.40
  -1 -15   9   15.40   11.00
  -1 -15   9   -2.30   10.40
  -1  15   9   -0.90   11.00
   1 -15   9  233.98   20.10
   1 -15   9  219.58   18.80
   1  15   9  256.27   23.50
   3 -15   9  125.09   14.20
   3 -15   9  116.39   17.00
   3  15   9  103.19   18.30
  -5 -15  -9    8.20   16.20
   5 -15   9   -2.20   12.00
   5  15   9  -21.70   13.90
 -10 -16   9   33.10   14.80
 -10  16   9   23.80   17.30
  -8 -16   9  -11.00   11.60
  -8  16   9   -7.60   13.30
  -6 -16   9    0.60   10.50
  -6  16   9    8.90   13.10
  -4 -16   9   -5.40    9.80
  -4  16   9    7.00   12.00
  -2 -16   9   27.80   11.10
  -2 -16   9   14.20   10.90
  -2  16   9   21.80   12.30
   0 -16   9   -3.30    9.80
   0 -16   9  -18.90    9.80
   0  16   9  -27.60    9.70
   2 -16   9   29.40   11.10
   2 -16   9   30.90   12.50
   2  16   9    8.20   13.20
   4 -16   9   -0.60   11.70
   4  16   9  -17.30   13.30
  -9 -17   9   41.80   15.30
  -9  17   9   16.40   15.80
  -7 -17   9   20.80   13.30
  -7  17   9   23.20   14.90
  -5 -17   9   -6.70   10.70
  -5  17   9   16.50   12.70
  -3 -17   9   -3.20   11.00
  -3  17   9    2.00   12.20
  -1 -17   9   11.80   11.50
  -1 -17   9    6.10   10.50
  -1  17   9   11.80   12.50
   1 -17   9   30.60   11.20
   1 -17   9   17.30   11.20
   1  17   9   -5.40   12.40
   3 -17   9   28.30   11.80
   3 -17   9   15.20   12.10
   3  17   9   28.60   15.00
   5 -17   9    5.00   13.00
   5  17   9  -23.80   15.60
  -8 -18   9   71.89   16.00
  -8  18   9   89.89   19.30
  -6 -18   9   72.89   15.20
  -6  18   9   83.29   17.20
  -4 -18   9  -10.00   11.10
  -4  18   9  -11.70   11.60
  -2 -18   9  119.29   15.40
  -2 -18   9  125.79   16.80
  -2  18   9  109.99   17.90
   0 -18   9   73.69   13.50
   0 -18   9   33.40   12.50
   0  18   9   76.79   16.00
   2 -18   9   40.70   12.90
   2 -18   9   60.39   13.60
   2  18   9   64.09   16.70
   4 -18   9   32.20   14.10
   4  18   9   21.90   16.10
  -7 -19   9   22.60   14.10
  -7  19   9   28.20   14.60
  -5 -19   9   12.30   11.40
  -5  19   9  -13.20   11.70
  -3 -19   9   61.69   14.50
  -3  19   9   68.79   16.30
  -1 -19   9   58.09   13.10
  -1 -19   9   91.89   15.70
  -1  19   9   82.49   17.00
   1 -19   9   55.79   13.00
   1 -19   9   47.40   12.40
   1  19   9   35.10   15.50
   3 -19   9   -6.40   11.90
   3  19   9   18.60   15.20
  -8 -20   9    2.10   13.90
  -8  20   9   -3.00   14.80
  -6 -20   9   30.80   14.20
  -6  20   9   32.70   15.20
  -4 -20   9   15.40   13.10
  -4  20   9   20.30   12.60
  -2 -20   9  -10.30    9.30
  -2 -20   9    1.90   11.40
  -2  20   9  -12.10   11.60
   0 -20   9    6.80   10.10
   0 -20   9   -5.70   11.10
   0  20   9   12.30   13.20
   2 -20   9   -0.30   10.70
   2 -20   9   -1.80   11.20
   2  20   9   22.50   14.90
   4 -20   9   31.70   14.40
   4  20   9   12.00   17.90
  -7 -21   9   18.80   14.70
  -7  21   9   29.40   15.70
  -5 -21   9   63.89   15.00
  -5  21   9   80.19   18.20
  -3 -21   9   16.20   11.90
  -3  21   9   13.20   13.80
  -1 -21   9   42.50   12.30
  -1 -21   9   11.50   11.30
  -1  21   9   10.80   13.50
   1 -21   9    6.30   11.80
   1 -21   9    3.10   10.70
   1  21   9    2.20   14.80
   3 -21   9    2.70   12.40
   3  21   9   40.30   17.50
  -6 -22   9   10.30   14.20
  -6  22   9   25.50   15.20
  -4 -22   9   17.40   13.90
  -4  22   9   97.79   19.00
  -2 -22   9   64.39   15.60
  -2 -22   9   93.49   14.60
  -2  22   9  115.69   19.40
   0 -22   9   67.59   13.80
   0 -22   9   85.89   15.70
   0  22   9  104.09   19.70
   2 -22   9   59.69   14.40
   2 -22   9   65.09   14.50
   2  22   9   60.29   17.80
  -5 -23   9   -0.90   13.70
  -5  23   9    1.90   14.40
  -3 -23   9   46.70   15.20
  -3  23   9   48.10   15.50
  -1 -23   9   14.80   11.20
  -1 -23   9   -8.90   11.10
  -1  23   9    4.90   12.50
   1 -23   9   -7.80   10.00
   1 -23   9   16.50   12.80
   1  23   9  -19.00   14.00
  -4 -24   9   19.50   13.40
  -4  24   9   -1.20   14.70
  -2 -24   9  -21.10   10.80
  -2 -24   9    5.20   12.90
  -2  24   9   36.30   15.90
   0 -24   9   60.19   13.70
   0 -24   9   63.59   15.30
   0  24   9   82.69   19.40
  -3  25   9   -2.50   14.80
  -1 -25   9   28.40   12.60
  -1  25   9   47.70   17.10
 -10   0  10   -1.30   12.70
 -10   0  10   25.60   11.90
  -8   0  10   -0.50   10.10
  -8   0  10   -2.60   11.20
  -6   0  10  400.76   21.60
  -6   0  10  362.86   23.80
  -4   0  10   38.90    9.50
  -4   0  10   70.39   12.70
  -2   0  10  233.68   14.40
  -2   0  10  275.77   19.30
   0   0  10  453.45   22.80
   2   0  10  258.77   17.70
   2   0  10  285.27   19.50
   4   0  10   50.69   11.60
   4   0  10   55.49   10.90
   6   0  10   68.89   13.50
 -11  -1  10  -15.40   10.90
 -11  -1  10   -4.40   15.10
 -11   1  10   -4.20   10.50
 -11   1  10    9.00   14.80
  -9  -1  10   -3.10   12.30
  -9  -1  10   20.40   11.70
  -9   1  10   30.10   12.00
  -9   1  10    2.30   12.60
  -7  -1  10   28.80   11.20
  -7  -1  10   33.60   12.20
  -7   1  10   44.50   12.30
  -7   1  10   20.00   11.70
  -5  -1  10  196.68   17.60
  -5  -1  10  208.58   15.50
  -5   1  10  234.38   19.20
  -5   1  10  193.08   16.00
  -3  -1  10  112.99   11.30
  -3  -1  10  101.09   13.60
  -3   1  10  117.29   12.20
  -3   1  10  112.59   14.30
  -1  -1  10    7.40    9.00
  -1   1  10   35.60   10.50
  -1   1  10   27.00    9.40
   1  -1  10   38.80   10.30
   1  -1  10   49.80   12.10
   1   1  10   46.30   11.10
   1   1  10   31.30   10.70
   1   1  10   27.00   10.00
   3  -1  10   39.20    9.60
   3  -1  10   60.89   12.20
   3   1  10   65.89   11.90
   3   1  10   37.50   10.30
   5  -1  10    8.40    9.80
   5   1  10   15.90    9.70
 -10  -2  10   -2.90   13.40
 -10  -2  10    4.50   10.70
 -10   2  10    6.50   10.70
 -10   2  10   17.70   13.80
  -8  -2  10    9.50   10.70
  -8  -2  10   -5.10   10.70
  -8   2  10  -14.10   11.10
  -8   2  10    5.70   10.60
  -6  -2  10  126.79   15.80
  -6  -2  10  134.99   13.90
  -6   2  10   87.09   13.70
  -6   2  10  115.49   14.90
  -4  -2  10   41.10   11.60
  -4   2  10   55.99   12.20
  -4   2  10   49.30   10.40
  -2  -2  10   -9.80    8.30
  -2   2  10    5.10    7.80
  -2   2  10    7.20    8.60
   0  -2  10   -4.10    8.20
   0  -2  10   -0.20    9.80
   0   2  10   -1.90    8.80
   0   2  10   -4.60    8.40
   2  -2  10   93.09   12.30
   2  -2  10   68.39   12.10
   2   2  10   63.79   12.70
   2   2  10   83.39   11.90
   2   2  10  106.09   14.20
   4  -2  10   31.10   10.90
  -4  -2 -10   30.80   13.10
   4   2  10   32.10   10.10
   4   2  10   24.50   10.20
   6  -2  10   29.60   11.80
   6   2  10   10.90   10.20
 -11  -3  10    8.20   11.30
 -11  -3  10   -2.50   15.00
 -11   3  10   17.60   11.30
 -11   3  10   10.00   15.20
  -9  -3  10   19.80   11.30
  -9  -3  10   19.10   12.90
  -9   3  10    0.60   12.10
  -9   3  10   20.90   10.80
  -7  -3  10    5.00   10.70
  -7  -3  10    3.40   10.60
  -7   3  10   14.20   10.80
  -7   3  10   15.20   11.10
  -5  -3  10   14.70    9.80
  -5   3  10   33.10   11.00
  -5   3  10   14.50   10.00
  -3  -3  10   64.79   12.40
  -3   3  10   63.29   11.10
  -3   3  10   78.79   12.70
  -1  -3  10  104.49   13.30
  -1   3  10   85.49   11.00
  -1   3  10   69.69   12.40
   1  -3  10   88.39   13.80
   1  -3  10   61.59   11.10
   1   3  10  100.89   13.00
   1   3  10  112.39   13.60
   3  -3  10   88.19   14.00
  -3  -3 -10   64.99   14.20
   3  -3  10   73.29   11.30
   3   3  10   64.69   12.60
   3   3  10   85.09   12.10
  -5  -3 -10   31.10   13.80
   5  -3  10    7.40   10.40
   5   3  10    2.80    9.70
 -10  -4  10   33.00   13.30
 -10   4  10   18.90   15.40
 -10   4  10   45.50   13.10
  -8  -4  10   -2.80   10.30
  -8   4  10   23.00   12.30
  -6  -4  10   36.70   12.30
  -6   4  10   41.10   12.30
  -6   4  10   34.10   11.80
  -4  -4  10   73.29   13.20
  -4   4  10   56.79   11.80
  -4   4  10   75.59   12.10
  -2  -4  10   23.30   10.30
  -2   4  10   16.90    8.70
  -2   4  10    4.80    9.80
   0  -4  10   55.39   11.00
   0  -4  10   73.79   13.40
   0   4  10   67.49   12.10
   0   4  10   70.29   12.70
   2  -4  10    6.60   10.10
   2  -4  10    9.80    8.60
   2   4  10   17.60   11.50
   2   4  10    7.50    9.50
   2   4  10   27.00   10.20
  -4  -4 -10   61.79   15.10
   4  -4  10   37.70   11.90
   4   4  10   31.70   10.80
   4   4  10   33.60   11.00
  -6  -4 -10   18.60   14.90
   6  -4  10   -1.50   10.90
   6   4  10   21.20   10.80
 -11  -5  10   10.80   13.00
 -11   5  10  -16.20   14.30
 -11   5  10   -5.70   10.40
  -9  -5  10   61.99   14.10
  -9   5  10   31.70   14.30
  -9   5  10   30.40   11.80
  -7  -5  10    7.70   11.20
  -7   5  10    5.10   10.60
  -7   5  10   11.70   11.20
  -5  -5  10   41.80   12.30
  -5   5  10   62.09   13.20
  -5   5  10   73.89   12.40
  -3  -5  10  140.29   15.60
  -3   5  10  127.49   15.40
  -3   5  10  124.09   14.30
  -1  -5  10   24.00   10.10
  -1   5  10   45.70   10.10
  -1   5  10   37.70   11.20
   1  -5  10   15.70    9.30
   1  -5  10   18.80   10.80
   1   5  10   16.50    9.70
   1   5  10   18.70   10.90
   3  -5  10   23.50   11.20
   3  -5  10   45.00   10.50
  -3  -5 -10   89.79   15.20
   3   5  10   56.19   11.70
   3   5  10   45.40   13.60
   3   5  10   40.90   10.70
  -5  -5 -10   16.70   13.50
   5  -5  10    0.90   10.60
   5   5  10   -3.00    9.20
 -10  -6  10   56.29   14.20
 -10   6  10   60.49   13.20
 -10   6  10   72.09   17.00
  -8  -6  10   11.20   11.50
  -8   6  10  -13.30   11.70
  -8   6  10   -1.10    9.70
  -6  -6  10    7.80   11.30
  -6   6  10   15.10   11.60
  -6   6  10   13.80   11.30
  -4  -6  10    0.10    9.20
  -4   6  10   24.60   11.10
  -4   6  10    9.70    9.50
  -2  -6  10    4.40    8.50
  -2   6  10   14.00    8.50
  -2   6  10  -19.40    8.70
   0  -6  10   12.00    9.50
   0  -6  10   11.40    9.50
   0   6  10   12.70    9.10
   0   6  10   27.60   11.30
   2  -6  10   -6.40    8.60
   2  -6  10    8.90    8.30
   2   6  10   23.40   12.10
   2   6  10    4.40    9.20
   4  -6  10   26.60   11.90
  -4  -6 -10   26.40   13.10
   4   6  10   24.50   10.40
  -6  -6 -10   23.20   16.30
   6  -6  10    2.40   11.70
 -11  -7  10  128.99   18.40
 -11   7  10  132.79   16.60
 -11   7  10  103.89   21.00
  -9  -7  10   19.50   12.30
  -9   7  10   -8.50   11.80
  -9   7  10   22.30   11.30
  -7  -7  10   84.09   14.80
  -7   7  10   59.49   14.60
  -7   7  10   80.19   13.60
  -5  -7  10   70.39   13.60
  -5   7  10   85.69   14.40
  -5   7  10   56.59   12.50
  -3  -7  10   24.10   10.90
  -3   7  10   27.50   11.40
  -3   7  10   23.50   10.80
  -1  -7  10  129.79   15.70
  -1  -7  10  100.19   13.80
  -1   7  10  120.59   15.00
  -1   7  10  124.29   14.30
   1  -7  10    4.30    8.40
   1  -7  10   -4.20    9.80
   1   7  10    3.00    9.20
   1   7  10   10.00   10.40
   3  -7  10   59.99   13.20
   3  -7  10   40.40   10.40
   3   7  10   41.10   13.30
   3   7  10   44.10   11.60
  -5  -7 -10   31.00   15.70
   5  -7  10   39.50   13.40
   5   7  10   24.80   10.50
 -10  -8  10   34.00   13.80
 -10   8  10   45.90   12.90
 -10   8  10   14.90   15.80
  -8  -8  10   15.40   12.00
  -8   8  10    4.70   13.20
  -8   8  10   32.50   11.50
  -6  -8  10  -11.20   10.50
  -6   8  10    7.60   10.70
  -6   8  10  -20.10    9.70
  -4  -8  10   54.79   12.10
  -4   8  10   71.69   13.70
  -4   8  10   52.49   12.60
  -2  -8  10    6.50   10.10
  -2   8  10    8.20    9.70
  -2   8  10   -2.00   10.10
   0  -8  10   31.00   11.90
   0  -8  10   42.00   11.10
   0   8  10   29.30   11.30
   0   8  10   42.20   12.70
   2  -8  10   37.30   10.00
   2  -8  10   33.70   11.80
   2   8  10   40.80   13.20
   2   8  10   -0.60    9.50
   4  -8  10   12.50   12.00
  -4  -8 -10   11.10   14.30
   4   8  10    1.40   14.00
  -6  -8 -10   26.50   15.60
   6  -8  10    5.40   12.20
 -11  -9  10   53.89   15.20
 -11   9  10   35.60   17.10
 -11   9  10   72.39   14.70
  -9  -9  10   80.69   15.50
  -9   9  10   65.19   16.50
  -9   9  10   68.99   14.10
  -7  -9  10   -6.80   10.80
  -7   9  10   17.70   11.40
  -7   9  10   37.90   14.00
  -5  -9  10    6.60    9.90
  -5   9  10   11.10   10.90
  -5   9  10    4.80   10.50
  -3  -9  10   15.00   10.50
  -3   9  10   16.20   11.10
  -3   9  10    8.80   10.30
  -1  -9  10   84.89   13.40
  -1  -9  10  109.09   15.10
  -1   9  10   97.59   13.80
  -1   9  10  111.59   15.20
   1  -9  10   29.90   11.40
   1  -9  10   45.20   11.10
   1   9  10   36.00   13.10
   1   9  10   36.60   11.90
   3  -9  10   61.09   10.90
   3  -9  10   45.30   13.00
   3   9  10   66.59   16.00
  -5  -9 -10    8.70   15.30
   5  -9  10    5.00   11.80
 -10 -10  10   21.90   13.20
 -10  10  10    3.50   11.50
 -10  10  10   30.90   16.00
  -8 -10  10    0.50   10.40
  -8  10  10    2.70   12.60
  -8  10  10   26.50   11.30
  -6 -10  10   36.90   11.90
  -6  10  10   27.40   13.20
  -6  10  10   49.90   13.30
  -4 -10  10   12.00   10.20
  -4  10  10   13.00   10.30
  -4  10  10   12.20   11.00
  -2 -10  10   60.19   12.90
  -2  10  10   33.00   11.40
  -2  10  10   67.49   14.00
   0 -10  10    4.90   10.00
   0 -10  10   38.90   11.30
   0  10  10   31.80   12.10
   0  10  10   43.50   13.50
   2 -10  10   92.69   15.10
   2 -10  10   90.89   12.80
   2  10  10  113.09   16.90
   4 -10  10    0.20   10.30
   4  10  10    5.10   13.60
   6 -10  10    7.90   12.80
  -6 -10 -10    2.50   16.50
  -9 -11  10   43.20   14.10
  -9  11  10   30.20   12.60
  -9  11  10   50.69   16.30
  -7 -11  10   26.60   12.20
  -7  11  10    9.90   11.10
  -7  11  10    9.00   13.20
  -5 -11  10  145.59   17.60
  -5  11  10  134.79   17.30
  -5  11  10  119.09   16.30
  -3 -11  10   83.29   13.70
  -3  11  10   94.39   15.60
  -3  11  10   97.49   14.80
  -1 -11  10   17.40   11.20
  -1 -11  10   22.20    9.80
  -1  11  10   26.10   11.30
  -1  11  10   18.90   11.50
   1 -11  10   31.90   11.60
   1 -11  10   38.20   11.50
   1  11  10   73.39   15.40
   3 -11  10    3.50    8.90
   3 -11  10   21.50   12.00
   3  11  10    8.50   13.00
   5 -11  10   14.80   13.40
  -5 -11 -10   -8.40   15.20
 -10 -12  10    9.10   12.60
 -10  12  10    3.50   15.10
 -10  12  10   -0.50   11.70
  -8 -12  10    4.90   12.20
  -8  12  10    7.90   13.40
  -8  12  10   28.00   12.00
  -6 -12  10   17.50   12.20
  -6  12  10   12.90   12.50
  -6  12  10    4.50   11.70
  -4 -12  10   45.40   13.40
  -4  12  10   47.80   13.60
  -4  12  10   53.99   14.10
  -2 -12  10   93.69   14.90
  -2  12  10  107.79   15.80
  -2  12  10  114.29   16.00
   0 -12  10   13.30   10.10
   0 -12  10    7.30   10.70
   0  12  10   16.60   12.80
   0  12  10   21.20   11.90
   2 -12  10   62.79   13.80
   2 -12  10   48.40   12.00
   2  12  10   72.29   16.00
   4 -12  10   33.80   12.40
   4  12  10    7.40   14.10
  -9 -13  10    2.30   12.80
  -9  13  10   -6.80   13.90
  -9  13  10   10.50   13.10
  -7 -13  10   11.50   11.90
  -7  13  10   -0.60   12.10
  -7  13  10   -2.90   11.20
  -5 -13  10   -2.10   11.50
  -5  13  10  -12.60    9.70
  -5  13  10    7.90   12.10
  -3 -13  10    6.50   10.90
  -3  13  10   26.50   12.20
  -3  13  10    1.90   10.50
  -1 -13  10    6.50   11.20
  -1 -13  10   -9.00    9.90
  -1  13  10   21.10   12.40
  -1  13  10   -4.20   10.20
   1 -13  10    5.80    9.30
   1 -13  10   18.20   11.50
   1  13  10    2.80   12.50
   3 -13  10   28.20   11.10
   3 -13  10   20.40   12.70
   3  13  10   35.80   15.40
  -5 -13 -10   23.30   16.60
   5 -13  10   56.59   15.30
   5  13  10   -3.20   16.00
  -8 -14  10    1.90   12.70
  -8  14  10   23.70   14.30
  -8  14  10   20.10   12.80
  -6 -14  10   84.59   15.70
  -6  14  10   44.10   14.60
  -6  14  10   71.79   15.20
  -4 -14  10   57.29   13.40
  -4  14  10   59.39   14.50
  -4  14  10   48.80   14.40
  -2 -14  10   25.70   11.50
  -2 -14  10   42.20   12.70
  -2  14  10   34.80   12.70
   0 -14  10   71.89   13.50
   0 -14  10   41.50   12.80
   0  14  10   52.49   14.80
   2 -14  10   14.20   11.60
   2 -14  10    8.10   10.40
   2  14  10   11.60   13.20
   4 -14  10   -2.40   12.20
   4  14  10    7.80   15.70
  -9 -15  10    0.00   13.30
  -9  15  10   31.00   16.90
  -7 -15  10   -2.50   11.80
  -7  15  10   -8.60   12.40
  -5 -15  10   35.70   13.40
  -5  15  10   34.60   13.70
  -3 -15  10   13.60   11.70
  -3  15  10    8.70   12.00
  -1 -15  10   10.70   11.10
  -1 -15  10   -1.10   10.80
  -1  15  10   -0.30   11.10
   1 -15  10   16.40   11.50
   1 -15  10   11.20   11.20
   1  15  10   29.20   14.50
   3 -15  10   54.09   14.00
   3  15  10   46.90   16.50
  -8 -16  10   15.10   14.00
  -8  16  10    3.20   14.60
  -6 -16  10   16.70   13.00
  -6  16  10   19.90   14.10
  -4 -16  10   63.69   13.90
  -4  16  10   96.19   16.90
  -2 -16  10    3.00   11.00
  -2 -16  10    6.40   10.70
  -2  16  10   -9.10   11.40
   0 -16  10   97.79   14.70
   0 -16  10   80.09   14.40
   0  16  10  103.59   17.80
   2 -16  10  -11.00   11.00
   2 -16  10    1.40   10.30
   2  16  10  -22.00   12.10
   4 -16  10   58.09   16.10
   4  16  10   67.59   18.70
  -7 -17  10   11.90   13.50
  -7  17  10   -1.10   13.50
  -5 -17  10   20.10   13.00
  -5  17  10   24.20   13.90
  -3 -17  10    2.00   11.90
  -3  17  10   -1.80   11.70
  -1 -17  10   25.90   12.80
  -1 -17  10   41.30   12.60
  -1  17  10   24.90   12.90
   1 -17  10   -6.80   10.80
   1 -17  10   16.20   11.10
   1  17  10   -0.50   13.60
   3 -17  10   45.10   14.00
   3  17  10   28.30   16.30
  -8 -18  10   29.80   15.40
  -8  18  10   56.19   17.60
  -6 -18  10   29.40   14.30
  -6  18  10   30.60   15.20
  -4 -18  10   40.70   13.80
  -4  18  10   28.50   14.40
  -2 -18  10   11.60   11.50
  -2 -18  10    9.60   11.90
  -2  18  10   12.00   12.70
   0 -18  10   -2.40   11.00
   0 -18  10   16.60   11.40
   0  18  10    0.80   13.50
   2 -18  10   47.40   12.80
   2 -18  10   37.60   13.60
   2  18  10   61.49   17.40
  -7 -19  10   35.40   14.40
  -7  19  10   33.60   16.30
  -5 -19  10   25.50   12.80
  -5  19  10   20.00   14.70
  -3 -19  10   14.80   13.20
  -3  19  10    1.90   13.00
  -1 -19  10   15.80   11.90
  -1 -19  10   12.80   12.40
  -1  19  10   31.40   14.00
   1 -19  10   -7.20   11.70
   1 -19  10   10.80   10.60
   1  19  10   25.20   15.30
  -6 -20  10   -0.10   12.30
  -6  20  10  -24.60   13.00
  -4 -20  10   33.70   14.60
  -4  20  10   83.39   18.10
  -2 -20  10   71.69   14.90
  -2 -20  10  101.29   16.90
  -2  20  10   99.19   18.40
   0 -20  10   -1.60   11.30
   0 -20  10   15.80   12.90
   0  20  10   22.70   14.90
   2 -20  10   18.30   12.70
   2 -20  10    6.90   12.30
   2  20  10   32.90   16.50
  -5 -21  10   -2.50   12.90
  -5  21  10   -6.50   14.00
  -3 -21  10   90.09   17.50
  -3  21  10   91.39   19.50
  -1 -21  10   76.39   15.70
  -1 -21  10   69.39   14.80
  -1  21  10   61.29   17.30
   1 -21  10   21.60   12.40
   1 -21  10   14.70   13.40
   1  21  10   33.20   17.10
  -4 -22  10   -6.20   12.70
  -4  22  10    4.50   14.20
  -2 -22  10    2.80   12.70
  -2  22  10    4.30   14.10
   0 -22  10   10.70   12.10
   0 -22  10  -12.20   11.80
   0  22  10   31.80   16.10
  -3  23  10   56.99   17.50
 -10   0  11    1.20   12.40
 -10   0  11   -9.40   13.60
  -8   0  11   -2.80   10.90
  -8   0  11  -20.20   10.20
  -6   0  11    5.60   10.90
  -4   0  11   -6.40    9.30
  -2   0  11    3.90    8.80
   0   0  11   -2.10    8.90
   2   0  11   -4.10    7.80
   2   0  11   -2.40    9.70
   4   0  11   11.10   10.30
  -9  -1  11   14.20   12.00
  -9   1  11   20.80   12.60
  -9   1  11    1.60   12.50
  -7  -1  11   22.80   11.30
  -7   1  11   25.70   12.00
  -7   1  11   39.00   13.10
  -5  -1  11   11.00   11.10
  -5   1  11   14.00    9.80
  -5   1  11   27.00   11.80
  -3  -1  11  134.49   15.70
  -3   1  11  140.79   16.40
  -1  -1  11    1.50    9.50
  -1   1  11    3.60    9.50
   1  -1  11  145.59   16.50
   1  -1  11  117.19   14.00
   1   1  11  110.39   14.20
   3  -1  11   12.40    8.70
   3  -1  11   -3.20   10.00
   3   1  11   19.50    9.70
   3   1  11   10.50   10.40
   5  -1  11    9.50   10.90
   5   1  11   18.10   11.20
 -10  -2  11   -6.00   11.90
 -10   2  11   15.00   12.20
 -10   2  11    1.20   13.90
  -8  -2  11   18.00   11.50
  -8   2  11   23.70   12.40
  -8   2  11   12.10   10.30
  -6  -2  11   60.89   13.40
  -6   2  11   27.40   11.10
  -6   2  11   50.49   13.80
  -4  -2  11   59.79   13.00
  -4   2  11   81.69   12.50
  -4   2  11   45.80   12.10
  -2  -2  11   86.89   13.60
  -2   2  11   98.29   14.40
   0  -2  11   90.49   13.40
   0   2  11   80.79   13.30
   2  -2  11   79.29   13.90
   2  -2  11   53.49   11.50
   2   2  11   71.29   12.10
   2   2  11   66.89   12.90
   4  -2  11   44.40   12.50
   4   2  11   31.80   11.70
  -9  -3  11   22.20   12.60
  -9   3  11    0.60   13.40
  -9   3  11   27.60   12.50
  -7  -3  11   14.40   12.20
  -7   3  11    4.10   11.00
  -7   3  11   12.20   11.40
  -5  -3  11  193.78   19.10
  -5   3  11  168.68   18.30
  -5   3  11  175.28   16.30
  -3  -3  11    7.50   10.30
  -3   3  11    1.70   10.50
  -3   3  11   14.00    9.10
  -1  -3  11   31.60   10.90
  -1   3  11   13.40    9.60
  -1   3  11   19.30   10.50
   1  -3  11   -7.20    8.70
   1  -3  11   13.60    9.80
   1   3  11    3.10    9.40
   3  -3  11   87.99   14.20
   3  -3  11  101.49   13.50
   3   3  11  111.39   14.60
   3   3  11   67.39   12.40
   5  -3  11   41.70   13.10
   5   3  11   36.80   12.30
 -10  -4  11    7.20   11.70
 -10   4  11    2.80   11.60
 -10   4  11  -22.00   12.30
  -8  -4  11   17.10   12.10
  -8   4  11   14.10   11.50
  -8   4  11   -1.60   11.80
  -6  -4  11   57.29   13.40
  -6   4  11   44.60   12.20
  -6   4  11   29.50   12.70
  -4  -4  11   -0.40   10.30
  -4   4  11   24.30   10.30
  -4   4  11    8.70   10.20
  -2  -4  11    5.90    8.90
  -2   4  11   15.60    9.10
  -2   4  11    5.50   10.50
   0  -4  11   19.40   11.70
   0  -4  11   34.10   10.50
   0   4  11   22.60   11.30
   0   4  11   18.10   10.30
   2  -4  11    7.80    8.30
   2  -4  11    8.10   11.00
   2   4  11   11.00    9.40
   4  -4  11   39.10   12.30
   4   4  11   11.60   10.80
  -9  -5  11   16.10   12.30
  -9   5  11   15.20   11.50
  -9   5  11    0.30   12.40
  -7  -5  11   21.70   12.00
  -7   5  11   27.30   11.90
  -7   5  11   13.40   11.80
  -5  -5  11   57.19   13.40
  -5   5  11   35.80   11.80
  -5   5  11   33.20   13.10
  -3  -5  11  151.38   17.00
  -3   5  11  167.88   15.90
  -3   5  11  190.08   19.10
  -1  -5  11   46.10   11.70
  -1   5  11   20.00   10.20
  -1   5  11   51.39   12.20
   1  -5  11   17.90   11.70
   1  -5  11   18.60    9.60
   1   5  11   11.70    9.70
   1   5  11   30.00   12.00
   3  -5  11   94.79   12.60
  -3  -5 -11   93.09   16.00
   3  -5  11   58.09   13.50
   3   5  11  105.99   14.60
   3   5  11  103.69   17.00
   5  -5  11   -6.70   10.30
   5   5  11   -6.50    9.40
 -10  -6  11   17.00   13.20
 -10   6  11    3.20   14.20
 -10   6  11   28.20   12.60
  -8  -6  11   13.70   11.60
  -8   6  11   13.60   11.30
  -8   6  11   22.90   12.70
  -6  -6  11   60.29   13.60
  -6   6  11   58.09   13.20
  -6   6  11   49.00   13.20
  -4  -6  11   17.70   11.40
  -4   6  11   22.90   10.90
  -4   6  11    5.40    9.90
  -2  -6  11   11.40    9.50
  -2   6  11   19.40   11.40
  -2   6  11   37.90   10.90
   0  -6  11   -6.80   10.20
   0  -6  11   15.00    9.70
   0   6  11    7.80   11.00
   0   6  11    1.20    9.00
   2  -6  11    4.70    8.60
   2  -6  11    0.00   10.60
   2   6  11   11.10    9.60
   2   6  11   16.70   12.40
   4  -6  11   70.99   15.00
  -4  -6 -11   75.59   16.00
   4   6  11   47.20   12.10
  -9  -7  11   27.20   13.90
  -9   7  11   38.80   13.70
  -9   7  11   15.20   14.50
  -7  -7  11   59.49   13.60
  -7   7  11   38.40   12.80
  -7   7  11   22.10   11.40
  -5  -7  11   37.40   12.70
  -5   7  11   52.79   13.00
  -5   7  11   39.20   13.20
  -3  -7  11   57.89   13.20
  -3   7  11   78.89   14.60
  -3   7  11   45.90   12.20
  -1  -7  11    4.70    9.80
  -1   7  11   15.50   11.00
  -1   7  11    7.70    9.00
   1  -7  11   18.50    9.70
   1  -7  11   28.60   12.10
   1   7  11   18.10   12.20
   1   7  11    6.40   10.10
   3  -7  11  -25.30    9.20
   3  -7  11   -6.90    9.00
   3   7  11    0.40    9.70
   3   7  11    2.10   13.00
  -5  -7 -11   56.79   17.40
   5  -7  11   20.30   13.30
 -10  -8  11   28.40   13.90
 -10   8  11   22.40   15.20
 -10   8  11   30.40   13.00
  -8  -8  11  -10.00   10.20
  -8   8  11    1.90   10.80
  -8   8  11   -4.00   12.20
  -6  -8  11   48.60   13.50
  -6   8  11   42.00   12.60
  -6   8  11   42.70   13.60
  -4  -8  11   90.39   15.00
  -4   8  11   60.59   13.00
  -4   8  11   41.90   12.40
  -2  -8  11   11.70   10.50
  -2   8  11    7.80   10.00
  -2   8  11    4.80   10.80
   0  -8  11   61.09   14.00
   0  -8  11   82.79   13.10
   0   8  11   80.39   14.60
   0   8  11   73.49   14.00
   2  -8  11   30.10   10.10
   2  -8  11   18.30   11.60
   2   8  11   43.00   12.20
   2   8  11   64.29   15.30
   4  -8  11   83.69   15.70
  -4  -8 -11   81.99   17.40
  -9  -9  11   37.90   13.50
  -9   9  11   13.40   12.60
  -9   9  11   14.50   14.70
  -7  -9  11   62.89   14.80
  -7   9  11   81.69   15.40
  -7   9  11   59.39   13.70
  -5  -9  11   20.80   11.90
  -5   9  11   13.00   11.60
  -5   9  11   15.60   11.90
  -3  -9  11   16.70   11.70
  -3   9  11   14.60   10.70
  -3   9  11    3.30   11.40
  -1  -9  11   44.00   11.90
  -1  -9  11   42.90   13.30
  -1   9  11   46.50   11.50
  -1   9  11   58.19   13.60
   1  -9  11   17.50   10.40
   1  -9  11   14.30   11.50
   1   9  11  -17.00    9.30
   1   9  11   19.80   12.80
   3  -9  11  128.29   17.10
   3   9  11   88.99   17.20
  -8 -10  11    4.40   12.70
  -8  10  11   12.60   13.00
  -8  10  11   19.50   12.30
  -6 -10  11    2.50   11.40
  -6  10  11    2.80   11.40
  -6  10  11    3.50   11.40
  -4 -10  11   22.70   11.30
  -4  10  11   45.40   13.80
  -4  10  11   60.09   13.40
  -2 -10  11   72.39   13.80
  -2  10  11   54.99   12.60
  -2  10  11   74.59   15.30
   0 -10  11  -28.60    9.10
   0 -10  11    7.90   10.00
   0  10  11  -10.30   10.10
   0  10  11    6.50   11.80
   2 -10  11   73.99   14.90
   2 -10  11   54.49   12.30
   2  10  11   82.99   15.80
  -4 -10 -11   48.80   17.20
   4 -10  11   78.59   16.20
   4  10  11    6.40   15.30
  -9 -11  11    3.30   13.20
  -9  11  11   -1.90   14.00
  -9  11  11  -10.00   11.00
  -7 -11  11   44.60   14.00
  -7  11  11   52.39   15.10
  -7  11  11   46.90   14.30
  -5 -11  11   -2.60   10.60
  -5  11  11    4.00   11.60
  -5  11  11   18.90   11.70
  -3 -11  11   39.10   12.60
  -3  11  11   28.40   12.00
  -3  11  11   24.50   11.30
  -1 -11  11   85.19   15.30
  -1 -11  11   95.39   14.80
  -1  11  11  118.49   15.30
  -1  11  11  104.09   16.20
   1 -11  11   68.69   14.40
   1 -11  11   79.09   13.60
   1  11  11   45.10   14.20
   3 -11  11   95.29   16.50
   3  11  11   85.59   18.40
  -8 -12  11   36.00   14.60
  -8  12  11   23.40   13.30
  -8  12  11   13.80   13.70
  -6 -12  11   10.70   12.30
  -6  12  11    3.70   11.20
  -6  12  11   12.20   12.80
  -4 -12  11   19.80   10.90
  -4  12  11   37.10   12.70
  -4  12  11   45.80   13.90
  -2 -12  11   42.10   12.60
  -2  12  11   32.00   11.90
  -2  12  11   32.00   12.50
   0 -12  11   28.20   11.40
   0 -12  11   12.20   10.80
   0  12  11   19.50   12.20
   0  12  11   33.50   13.20
   2 -12  11   23.00   11.50
   2 -12  11   43.60   12.10
   2  12  11   35.50   14.50
   4 -12  11   28.40   14.20
   4  12  11   35.90   16.70
  -9 -13  11    2.80   13.40
  -9  13  11   -3.40   12.60
  -9  13  11    8.70   15.40
  -7 -13  11   26.60   14.50
  -7  13  11   15.30   13.20
  -7  13  11   53.89   15.60
  -5 -13  11    6.50   11.80
  -5  13  11   21.00   13.10
  -5  13  11   11.20   12.00
  -3 -13  11   59.59   14.50
  -3  13  11   55.29   13.50
  -3  13  11   70.09   15.80
  -1 -13  11    2.40   10.70
  -1 -13  11   25.90   11.80
  -1  13  11   31.50   13.40
  -1  13  11    3.90   10.70
   1 -13  11    8.10   11.70
   1 -13  11    5.00   10.50
   1  13  11   18.80   13.60
   3 -13  11    8.00   12.40
   3  13  11   32.20   15.70
  -8 -14  11   16.40   14.30
  -8  14  11    4.30   13.80
  -8  14  11   26.40   13.90
  -6 -14  11   25.80   13.60
  -6  14  11   11.80   13.30
  -6  14  11   20.20   14.00
  -4 -14  11    4.20   12.10
  -4  14  11   18.40   12.40
  -4  14  11   10.20   13.00
  -2 -14  11  -10.10   10.60
  -2  14  11    1.60   11.60
   0 -14  11   23.90   12.60
   0 -14  11   19.30   11.40
   0  14  11   38.90   15.00
   2 -14  11   21.60   11.20
   2 -14  11   38.00   13.80
   2  14  11   56.69   16.90
  -7 -15  11   50.69   15.60
  -7  15  11   79.69   18.10
  -7  15  11   45.50   15.40
  -5 -15  11   21.70   13.10
  -5  15  11    4.60   13.50
  -5  15  11   21.00   13.10
  -3 -15  11   -2.60   11.20
  -3  15  11   -3.70   11.60
  -1 -15  11   60.89   14.30
  -1 -15  11   56.89   13.80
  -1  15  11   54.89   13.70
   1 -15  11   37.00   12.50
   1 -15  11   18.00   11.90
   1  15  11   24.40   14.50
   3  15  11   16.90   16.00
  -6 -16  11  -12.00   12.00
  -6  16  11  -18.50   11.80
  -4 -16  11   15.80   12.80
  -4  16  11    2.50   12.40
  -2 -16  11   46.50   14.10
  -2  16  11   67.29   15.40
   0 -16  11    7.70   12.30
   0 -16  11    0.50   10.70
   0  16  11   10.40   13.50
   2 -16  11   -0.30   11.90
   2 -16  11   13.40   12.10
   2  16  11   21.70   15.20
  -7 -17  11   -2.40   13.10
  -7  17  11   -8.70   13.70
  -5 -17  11   36.20   14.10
  -5  17  11   34.70   15.20
  -3 -17  11   26.50   13.40
  -3  17  11   28.20   13.90
  -1 -17  11   76.89   15.50
  -1 -17  11  102.59   16.50
  -1  17  11   89.19   16.50
   1 -17  11   27.90   12.80
   1 -17  11   41.30   14.10
   1  17  11   16.50   14.90
  -6 -18  11   -3.10   13.30
  -6  18  11   40.10   15.90
  -4 -18  11    6.60   13.20
  -4  18  11   10.70   13.70
  -2 -18  11   -2.60   12.30
  -2  18  11   16.30   13.60
   0 -18  11   12.20   12.30
   0 -18  11   16.60   13.00
   0  18  11   32.10   15.40
  -5 -19  11   -0.40   13.00
  -5  19  11    6.80   13.90
  -3 -19  11   45.60   14.60
  -3  19  11   27.50   14.70
  -1 -19  11   26.60   13.20
  -1 -19  11   18.20   12.70
  -1  19  11   28.70   14.50
  -4  20  11   -3.80   13.30
  -2 -20  11    7.80   13.30
  -2  20  11    2.20   13.80
  -8   0  12   69.29   15.70
  -6   0  12    8.00   10.50
  -4   0  12   54.99   12.50
  -2   0  12    8.10   10.30
   0   0  12    6.30    9.50
   2   0  12   10.10   10.10
   2   0  12    4.90   11.10
   4   0  12   35.40   12.90
  -9  -1  12   -8.00   11.70
  -9   1  12   21.10   13.20
  -7  -1  12   32.00   13.30
  -7   1  12   37.80   13.80
  -5  -1  12   47.70   13.30
  -5   1  12   26.10   12.80
  -3  -1  12   17.50   10.20
  -3   1  12   10.20   10.30
  -1  -1  12   27.00   11.10
  -1   1  12    4.80   10.30
   1  -1  12   12.20    9.60
   1   1  12   15.30    9.70
   3  -1  12   16.70   11.70
   3  -1  12   21.00   10.60
   3   1  12   28.00   11.20
   3   1  12   22.20   11.90
  -8  -2  12   14.20   12.50
  -8   2  12   14.90   12.50
  -6  -2  12   23.50   12.40
  -6   2  12   43.30   13.30
  -4  -2  12   -2.90    8.80
  -4   2  12   -3.20    9.40
  -2  -2  12    5.90   10.00
  -2   2  12    2.70   10.30
   0  -2  12    8.90    9.30
   0   2  12    5.50    9.40
   2  -2  12   21.80   10.90
   2  -2  12    2.80   11.20
   2   2  12   24.70   11.20
  -9  -3  12   22.20   13.30
  -9   3  12   26.80   13.40
  -7  -3  12   29.00   12.30
  -7   3  12   29.20   13.30
  -5  -3  12   41.00   11.80
  -5   3  12   53.89   13.80
  -3  -3  12   17.30   10.90
  -3   3  12   -6.60    9.80
  -1  -3  12   49.00   12.00
  -1   3  12   41.60   12.50
   1  -3  12    6.80   11.20
   1  -3  12   16.40    9.70
   1   3  12   -8.30    8.60
   3  -3  12    4.70   11.60
   3   3  12   -2.20    9.60
  -8  -4  12   11.40   12.60
  -8   4  12   15.40   13.20
  -8   4  12   -5.30   11.80
  -6  -4  12   95.69   15.70
  -6   4  12   98.29   14.80
  -6   4  12  131.89   18.40
  -4  -4  12   90.39   14.90
  -4   4  12   99.49   16.30
  -2  -4  12  -11.00    9.30
  -2   4  12   10.30    9.90
   0  -4  12   29.70   11.00
   0   4  12   14.40   10.80
   2  -4  12   28.20   12.40
   2  -4  12   42.30   11.00
   2   4  12   33.50   12.20
  -9  -5  12   59.99   16.20
  -9   5  12   72.69   16.90
  -9   5  12   74.99   15.30
  -7  -5  12    8.80   12.00
  -7   5  12  -23.20    9.80
  -7   5  12   15.70   12.80
  -5  -5  12   55.39   13.70
  -5   5  12   57.49   14.00
  -5   5  12   43.10   12.00
  -3  -5  12   11.30   10.70
  -3   5  12   19.20   11.90
  -1  -5  12   37.90   11.40
  -1   5  12   24.20   11.70
   1  -5  12   45.00   14.00
   1  -5  12   66.99   13.30
   1   5  12   45.50   12.30
   3  -5  12   23.50   13.00
   3   5  12   31.50   12.10
  -8  -6  12   31.10   14.40
  -8   6  12   39.80   14.60
  -8   6  12   50.79   14.20
  -6  -6  12    9.40   10.90
  -6   6  12   12.30   11.90
  -6   6  12   13.30   11.20
  -4  -6  12   -3.60   10.50
  -4   6  12    5.20    9.80
  -4   6  12   -5.90   10.90
  -2  -6  12   19.30   10.30
  -2   6  12   36.50   10.70
  -2   6  12   28.30   12.10
   0  -6  12   -2.70    9.40
   0   6  12    8.30   11.00
   2  -6  12    8.10   11.80
   2  -6  12   15.30   11.00
   2   6  12   24.20   12.00
  -9  -7  12    4.10   12.70
  -9   7  12  -11.00   13.20
  -9   7  12   15.10   12.80
  -7  -7  12   24.00   13.20
  -7   7  12   23.30   13.10
  -7   7  12   12.20   12.00
  -5  -7  12   51.39   13.10
  -5   7  12   51.69   13.10
  -5   7  12   57.59   14.70
  -3  -7  12   -8.90    9.70
  -3   7  12   -4.20   10.80
  -3   7  12    4.70    9.90
  -1  -7  12   32.80   11.90
  -1   7  12   34.00   12.60
  -1   7  12   51.69   13.10
   1  -7  12  -12.50   10.90
   1  -7  12    7.00    9.90
   1   7  12   13.20   10.80
   3  -7  12   24.40   12.50
   3   7  12  -30.80    9.80
  -8  -8  12    0.00   12.60
  -8   8  12    9.50   12.50
  -8   8  12   18.10   14.00
  -6  -8  12    3.20   11.90
  -6   8  12   -5.20   11.60
  -6   8  12   18.80   11.30
  -4  -8  12   -4.30   10.30
  -4   8  12   -4.50    9.80
  -4   8  12   -9.10   10.70
  -2  -8  12   27.60   11.50
  -2   8  12   12.70   12.20
  -2   8  12   36.30   11.20
   0  -8  12   21.70   13.00
   0  -8  12   17.60   10.40
   0   8  12   40.60   13.60
   0   8  12   52.09   13.80
   2  -8  12   -3.90    9.40
   2  -8  12  -13.90   11.60
   2   8  12   15.50   11.60
   2   8  12    5.30   13.60
  -7  -9  12   16.50   12.30
  -7   9  12   35.60   14.20
  -7   9  12   42.50   14.60
  -5  -9  12   25.50   13.20
  -5   9  12   28.90   13.10
  -5   9  12   24.20   13.30
  -3  -9  12   52.59   13.30
  -3   9  12   26.30   12.40
  -3   9  12   48.80   12.20
  -1  -9  12    5.40   10.30
  -1   9  12    4.20   11.50
  -1   9  12    4.40   11.70
   1  -9  12   12.90   10.30
   1  -9  12   30.80   13.50
   1   9  12   19.70   12.30
   1   9  12   20.70   13.90
   3   9  12   81.29   17.90
  -8 -10  12    5.40   13.10
  -8  10  12    8.20   12.70
  -8  10  12    1.10   12.50
  -6 -10  12  -20.60   10.90
  -6  10  12    0.30   12.20
  -6  10  12   -4.30   11.00
  -4 -10  12   -3.00   10.90
  -4  10  12   -8.40    9.80
  -4  10  12   32.30   12.70
  -2 -10  12   58.69   13.70
  -2  10  12   63.19   13.50
  -2  10  12   75.19   15.60
   0 -10  12   12.50   12.30
   0 -10  12   -3.40    9.90
   0  10  12   17.30   13.10
   0  10  12   18.10   12.40
   2 -10  12   17.40   10.80
   2 -10  12    1.00   12.00
   2  10  12  -16.60   12.20
  -7 -11  12   51.09   14.50
  -7  11  12   65.39   16.50
  -7  11  12   50.79   15.50
  -5 -11  12    6.70   12.10
  -5  11  12   22.40   13.00
  -5  11  12    8.10   12.40
  -3 -11  12   41.20   13.30
  -3  11  12   32.70   12.10
  -3  11  12   27.70   13.90
  -1 -11  12   41.70   12.90
  -1  11  12   48.60   15.00
  -1  11  12   49.10   14.50
   1 -11  12   49.40   14.90
   1 -11  12   46.10   12.60
   1  11  12   52.49   16.00
  -6 -12  12   18.90   13.10
  -6  12  12    3.70   13.40
  -6  12  12   14.90   12.60
  -4 -12  12    0.50   11.80
  -4  12  12   20.00   14.00
  -4  12  12    3.50   11.50
  -2 -12  12   66.29   14.70
  -2  12  12   77.79   16.70
  -2  12  12   57.39   13.70
   0 -12  12    8.70   12.70
   0 -12  12  -13.60    9.60
   0  12  12    9.10   13.90
   2 -12  12   18.10   13.60
   2  12  12   30.50   16.40
  -7 -13  12   12.60   13.80
  -7  13  12   20.40   14.50
  -7  13  12   23.10   15.10
  -5 -13  12   -5.70   11.80
  -5  13  12   13.10   13.90
  -5  13  12    7.60   12.50
  -3 -13  12   18.00   12.70
  -3  13  12   35.50   14.90
  -3  13  12   38.10   13.30
  -1 -13  12   27.70   12.70
  -1  13  12   28.00   14.00
   1 -13  12    7.60   11.20
   1 -13  12   35.20   14.80
   1  13  12   32.10   15.40
  -6 -14  12   48.80   16.00
  -6  14  12   33.60   16.20
  -6  14  12   60.19   16.50
  -4 -14  12   24.10   13.00
  -4  14  12   37.70   15.60
  -4  14  12   35.20   14.00
  -2 -14  12   49.20   14.40
  -2  14  12   58.49   15.20
   0 -14  12   46.50   14.30
   0 -14  12   70.89   15.80
   0  14  12  103.69   19.10
  -5 -15  12  -15.10   11.40
  -5  15  12    3.60   12.70
  -5  15  12  -13.10   12.90
  -3 -15  12   13.90   12.50
  -3  15  12   36.60   13.70
  -1 -15  12   -0.90   11.80
  -1 -15  12   -5.30   12.50
  -1  15  12   11.60   14.40
  -4 -16  12   19.30   13.60
  -4  16  12   49.70   15.10
  -2 -16  12   79.39   16.20
  -2  16  12   68.99   15.40
  -3  17  12   49.20   15.40
  -8   0  13    9.80   13.20
  -6   0  13   18.70   13.20
  -4   0  13    6.70   12.10
  -2   0  13  -11.10   10.10
   0   0  13    1.90   10.20
  -7  -1  13   10.60   11.70
  -7   1  13   -2.00   12.40
  -5  -1  13   -0.40   11.40
  -5   1  13   16.00   12.00
  -3  -1  13    5.50   10.40
  -3   1  13    6.10   11.70
  -1  -1  13   -1.30   10.30
  -1   1  13   -2.10    9.70
   1  -1  13   14.60   10.70
   1   1  13   -3.90   10.20
  -8  -2  13    7.40   12.90
  -8   2  13    7.30   13.50
  -6  -2  13   33.70   13.80
  -6   2  13   16.20   12.60
  -4  -2  13   -2.80   10.60
  -4   2  13   10.40   11.20
  -2  -2  13    1.70   10.80
  -2   2  13   15.90   11.30
   0  -2  13   47.70   13.00
   0   2  13   71.49   13.80
  -7  -3  13   91.79   16.30
  -7   3  13   88.89   17.90
  -5  -3  13   91.39   16.00
  -5   3  13  104.09   18.40
  -3  -3  13   -5.90    9.30
  -3   3  13    5.90   11.00
  -1  -3  13    3.40   10.80
  -1   3  13   11.40   11.40
   1  -3  13   53.09   13.10
   1   3  13   69.49   13.90
  -6  -4  13   14.30   12.20
  -6   4  13   -4.90   12.90
  -4  -4  13   23.10   12.10
  -4   4  13   13.00   13.00
  -2  -4  13   29.90   11.90
  -2   4  13   27.00   12.90
   0  -4  13   19.70   11.10
   0   4  13   22.00   11.70
  -7  -5  13   -1.70   11.60
  -7   5  13   -1.40   12.50
  -5  -5  13   17.40   12.10
  -5   5  13   10.10   11.70
  -3  -5  13   -0.20   10.40
  -3   5  13   10.50   12.40
  -1  -5  13   13.60   11.40
  -1   5  13   -3.80   10.80
   1  -5  13   34.90   11.80
   1   5  13   27.70   12.30
  -6  -6  13   31.60   13.00
  -6   6  13   26.30   14.30
  -4  -6  13   31.10   12.60
  -4   6  13   26.30   13.70
  -2  -6  13   39.90   12.70
  -2   6  13   74.29   15.70
   0  -6  13   37.20   12.60
   0   6  13   31.40   12.90
  -7  -7  13   50.49   15.20
  -7   7  13   48.60   14.50
  -5  -7  13   19.80   12.90
  -5   7  13   22.00   13.90
  -3  -7  13   -4.70   10.50
  -3   7  13    9.80   12.60
  -1  -7  13   17.60   11.80
  -1   7  13   30.70   13.20
   1  -7  13    4.90   12.90
  -6  -8  13   44.10   13.50
  -6   8  13   29.70   13.50
  -6   8  13   44.40   14.30
  -4  -8  13   39.20   13.70
  -4   8  13   17.10   13.60
  -2  -8  13   23.00   12.20
  -2   8  13   24.80   12.60
   0  -8  13  101.29   15.80
   0   8  13   88.19   16.20
  -5  -9  13   31.80   13.80
  -5   9  13   27.70   14.60
  -5   9  13   34.30   13.20
  -3  -9  13   11.30   12.20
  -3   9  13   15.60   11.70
  -3   9  13   28.10   13.30
  -1  -9  13    1.20   11.00
  -1   9  13   -7.60   11.80
  -6 -10  13    8.10   12.60
  -6  10  13   17.70   14.60
  -4 -10  13   43.10   14.30
  -4  10  13   20.60   14.10
  -4  10  13    6.40   12.10
  -2 -10  13  113.09   17.20
  -2  10  13  110.79   18.40
  -2  10  13   96.89   16.00
  -5 -11  13   -2.40   11.00
  -5  11  13   -8.90   13.10
  -5  11  13   12.40   12.20
  -3 -11  13  -16.20   11.20
  -3  11  13   12.30   12.70
  -3  11  13   11.20   14.50
  -1  11  13   85.89   18.30
  -4  12  13   11.70   11.60
  -4  12  13   27.00   15.00
  -2  12  13   12.40   12.00
   0   0   0    0.00    0.00

_computing_structure_solution     'SHELXT 2014/5 (Sheldrick, 2014)'
;
_shelx_hkl_checksum              31789
_shelx_shelxl_version_number     2014/7
_olex2_submission_special_instructions 'No special instructions were received'
loop_
_space_group_symop_operation_xyz
'x, y, z'
'x, -y, z+1/2'
'x+1/2, y+1/2, z'
'x+1/2, -y+1/2, z+1/2'
loop_
_atom_site_label
_atom_site_type_symbol
_atom_site_fract_x
_atom_site_fract_y
_atom_site_fract_z
_atom_site_U_iso_or_equiv
_atom_site_adp_type
_atom_site_occupancy
_atom_site_site_symmetry_order
_atom_site_calc_flag
_atom_site_refinement_flags_posn
S1 S 0.63671(12) 0.28290(5) 0.53928(13) 0.0255(3) Uani 1 1 d .
O1 O 0.1875(4) 0.46421(17) 0.3157(4) 0.0366(10) Uani 1 1 d .
O2 O 0.0328(3) 0.46578(14) 0.4241(4) 0.0312(9) Uani 1 1 d .
O3 O 0.5069(3) 0.26679(14) 0.4826(4) 0.0333(9) Uani 1 1 d .
O4 O 0.7322(4) 0.24413(13) 0.5962(4) 0.0313(9) Uani 1 1 d .
N1 N 0.5778(4) 0.46840(16) 0.6234(4) 0.0219(9) Uani 1 1 d .
N2 N 0.6283(4) 0.32650(15) 0.6584(4) 0.0220(9) Uani 1 1 d .
N3 N 0.2278(4) 0.43842(16) 0.5269(4) 0.0213(9) Uani 1 1 d .
C1 C 0.4498(5) 0.47333(19) 0.5721(5) 0.0216(11) Uani 1 1 d .
C2 C 0.3639(5) 0.42941(19) 0.5543(5) 0.0202(10) Uani 1 1 d .
C3 C 0.4126(5) 0.37690(19) 0.5736(4) 0.0203(10) Uani 1 1 d .
C4 C 0.5465(5) 0.37267(18) 0.6209(4) 0.0194(10) Uani 1 1 d .
C5 C 0.6219(5) 0.41875(18) 0.6516(5) 0.0214(10) Uani 1 1 d .
C6 C 0.7516(5) 0.40357(18) 0.7210(5) 0.0223(11) Uani 1 1 d .
C7 C 0.7548(5) 0.34789(18) 0.7250(5) 0.0226(10) Uani 1 1 d .
C8 C 0.8638(5) 0.32051(19) 0.7908(5) 0.0291(12) Uani 1 1 d .
H8 H 0.8651 0.2827 0.7945 0.035 Uiso 1 1 calc R
C9 C 0.9710(5) 0.3504(2) 0.8513(5) 0.0305(12) Uani 1 1 d .
H9 H 1.0475 0.3326 0.8964 0.037 Uiso 1 1 calc R
C10 C 0.9695(5) 0.4059(2) 0.8476(5) 0.0304(12) Uani 1 1 d .
H10 H 1.0451 0.4252 0.8887 0.037 Uiso 1 1 calc R
C11 C 0.8594(5) 0.43303(19) 0.7850(5) 0.0255(11) Uani 1 1 d .
H11 H 0.8570 0.4708 0.7854 0.031 Uiso 1 1 calc R
C12 C 0.4072(5) 0.52930(19) 0.5348(5) 0.0221(11) Uani 1 1 d .
C13 C 0.3225(5) 0.55658(19) 0.5912(5) 0.0260(11) Uani 1 1 d .
H13 H 0.2833 0.5389 0.6502 0.031 Uiso 1 1 calc R
C14 C 0.2945(5) 0.6104(2) 0.5611(5) 0.0299(12) Uani 1 1 d .
H14 H 0.2374 0.6293 0.6007 0.036 Uiso 1 1 calc R
C15 C 0.3501(5) 0.6357(2) 0.4738(5) 0.0282(12) Uani 1 1 d .
H15 H 0.3311 0.6721 0.4533 0.034 Uiso 1 1 calc R
C16 C 0.4334(5) 0.6082(2) 0.4161(5) 0.0289(12) Uani 1 1 d .
H16 H 0.4712 0.6258 0.3558 0.035 Uiso 1 1 calc R
C17 C 0.4624(5) 0.5547(2) 0.4461(5) 0.0259(11) Uani 1 1 d .
H17 H 0.5194 0.5358 0.4062 0.031 Uiso 1 1 calc R
C18 C 0.1513(5) 0.4300(2) 0.6206(5) 0.0269(11) Uani 1 1 d .
H18A H 0.1932 0.4463 0.7045 0.032 Uiso 1 1 calc R
H18B H 0.1362 0.3917 0.6328 0.032 Uiso 1 1 calc R
C19 C 0.0267(6) 0.4586(2) 0.5561(6) 0.0338(13) Uani 1 1 d .
H19A H -0.0498 0.4369 0.5608 0.041 Uiso 1 1 calc R
H19B H 0.0212 0.4934 0.5977 0.041 Uiso 1 1 calc R
C20 C 0.1552(5) 0.4569(2) 0.4146(5) 0.0246(11) Uani 1 1 d .
C21 C 0.3193(5) 0.33115(18) 0.5480(5) 0.0229(11) Uani 1 1 d .
C22 C 0.3120(5) 0.2957(2) 0.6446(5) 0.0300(12) Uani 1 1 d .
H22 H 0.3664 0.3002 0.7284 0.036 Uiso 1 1 calc R
C23 C 0.2248(6) 0.2533(2) 0.6189(6) 0.0381(14) Uani 1 1 d .
H23 H 0.2185 0.2295 0.6857 0.046 Uiso 1 1 calc R
C24 C 0.1471(6) 0.2459(2) 0.4958(7) 0.0417(16) Uani 1 1 d .
H24 H 0.0878 0.2170 0.4784 0.050 Uiso 1 1 calc R
C25 C 0.1561(5) 0.2807(2) 0.3990(6) 0.0336(13) Uani 1 1 d .
H25 H 0.1042 0.2752 0.3145 0.040 Uiso 1 1 calc R
C26 C 0.2407(5) 0.3237(2) 0.4246(5) 0.0253(11) Uani 1 1 d .
H26 H 0.2451 0.3480 0.3581 0.030 Uiso 1 1 calc R
C27 C 0.6931(5) 0.3217(2) 0.4278(5) 0.0273(12) Uani 1 1 d .
C28 C 0.6041(5) 0.3495(2) 0.3343(5) 0.0324(13) Uani 1 1 d .
H28 H 0.5140 0.3478 0.3310 0.039 Uiso 1 1 calc R
C29 C 0.6475(6) 0.3797(2) 0.2465(5) 0.0338(13) Uani 1 1 d .
H29 H 0.5861 0.3986 0.1827 0.041 Uiso 1 1 calc R
C30 C 0.7779(6) 0.3833(2) 0.2482(5) 0.0316(13) Uani 1 1 d .
C31 C 0.8662(6) 0.3552(2) 0.3446(6) 0.0352(13) Uani 1 1 d .
H31 H 0.9563 0.3572 0.3483 0.042 Uiso 1 1 calc R
C32 C 0.8247(5) 0.3248(2) 0.4346(5) 0.0303(12) Uani 1 1 d .
H32 H 0.8856 0.3064 0.4999 0.036 Uiso 1 1 calc R
C33 C 0.8241(7) 0.4137(2) 0.1483(6) 0.0431(15) Uani 1 1 d .
H33A H 0.8182 0.3911 0.0727 0.065 Uiso 1 1 calc GR
H33B H 0.9146 0.4245 0.1830 0.065 Uiso 1 1 calc GR
H33C H 0.7700 0.4454 0.1238 0.065 Uiso 1 1 calc GR
loop_
_atom_site_aniso_label
_atom_site_aniso_U_11
_atom_site_aniso_U_22
_atom_site_aniso_U_33
_atom_site_aniso_U_23
_atom_site_aniso_U_13
_atom_site_aniso_U_12
S1 0.0264(7) 0.0174(5) 0.0311(6) -0.0033(5) 0.0041(5) 0.0013(5)
O1 0.035(2) 0.046(2) 0.029(2) 0.0099(19) 0.0073(17) 0.0035(18)
O2 0.0236(19) 0.036(2) 0.032(2) 0.0053(18) 0.0036(16) 0.0050(16)
O3 0.030(2) 0.0266(19) 0.043(2) -0.0106(18) 0.0073(18) -0.0034(16)
O4 0.033(2) 0.0176(17) 0.041(2) 0.0008(16) 0.0053(17) 0.0089(15)
N1 0.025(2) 0.017(2) 0.024(2) 0.0005(17) 0.0066(18) -0.0014(16)
N2 0.025(2) 0.0135(18) 0.025(2) 0.0008(17) 0.0007(18) 0.0018(17)
N3 0.019(2) 0.021(2) 0.024(2) 0.0008(17) 0.0051(17) 0.0005(16)
C1 0.026(3) 0.018(2) 0.021(3) 0.002(2) 0.007(2) 0.000(2)
C2 0.021(2) 0.019(2) 0.020(2) 0.0003(19) 0.0048(19) -0.0003(19)
C3 0.023(3) 0.020(2) 0.018(2) 0.0000(19) 0.0050(19) -0.0021(19)
C4 0.023(3) 0.015(2) 0.019(2) -0.0015(19) 0.0037(19) 0.0004(18)
C5 0.024(3) 0.016(2) 0.023(2) 0.002(2) 0.003(2) 0.0002(19)
C6 0.028(3) 0.016(2) 0.022(2) 0.005(2) 0.004(2) 0.002(2)
C7 0.023(3) 0.020(2) 0.022(2) -0.001(2) 0.000(2) -0.002(2)
C8 0.034(3) 0.019(2) 0.030(3) 0.006(2) 0.001(2) 0.005(2)
C9 0.022(3) 0.029(3) 0.035(3) 0.009(2) -0.003(2) 0.006(2)
C10 0.024(3) 0.029(3) 0.035(3) 0.001(2) 0.001(2) -0.005(2)
C11 0.028(3) 0.021(2) 0.027(3) 0.001(2) 0.006(2) -0.005(2)
C12 0.021(3) 0.018(2) 0.025(2) 0.001(2) 0.001(2) -0.0010(19)
C13 0.024(3) 0.023(2) 0.033(3) 0.004(2) 0.010(2) -0.001(2)
C14 0.026(3) 0.028(3) 0.036(3) -0.003(2) 0.008(2) 0.004(2)
C15 0.034(3) 0.016(2) 0.033(3) 0.003(2) 0.004(2) 0.003(2)
C16 0.037(3) 0.024(3) 0.027(3) 0.006(2) 0.011(2) 0.001(2)
C17 0.029(3) 0.025(3) 0.025(3) -0.002(2) 0.008(2) 0.003(2)
C18 0.028(3) 0.028(3) 0.027(3) 0.001(2) 0.010(2) 0.002(2)
C19 0.029(3) 0.038(3) 0.036(3) -0.001(3) 0.012(2) 0.004(2)
C20 0.026(3) 0.021(2) 0.027(3) 0.001(2) 0.007(2) 0.002(2)
C21 0.022(3) 0.015(2) 0.032(3) -0.004(2) 0.006(2) 0.0018(19)
C22 0.033(3) 0.024(2) 0.031(3) -0.001(2) 0.005(2) -0.004(2)
C23 0.044(3) 0.024(3) 0.048(4) 0.004(3) 0.016(3) -0.008(3)
C24 0.031(3) 0.025(3) 0.067(4) -0.007(3) 0.009(3) -0.009(2)
C25 0.024(3) 0.032(3) 0.041(3) -0.016(3) -0.002(2) 0.002(2)
C26 0.025(3) 0.021(2) 0.028(3) -0.003(2) 0.005(2) 0.003(2)
C27 0.029(3) 0.025(3) 0.027(3) -0.002(2) 0.005(2) 0.003(2)
C28 0.033(3) 0.033(3) 0.030(3) -0.003(2) 0.007(2) 0.004(2)
C29 0.038(3) 0.035(3) 0.027(3) 0.002(3) 0.006(2) 0.011(3)
C30 0.039(3) 0.026(3) 0.029(3) -0.002(2) 0.007(2) -0.001(2)
C31 0.029(3) 0.034(3) 0.043(3) -0.002(3) 0.009(3) 0.000(2)
C32 0.028(3) 0.030(3) 0.029(3) 0.001(2) 0.001(2) 0.005(2)
C33 0.054(4) 0.040(3) 0.035(3) 0.002(3) 0.011(3) -0.004(3)
loop_
_atom_type_symbol
_atom_type_description
_atom_type_scat_dispersion_real
_atom_type_scat_dispersion_imag
_atom_type_scat_source
C C 0.0033 0.0016 'International Tables Vol C Tables 4.2.6.8 and 6.1.1.4'
H H 0.0000 0.0000 'International Tables Vol C Tables 4.2.6.8 and 6.1.1.4'
N N 0.0061 0.0033 'International Tables Vol C Tables 4.2.6.8 and 6.1.1.4'
O O 0.0106 0.0060 'International Tables Vol C Tables 4.2.6.8 and 6.1.1.4'
S S 0.1246 0.1234 'International Tables Vol C Tables 4.2.6.8 and 6.1.1.4'
loop_
_geom_angle_atom_site_label_1
_geom_angle_atom_site_label_2
_geom_angle_atom_site_label_3
_geom_angle
O3 S1 O4 120.1(2)
O3 S1 N2 106.3(2)
O3 S1 C27 108.8(2)
O4 S1 N2 106.2(2)
O4 S1 C27 110.1(3)
N2 S1 C27 104.2(2)
C20 O2 C19 109.2(4)
C5 N1 C1 116.2(4)
C4 N2 S1 116.4(3)
C4 N2 C7 105.1(3)
C7 N2 S1 113.1(3)
C2 N3 C18 123.1(4)
C20 N3 C2 124.8(4)
C20 N3 C18 112.1(4)
N1 C1 C2 122.6(4)
N1 C1 C12 113.9(4)
C2 C1 C12 123.5(4)
C1 C2 N3 119.6(4)
C3 C2 N3 119.7(4)
C3 C2 C1 120.5(4)
C2 C3 C21 119.2(4)
C4 C3 C2 115.4(4)
C4 C3 C21 125.4(4)
C3 C4 N2 130.8(4)
C3 C4 C5 119.8(4)
C5 C4 N2 109.1(4)
N1 C5 C4 124.6(4)
N1 C5 C6 126.7(4)
C4 C5 C6 108.7(4)
C7 C6 C5 107.0(4)
C11 C6 C5 132.6(4)
C11 C6 C7 120.3(4)
C6 C7 N2 109.9(4)
C8 C7 N2 128.5(4)
C8 C7 C6 121.6(4)
C7 C8 H8 121.3
C7 C8 C9 117.4(4)
C9 C8 H8 121.3
C8 C9 H9 119.1
C8 C9 C10 121.7(5)
C10 C9 H9 119.1
C9 C10 H10 119.6
C11 C10 C9 120.7(5)
C11 C10 H10 119.6
C6 C11 H11 120.9
C10 C11 C6 118.3(4)
C10 C11 H11 120.9
C13 C12 C1 122.2(5)
C13 C12 C17 120.2(5)
C17 C12 C1 117.5(5)
C12 C13 H13 120.0
C12 C13 C14 120.0(5)
C14 C13 H13 120.0
C13 C14 H14 120.1
C15 C14 C13 119.9(5)
C15 C14 H14 120.1
C14 C15 H15 119.9
C14 C15 C16 120.2(5)
C16 C15 H15 119.9
C15 C16 H16 119.8
C15 C16 C17 120.3(5)
C17 C16 H16 119.8
C12 C17 C16 119.5(5)
C12 C17 H17 120.3
C16 C17 H17 120.3
N3 C18 H18A 111.6
N3 C18 H18B 111.6
N3 C18 C19 100.9(4)
H18A C18 H18B 109.4
C19 C18 H18A 111.6
C19 C18 H18B 111.6
O2 C19 C18 105.2(4)
O2 C19 H19A 110.7
O2 C19 H19B 110.7
C18 C19 H19A 110.7
C18 C19 H19B 110.7
H19A C19 H19B 108.8
O1 C20 O2 121.9(5)
O1 C20 N3 128.2(5)
N3 C20 O2 109.9(5)
C22 C21 C3 120.8(4)
C22 C21 C26 119.7(5)
C26 C21 C3 119.5(4)
C21 C22 H22 120.0
C21 C22 C23 120.0(5)
C23 C22 H22 120.0
C22 C23 H23 119.9
C24 C23 C22 120.2(6)
C24 C23 H23 119.9
C23 C24 H24 120.1
C25 C24 C23 119.8(5)
C25 C24 H24 120.1
C24 C25 H25 119.9
C24 C25 C26 120.3(5)
C26 C25 H25 119.9
C21 C26 H26 120.0
C25 C26 C21 120.0(5)
C25 C26 H26 120.0
C28 C27 S1 119.1(4)
C32 C27 S1 120.3(4)
C32 C27 C28 120.6(5)
C27 C28 H28 120.3
C29 C28 C27 119.3(5)
C29 C28 H28 120.3
C28 C29 H29 119.0
C28 C29 C30 122.0(5)
C30 C29 H29 119.0
C29 C30 C31 117.6(5)
C29 C30 C33 121.9(5)
C31 C30 C33 120.5(6)
C30 C31 H31 119.3
C32 C31 C30 121.4(5)
C32 C31 H31 119.3
C27 C32 C31 119.0(5)
C27 C32 H32 120.5
C31 C32 H32 120.5
C30 C33 H33A 109.5
C30 C33 H33B 109.5
C30 C33 H33C 109.5
H33A C33 H33B 109.5
H33A C33 H33C 109.5
H33B C33 H33C 109.5
loop_
_geom_bond_atom_site_label_1
_geom_bond_atom_site_label_2
_geom_bond_distance
S1 O3 1.423(4)
S1 O4 1.431(4)
S1 N2 1.704(4)
S1 C27 1.760(6)
O1 C20 1.209(6)
O2 C19 1.447(7)
O2 C20 1.348(6)
N1 C1 1.342(6)
N1 C5 1.340(6)
N2 C4 1.446(6)
N2 C7 1.461(6)
N3 C2 1.423(6)
N3 C18 1.456(7)
N3 C20 1.344(6)
C1 C2 1.414(7)
C1 C12 1.501(7)
C2 C3 1.413(6)
C3 C4 1.392(6)
C3 C21 1.498(6)
C4 C5 1.400(7)
C5 C6 1.448(7)
C6 C7 1.399(6)
C6 C11 1.395(7)
C7 C8 1.383(7)
C8 H8 0.9500
C8 C9 1.385(7)
C9 H9 0.9500
C9 C10 1.394(8)
C10 H10 0.9500
C10 C11 1.379(7)
C11 H11 0.9500
C12 C13 1.384(7)
C12 C17 1.391(7)
C13 H13 0.9500
C13 C14 1.405(7)
C14 H14 0.9500
C14 C15 1.380(8)
C15 H15 0.9500
C15 C16 1.384(8)
C16 H16 0.9500
C16 C17 1.400(7)
C17 H17 0.9500
C18 H18A 0.9900
C18 H18B 0.9900
C18 C19 1.516(7)
C19 H19A 0.9900
C19 H19B 0.9900
C21 C22 1.385(7)
C21 C26 1.396(7)
C22 H22 0.9500
C22 C23 1.392(7)
C23 H23 0.9500
C23 C24 1.390(9)
C24 H24 0.9500
C24 C25 1.380(9)
C25 H25 0.9500
C25 C26 1.388(7)
C26 H26 0.9500
C27 C28 1.388(7)
C27 C32 1.385(8)
C28 H28 0.9500
C28 C29 1.375(8)
C29 H29 0.9500
C29 C30 1.385(8)
C30 C31 1.404(8)
C30 C33 1.496(8)
C31 H31 0.9500
C31 C32 1.387(8)
C32 H32 0.9500
C33 H33A 0.9800
C33 H33B 0.9800
C33 H33C 0.9800
loop_
_geom_torsion_atom_site_label_1
_geom_torsion_atom_site_label_2
_geom_torsion_atom_site_label_3
_geom_torsion_atom_site_label_4
_geom_torsion
S1 N2 C4 C3 65.8(6)
S1 N2 C4 C5 -120.6(4)
S1 N2 C7 C6 124.6(4)
S1 N2 C7 C8 -59.0(7)
S1 C27 C28 C29 -179.7(4)
S1 C27 C32 C31 179.4(4)
O3 S1 N2 C4 -56.9(4)
O3 S1 N2 C7 -178.7(3)
O3 S1 C27 C28 26.5(5)
O3 S1 C27 C32 -154.3(4)
O4 S1 N2 C4 174.2(3)
O4 S1 N2 C7 52.4(4)
O4 S1 C27 C28 160.0(4)
O4 S1 C27 C32 -20.8(5)
N1 C1 C2 N3 166.0(4)
N1 C1 C2 C3 -8.9(7)
N1 C1 C12 C13 -117.1(5)
N1 C1 C12 C17 58.9(6)
N1 C5 C6 C7 -178.5(5)
N1 C5 C6 C11 6.2(10)
N2 S1 C27 C28 -86.5(4)
N2 S1 C27 C32 92.6(5)
N2 C4 C5 N1 176.2(5)
N2 C4 C5 C6 -5.5(5)
N2 C7 C8 C9 -177.1(5)
N3 C2 C3 C4 -169.6(4)
N3 C2 C3 C21 7.9(7)
N3 C18 C19 O2 15.6(5)
C1 N1 C5 C4 6.0(7)
C1 N1 C5 C6 -172.1(5)
C1 C2 C3 C4 5.3(7)
C1 C2 C3 C21 -177.2(4)
C1 C12 C13 C14 174.4(4)
C1 C12 C17 C16 -175.0(5)
C2 N3 C18 C19 165.7(4)
C2 N3 C20 O1 7.6(8)
C2 N3 C20 O2 -174.1(4)
C2 C1 C12 C13 63.3(7)
C2 C1 C12 C17 -120.6(5)
C2 C3 C4 N2 176.2(5)
C2 C3 C4 C5 3.1(6)
C2 C3 C21 C22 -120.0(5)
C2 C3 C21 C26 61.2(7)
C3 C4 C5 N1 -9.4(7)
C3 C4 C5 C6 169.0(4)
C3 C21 C22 C23 -179.9(5)
C3 C21 C26 C25 178.5(5)
C4 N2 C7 C6 -3.4(6)
C4 N2 C7 C8 173.1(5)
C4 C3 C21 C22 57.3(7)
C4 C3 C21 C26 -121.5(5)
C4 C5 C6 C7 3.3(6)
C4 C5 C6 C11 -172.1(6)
C5 N1 C1 C2 3.1(7)
C5 N1 C1 C12 -176.4(4)
C5 C6 C7 N2 0.2(6)
C5 C6 C7 C8 -176.6(5)
C5 C6 C11 C10 177.2(5)
C6 C7 C8 C9 -1.0(8)
C7 N2 C4 C3 -168.2(5)
C7 N2 C4 C5 5.4(5)
C7 C6 C11 C10 2.3(8)
C7 C8 C9 C10 0.7(9)
C8 C9 C10 C11 1.2(9)
C9 C10 C11 C6 -2.6(9)
C11 C6 C7 N2 176.2(5)
C11 C6 C7 C8 -0.5(8)
C12 C1 C2 N3 -14.5(7)
C12 C1 C2 C3 170.6(5)
C12 C13 C14 C15 1.0(8)
C13 C12 C17 C16 1.1(7)
C13 C14 C15 C16 -0.1(8)
C14 C15 C16 C17 -0.3(8)
C15 C16 C17 C12 -0.3(8)
C17 C12 C13 C14 -1.5(7)
C18 N3 C2 C1 -106.0(5)
C18 N3 C2 C3 69.0(6)
C18 N3 C20 O1 -174.3(5)
C18 N3 C20 O2 4.1(6)
C19 O2 C20 O1 -174.5(5)
C19 O2 C20 N3 7.0(6)
C20 O2 C19 C18 -14.6(6)
C20 N3 C2 C1 72.0(6)
C20 N3 C2 C3 -113.1(5)
C20 N3 C18 C19 -12.5(5)
C21 C3 C4 N2 -1.2(8)
C21 C3 C4 C5 -174.3(5)
C21 C22 C23 C24 1.4(9)
C22 C21 C26 C25 -0.3(8)
C22 C23 C24 C25 -0.2(9)
C23 C24 C25 C26 -1.2(9)
C24 C25 C26 C21 1.5(8)
C26 C21 C22 C23 -1.2(8)
C27 S1 N2 C4 57.9(4)
C27 S1 N2 C7 -63.9(4)
C27 C28 C29 C30 -0.1(8)
C28 C27 C32 C31 -1.5(8)
C28 C29 C30 C31 -0.6(9)
C28 C29 C30 C33 176.6(5)
C29 C30 C31 C32 0.3(8)
C30 C31 C32 C27 0.8(8)
C32 C27 C28 C29 1.2(8)
C33 C30 C31 C32 -177.0(5)
