#------------------------------------------------------------------------------
#$Date: 2017-02-04 04:17:45 +0200 (Sat, 04 Feb 2017) $
#$Revision: 191361 $
#$URL: file:///home/coder/svn-repositories/cod/cif/1/54/48/1544840.cif $
#------------------------------------------------------------------------------
#
# This file is available in the Crystallography Open Database (COD),
# http://www.crystallography.net/
#
# All data on this site have been placed in the public domain by the
# contributors.
#
data_1544840
loop_
_publ_author_name
'Chen, Changjuan'
'Cui, Yaqin'
'Mao, Xiaoyang'
'Pan, Xiaobo'
'Wu, Jincai'
_publ_section_title
;
 Suppressing Cyclic Polymerization for Isoselective Synthesis of
 High-Molecular-Weight Linear Polylactide Catalyzed by Sodium/Potassium
 Sulfonamidate Complexes
;
_journal_issue                   1
_journal_name_full               Macromolecules
_journal_page_first              83
_journal_paper_doi               10.1021/acs.macromol.6b02271
_journal_volume                  50
_journal_year                    2017
_chemical_formula_moiety         'C37 H60 N Na O7 S, 2.5(C7 H8)'
_chemical_formula_sum            'C54.5 H80 N Na O7 S'
_chemical_formula_weight         916.24
_space_group_crystal_system      triclinic
_space_group_IT_number           2
_space_group_name_Hall           '-P 1'
_space_group_name_H-M_alt        'P -1'
_symmetry_space_group_name_Hall  '-P 1'
_symmetry_space_group_name_H-M   'P -1'
_atom_sites_solution_hydrogens   geom
_atom_sites_solution_primary     iterative
_audit_creation_date             2016-05-20
_audit_creation_method
;
Olex2 1.2
(compiled 2016.02.19 svn.r3266 for OlexSys, GUI svn.r5155)
;
_cell_angle_alpha                107.939(9)
_cell_angle_beta                 92.806(8)
_cell_angle_gamma                93.558(8)
_cell_formula_units_Z            2
_cell_length_a                   10.6133(9)
_cell_length_b                   15.1843(17)
_cell_length_c                   17.3640(16)
_cell_measurement_reflns_used    1771
_cell_measurement_temperature    294.59(10)
_cell_measurement_theta_max      21.4960
_cell_measurement_theta_min      3.8820
_cell_volume                     2650.3(5)
_computing_cell_refinement
;
CrysAlisPro, Agilent Technologies,
Version 1.171.37.35 (release 13-08-2014 CrysAlis171 .NET)
(compiled Aug 13 2014,18:06:01)
;
_computing_data_collection
;
CrysAlisPro, Agilent Technologies,
Version 1.171.37.35 (release 13-08-2014 CrysAlis171 .NET)
(compiled Aug 13 2014,18:06:01)
;
_computing_data_reduction
;
CrysAlisPro, Agilent Technologies,
Version 1.171.37.35 (release 13-08-2014 CrysAlis171 .NET)
(compiled Aug 13 2014,18:06:01)
;
_computing_molecular_graphics    'Olex2 (Dolomanov et al., 2009)'
_computing_publication_material  'Olex2 (Dolomanov et al., 2009)'
_computing_structure_refinement  'ShelXL (Sheldrick, 2015)'
_computing_structure_solution
;
Superflip (Palatinus & Chapuis, 2007;Palatinus & van der Lee, 2008;
Palatinus et al., 2012)
;
_diffrn_ambient_environment      air
_diffrn_ambient_temperature      294.59(10)
_diffrn_detector                 'CCD plate'
_diffrn_detector_area_resol_mean 16.0733
_diffrn_detector_type            Eos
_diffrn_measured_fraction_theta_full 0.995
_diffrn_measured_fraction_theta_max 0.995
_diffrn_measurement_details
;
#__ type_ start__ end____ width___ exp.time_
  1 omega    2.00   27.00   1.0000   10.0000
omega____ theta____ kappa____ phi______ frames
    -       21.0541   38.0000   60.0000 25

#__ type_ start__ end____ width___ exp.time_
  2 omega    8.00   90.00   1.0000   10.0000
omega____ theta____ kappa____ phi______ frames
    -       21.0541   57.0000   60.0000 82

#__ type_ start__ end____ width___ exp.time_
  3 omega   62.00   88.00   1.0000   10.0000
omega____ theta____ kappa____ phi______ frames
    -       21.0541   38.0000   60.0000 26

#__ type_ start__ end____ width___ exp.time_
  4 omega    0.00   36.00   1.0000   10.0000
omega____ theta____ kappa____ phi______ frames
    -       21.0541   57.0000  -90.0000 36

#__ type_ start__ end____ width___ exp.time_
  5 omega  -47.00  -21.00   1.0000   10.0000
omega____ theta____ kappa____ phi______ frames
    -      -16.8354  -38.0000   60.0000 26

#__ type_ start__ end____ width___ exp.time_
  6 omega  -44.00   43.00   1.0000   10.0000
omega____ theta____ kappa____ phi______ frames
    -       21.0541  -38.0000  120.0000 87

#__ type_ start__ end____ width___ exp.time_
  7 omega  -16.00   23.00   1.0000   10.0000
omega____ theta____ kappa____ phi______ frames
    -      -16.8354  -99.0000   60.0000 39

#__ type_ start__ end____ width___ exp.time_
  8 omega  -48.00   39.00   1.0000   10.0000
omega____ theta____ kappa____ phi______ frames
    -       21.0541  -57.0000  -90.0000 87

#__ type_ start__ end____ width___ exp.time_
  9 omega  -19.00    7.00   1.0000   10.0000
omega____ theta____ kappa____ phi______ frames
    -      -16.8354  -99.0000  150.0000 26
;
_diffrn_measurement_device       'four-circle diffractometer'
_diffrn_measurement_device_type  'SuperNova, Dual, Cu at zero, Eos'
_diffrn_measurement_method       '\w scans'
_diffrn_orient_matrix_UB_11      0.0252061000
_diffrn_orient_matrix_UB_12      -0.0439712000
_diffrn_orient_matrix_UB_13      -0.0096027000
_diffrn_orient_matrix_UB_21      0.0621527000
_diffrn_orient_matrix_UB_22      0.0221932000
_diffrn_orient_matrix_UB_23      0.0091550000
_diffrn_orient_matrix_UB_31      -0.0029257000
_diffrn_orient_matrix_UB_32      0.0008852000
_diffrn_orient_matrix_UB_33      0.0409513000
_diffrn_radiation_monochromator  mirror
_diffrn_radiation_probe          x-ray
_diffrn_radiation_type           MoK\a
_diffrn_radiation_wavelength     0.710
_diffrn_reflns_av_R_equivalents  0.0775
_diffrn_reflns_av_unetI/netI     0.1502
_diffrn_reflns_Laue_measured_fraction_full 0.995
_diffrn_reflns_Laue_measured_fraction_max 0.995
_diffrn_reflns_limit_h_max       11
_diffrn_reflns_limit_h_min       -12
_diffrn_reflns_limit_k_max       18
_diffrn_reflns_limit_k_min       -17
_diffrn_reflns_limit_l_max       19
_diffrn_reflns_limit_l_min       -20
_diffrn_reflns_number            18903
_diffrn_reflns_point_group_measured_fraction_full 0.995
_diffrn_reflns_point_group_measured_fraction_max 0.995
_diffrn_reflns_theta_full        24.995
_diffrn_reflns_theta_max         24.995
_diffrn_reflns_theta_min         3.420
_diffrn_source                   'SuperNova (Mo) X-ray Source'
_exptl_absorpt_coefficient_mu    0.119
_exptl_absorpt_correction_T_max  1.00000
_exptl_absorpt_correction_T_min  0.94267
_exptl_absorpt_correction_type   multi-scan
_exptl_absorpt_process_details
;
CrysAlisPro, Agilent Technologies,
Version 1.171.37.35 (release 13-08-2014 CrysAlis171 .NET)
(compiled Aug 13 2014,18:06:01)
Empirical absorption correction using spherical harmonics,
 implemented in SCALE3 ABSPACK scaling algorithm.
;
_exptl_crystal_colour            colourless
_exptl_crystal_colour_primary    colourless
_exptl_crystal_density_diffrn    1.148
_exptl_crystal_description       block
_exptl_crystal_F_000             994
_exptl_crystal_size_max          0.29
_exptl_crystal_size_mid          0.2
_exptl_crystal_size_min          0.18
_refine_diff_density_max         0.518
_refine_diff_density_min         -0.295
_refine_diff_density_rms         0.056
_refine_ls_extinction_coef       0.0005(5)
_refine_ls_extinction_expression Fc^*^=kFc[1+0.001xFc^2^\l^3^/sin(2\q)]^-1/4^
_refine_ls_extinction_method     'SHELXL-2014/7 (Sheldrick 2014'
_refine_ls_goodness_of_fit_ref   0.972
_refine_ls_hydrogen_treatment    constr
_refine_ls_matrix_type           full
_refine_ls_number_parameters     656
_refine_ls_number_reflns         9331
_refine_ls_number_restraints     116
_refine_ls_restrained_S_all      0.973
_refine_ls_R_factor_all          0.1589
_refine_ls_R_factor_gt           0.0770
_refine_ls_shift/su_max          0.005
_refine_ls_shift/su_mean         0.000
_refine_ls_structure_factor_coef Fsqd
_refine_ls_weighting_details
'w=1/[\s^2^(Fo^2^)+(0.0416P)^2^] where P=(Fo^2^+2Fc^2^)/3'
_refine_ls_weighting_scheme      calc
_refine_ls_wR_factor_gt          0.1336
_refine_ls_wR_factor_ref         0.1674
_reflns_Friedel_coverage         0.000
_reflns_number_gt                4664
_reflns_number_total             9331
_reflns_threshold_expression     'I > 2\s(I)'
_cod_data_source_file            ma6b02271_si_005.cif
_cod_data_source_block           chenchj_0418_2
_cod_depositor_comments
'Adding full bibliography for 1544839--1544842.cif.'
_cod_original_formula_sum        'C54.50 H80 N Na O7 S'
_cod_database_code               1544840
_shelx_space_group_comment
;
The symmetry employed for this shelxl refinement is uniquely defined
by the following loop, which should always be used as a source of
symmetry information in preference to the above space-group names.
They are only intended as comments.
;
_reflns_odcompleteness_completeness 99.75
_reflns_odcompleteness_iscentric 1
_reflns_odcompleteness_theta     26.32
_olex2_refinement_description
;
1. Fixed Uiso
 At 1.2 times of:
  All C(H) groups, All C(H,H) groups
 At 1.5 times of:
  All C(H,H,H) groups
2. Restrained distances
 C3C-C1C \\sim C1C-C7C
 with sigma of 0.02
 C7B-C1B \\sim C1B-C3B
 with sigma of 0.02
3. Rigid bond restraints
 C1D, C2D, C3D, C4D, C5D, C6D, C7D
 with sigma for 1-2 distances of 0.01 and sigma for 1-3 distances of 0.01
 C1C, C2C, C3C, C4C, C5C, C6C, C7C
 with sigma for 1-2 distances of 0.01 and sigma for 1-3 distances of 0.01
4. Uiso/Uaniso restraints and constraints
C1D \\sim C2D \\sim C3D \\sim C4D \\sim C5D \\sim C6D \\sim C7D: within 2A with
sigma of 0.01 and sigma for terminal atoms of 0.02
C1C \\sim C2C \\sim C3C \\sim C4C \\sim C5C \\sim C6C \\sim C7C: within 2A with
sigma of 0.01 and sigma for terminal atoms of 0.02
5. Others
 Sof(C1C)=Sof(HP)=Sof(HQ)=Sof(HR)=Sof(C2C)=Sof(C3C)=Sof(HS)=Sof(C4C)=Sof(HT)=
 Sof(C5C)=Sof(HU)=Sof(C6C)=Sof(HV)=Sof(C7C)=Sof(HW)=1-FVAR(1)
 Sof(C1B)=Sof(HH)=Sof(HI)=Sof(HJ)=Sof(C2B)=Sof(C7B)=Sof(HK)=Sof(C6B)=Sof(HL)=
 Sof(C5B)=Sof(HM)=Sof(C4B)=Sof(HN)=Sof(C3B)=Sof(HO)=FVAR(1)
 Fixed Sof: C1D(0.5) HX(0.5) HY(0.5) HZ(0.5) C2D(0.5) C7D(0.5) H0AA(0.5)
 C6D(0.5) H1AA(0.5) C5D(0.5) H2AA(0.5) C4D(0.5) H3AA(0.5) C3D(0.5) H4AA(0.5)
6.a Ternary CH refined with riding coordinates:
 C7(H7), C10(H10), C13(H13), C22(H22), C25(H25)
6.b Secondary CH2 refined with riding coordinates:
 C28(H28A,H28B), C29(H29A,H29B), C30(H30A,H30B), C31(H31A,H31B), C32(H32A,
 H32B), C33(H33A,H33B), C34(H34A,H34B), C35(H35A,H35B), C36(H36A,H36B),
 C38(H38A,H38B)
6.c Aromatic/amide H refined with riding coordinates:
 C3(H3), C5(H5), C18(H18), C19(H19), C20(H20), C3A(HC), C4A(HD), C5A(HE),
 C6A(HF), C7A(HG), C7B(HK), C6B(HL), C5B(HM), C4B(HN), C3B(HO), C3C(HS),
 C4C(HT), C5C(HU), C6C(HV), C7C(HW), C7D(H0AA), C6D(H1AA), C5D(H2AA), C4D(H3AA),
  C3D(H4AA)
6.d Fitted hexagon refined as free rotating group:
 C2B(C7B,C6B,C5B,C4B,C3B), C2C(C3C,C4C,C5C,C6C,C7C), C2D(C7D,C6D,C5D,C4D,C3D)
6.e Idealised Me refined as rotating group:
 C8(H8A,H8B,H8C), C9(H9A,H9B,H9C), C11(H11A,H11B,H11C), C12(H12A,H12B,H12C),
 C14(H14A,H14B,H14C), C15(H15A,H15B,H15C), C23(H23A,H23B,H23C), C24(H24A,H24B,
 H24C), C26(H26A,H26B,H26C), C27(H27A,H27B,H27C), C1A(H,HA,HB), C1B(HH,HI,HJ),
 C1C(HP,HQ,HR), C1D(HX,HY,HZ)
;
_shelx_res_file
;
    chenchj_0418_2.res created by SHELXL-2014/7

TITL chenchj_0418_2 in P-1
CELL 0.71 10.613263 15.184272 17.364037 107.9393 92.8059 93.5576
ZERR 2 0.000944 0.001654 0.001645 0.0091 0.0077 0.0082
LATT 1
SFAC C H N Na O S
UNIT 109 160 2 2 14 2
SADI C3C C1C C1C C7C
SADI C7B C1B C1B C3B
DELU C1D C2D C3D C4D C5D C6D C7D
DELU C1C C2C C3C C4C C5C C6C C7C
SIMU 0.01 0.02 2 C1D C2D C3D C4D C5D C6D C7D
SIMU 0.01 0.02 2 C1C C2C C3C C4C C5C C6C C7C

L.S. 4
PLAN  4
BOND $H
MORE -1
CONF
WGHT    0.041600
EXTI    0.000549
FVAR       3.18281   0.54987
PART
fmap 2
acta
OMIT -0.01 50
OMIT -6 6 3
OMIT -11 -8 8
OMIT -1 -5 20
OMIT -3 6 9
OMIT -8 8 4
OMIT -4 -8 13
OMIT 6 3 10
OMIT 7 -9 14
OMIT -1 9 9
OMIT -5 11 4
OMIT 2 -2 1
OMIT -2 -16 11
OMIT 2 11 3
OMIT 1 -17 5
OMIT 5 8 9
OMIT -5 9 5
OMIT -1 10 11
OMIT -3 0 9
OMIT 2 1 3
OMIT -6 9 3
OMIT 7 -7 7
REM <olex2.extras>
REM <HklSrc "%.\\chenchj_0418_2.hkl">
REM </olex2.extras>

PART 1
S1    6    0.091157    0.213618    0.722134    11.00000    0.03144    0.02301 =
         0.02817    0.00348    0.00529    0.00275
NA1   4    0.261183    0.062773    0.637981    11.00000    0.03742    0.02775 =
         0.03864    0.00441    0.00363    0.00728
O1    5    0.140538    0.190173    0.641541    11.00000    0.03688    0.02693 =
         0.02510    0.00048    0.00368    0.00778
O2    5   -0.043383    0.185548    0.717963    11.00000    0.02335    0.03087 =
         0.03861    0.00426    0.00170    0.00249
O3    5    0.109780   -0.069095    0.562067    11.00000    0.03929    0.03578 =
         0.04249    0.00381    0.00619    0.00613
O4    5    0.284186    0.016171    0.489296    11.00000    0.03450    0.03415 =
         0.03676    0.00544   -0.00085    0.00411
O5    5    0.440830    0.149789    0.595297    11.00000    0.04116    0.03695 =
         0.03816    0.00133    0.00621    0.00663
O7    5    0.473402    0.047766    0.698790    11.00000    0.04652    0.04048 =
         0.03904    0.00590    0.00168    0.00421
O8    5    0.263269   -0.069249    0.692500    11.00000    0.04472    0.03410 =
         0.05445    0.00971   -0.00338    0.00437
N1    3    0.181043    0.173759    0.774379    11.00000    0.03377    0.02400 =
         0.02207    0.00887    0.00353    0.00494
C1    1    0.102921    0.339435    0.762777    11.00000    0.02591    0.02310 =
         0.02010    0.00169   -0.00022    0.00466
C2    1    0.200826    0.392792    0.742582    11.00000    0.03290    0.02716 =
         0.02583    0.00676    0.00307    0.00583
C3    1    0.198638    0.489721    0.767882    11.00000    0.04929    0.02415 =
         0.03360    0.00984    0.00821    0.00541
AFIX  43
H3    2    0.262012    0.524982    0.752906    11.00000   -1.20000
AFIX   0
C4    1    0.105957    0.534667    0.814153    11.00000    0.04083    0.02308 =
         0.02854    0.00417    0.00047    0.00576
C5    1    0.016323    0.480917    0.838042    11.00000    0.02809    0.03368 =
         0.03486    0.00645    0.00555    0.01162
AFIX  43
H5    2   -0.044620    0.510818    0.871017    11.00000   -1.20000
AFIX   0
C6    1    0.011493    0.384714    0.815833    11.00000    0.02670    0.02756 =
         0.02575    0.00434   -0.00031    0.00330
C7    1    0.312238    0.352349    0.694421    11.00000    0.03814    0.02350 =
         0.04325    0.00836    0.01764    0.00268
AFIX  13
H7    2    0.315099    0.287911    0.694269    11.00000   -1.20000
AFIX   0
C8    1    0.291794    0.351399    0.605949    11.00000    0.07919    0.03974 =
         0.04806    0.01357    0.03298    0.01469
AFIX 137
H8A   2    0.214649    0.314802    0.581768    11.00000   -1.50000
H8B   2    0.361539    0.325017    0.576226    11.00000   -1.50000
H8C   2    0.286421    0.413782    0.604573    11.00000   -1.50000
AFIX   0
C9    1    0.439150    0.404838    0.732632    11.00000    0.04731    0.04135 =
         0.07677    0.01124    0.02384    0.00419
AFIX 137
H9A   2    0.443205    0.465779    0.726799    11.00000   -1.50000
H9B   2    0.506947    0.371627    0.705854    11.00000   -1.50000
H9C   2    0.446888    0.410024    0.789205    11.00000   -1.50000
AFIX   0
C10   1    0.102790    0.639718    0.838736    11.00000    0.07408    0.03086 =
         0.03941    0.00675    0.01633    0.01789
AFIX  13
H10   2    0.059280    0.658759    0.889044    11.00000   -1.20000
AFIX   0
C11   1    0.024276    0.666534    0.774846    11.00000    0.15053    0.05346 =
         0.07422    0.03055    0.02324    0.04557
AFIX 137
H11A  2    0.064622    0.649346    0.724644    11.00000   -1.50000
H11B  2    0.017430    0.732390    0.792765    11.00000   -1.50000
H11C  2   -0.058700    0.634765    0.766866    11.00000   -1.50000
AFIX   0
C12   1    0.229651    0.692391    0.855419    11.00000    0.10220    0.03107 =
         0.16456   -0.01445    0.01849   -0.01290
AFIX 137
H12A  2    0.279798    0.672358    0.893462    11.00000   -1.50000
H12B  2    0.219744    0.757576    0.877761    11.00000   -1.50000
H12C  2    0.271116    0.681162    0.805780    11.00000   -1.50000
AFIX   0
C13   1   -0.090501    0.337466    0.851844    11.00000    0.03344    0.03557 =
         0.03661   -0.00355    0.00573    0.00333
AFIX  13
H13   2   -0.073248    0.272054    0.839193    11.00000   -1.20000
AFIX   0
C14   1   -0.221974    0.339988    0.813544    11.00000    0.03304    0.07984 =
         0.05769    0.00544   -0.00275   -0.00502
AFIX 137
H14A  2   -0.240991    0.403359    0.823494    11.00000   -1.50000
H14B  2   -0.283464    0.308739    0.836903    11.00000   -1.50000
H14C  2   -0.224293    0.309454    0.756106    11.00000   -1.50000
AFIX   0
C15   1   -0.088219    0.377803    0.943962    11.00000    0.04862    0.04434 =
         0.04608    0.00809    0.01629   -0.00435
AFIX 137
H15A  2   -0.004394    0.377508    0.967264    11.00000   -1.50000
H15B  2   -0.146516    0.340887    0.964277    11.00000   -1.50000
H15C  2   -0.112309    0.440409    0.958339    11.00000   -1.50000
AFIX   0
C16   1    0.154364    0.182998    0.856141    11.00000    0.02713    0.02335 =
         0.03340    0.00803    0.00427    0.00513
C17   1    0.065289    0.121143    0.874860    11.00000    0.03507    0.02548 =
         0.03226    0.00856    0.00487    0.00568
C18   1    0.045620    0.131806    0.955839    11.00000    0.03830    0.04181 =
         0.04505    0.01629    0.00934    0.00184
AFIX  43
H18   2   -0.014352    0.091725    0.968034    11.00000   -1.20000
AFIX   0
C19   1    0.112308    0.199844    1.018164    11.00000    0.05568    0.05220 =
         0.03066    0.01576    0.01511    0.02156
AFIX  43
H19   2    0.096856    0.206081    1.071772    11.00000   -1.20000
AFIX   0
C20   1    0.201737    0.258414    1.000691    11.00000    0.04265    0.03844 =
         0.03041    0.00786    0.00209    0.01105
AFIX  43
H20   2    0.248092    0.303515    1.043074    11.00000   -1.20000
AFIX   0
C21   1    0.225300    0.252064    0.920075    11.00000    0.02312    0.02778 =
         0.03008    0.00783   -0.00028    0.00717
C22   1   -0.008799    0.041251    0.810754    11.00000    0.04428    0.03218 =
         0.04710    0.01785    0.00822   -0.00292
AFIX  13
H22   2    0.019474    0.041117    0.757833    11.00000   -1.20000
AFIX   0
C23   1   -0.151862    0.051492    0.809017    11.00000    0.04573    0.04835 =
         0.07125    0.02206    0.00443   -0.01058
AFIX 137
H23A  2   -0.183301    0.047751    0.858917    11.00000   -1.50000
H23B  2   -0.193880    0.002615    0.764355    11.00000   -1.50000
H23C  2   -0.167841    0.110512    0.802693    11.00000   -1.50000
AFIX   0
C24   1    0.018267   -0.052429    0.821936    11.00000    0.06753    0.04322 =
         0.05036    0.01538    0.00904   -0.00530
AFIX 137
H24A  2    0.107298   -0.059911    0.819628    11.00000   -1.50000
H24B  2   -0.027657   -0.101825    0.779530    11.00000   -1.50000
H24C  2   -0.007924   -0.054105    0.873641    11.00000   -1.50000
AFIX   0
C25   1    0.327967    0.317875    0.906036    11.00000    0.02549    0.03470 =
         0.03383    0.00860   -0.00314    0.00144
AFIX  13
H25   2    0.326814    0.307986    0.847499    11.00000   -1.20000
AFIX   0
C26   1    0.458907    0.297375    0.934001    11.00000    0.03853    0.04788 =
         0.05326    0.01445    0.00200    0.00158
AFIX 137
H26A  2    0.462942    0.307146    0.991414    11.00000   -1.50000
H26B  2    0.522490    0.338077    0.922034    11.00000   -1.50000
H26C  2    0.473382    0.234051    0.906089    11.00000   -1.50000
AFIX   0
C27   1    0.307615    0.420419    0.947778    11.00000    0.04689    0.03281 =
         0.05106    0.00593   -0.00265    0.00455
AFIX 137
H27A  2    0.225580    0.433422    0.930293    11.00000   -1.50000
H27B  2    0.371545    0.459069    0.933584    11.00000   -1.50000
H27C  2    0.312998    0.432870    1.005552    11.00000   -1.50000
AFIX   0
C28   1    0.558084    0.156699    0.641323    11.00000    0.03511    0.03361 =
         0.05816    0.00350    0.00654   -0.00061
AFIX  23
H28A  2    0.601158    0.217917    0.651846    11.00000   -1.20000
H28B  2    0.612288    0.110935    0.611345    11.00000   -1.20000
AFIX   0
C29   1    0.530989    0.140152    0.719340    11.00000    0.04127    0.03651 =
         0.05498   -0.00250   -0.00302    0.00237
AFIX  23
H29A  2    0.608702    0.146791    0.753149    11.00000   -1.20000
H29B  2    0.474278    0.184296    0.748686    11.00000   -1.20000
AFIX   0
C30   1    0.444380    0.020062    0.766864    11.00000    0.04751    0.04788 =
         0.05084    0.01605   -0.00902    0.00651
AFIX  23
H30A  2    0.389857    0.062671    0.800470    11.00000   -1.20000
H30B  2    0.521242    0.019586    0.799294    11.00000   -1.20000
AFIX   0
C31   1    0.378359   -0.075728    0.735189    11.00000    0.04508    0.05499 =
         0.05869    0.02457    0.00000    0.01557
AFIX  23
H31A  2    0.431102   -0.117488    0.699152    11.00000   -1.20000
H31B  2    0.361006   -0.099490    0.779763    11.00000   -1.20000
AFIX   0
C32   1    0.206714   -0.155348    0.641907    11.00000    0.05723    0.03330 =
         0.06062    0.01306    0.00673   -0.00118
AFIX  23
H32A  2    0.188138   -0.196571    0.673595    11.00000   -1.20000
H32B  2    0.263211   -0.184485    0.600998    11.00000   -1.20000
AFIX   0
C33   1    0.086101   -0.136251    0.602290    11.00000    0.04400    0.04043 =
         0.05426    0.00372    0.00784   -0.00400
AFIX  23
H33A  2    0.048154   -0.193461    0.563439    11.00000   -1.20000
H33B  2    0.026622   -0.114003    0.643251    11.00000   -1.20000
AFIX   0
C34   1    0.133014   -0.107939    0.478426    11.00000    0.03275    0.04861 =
         0.03932   -0.00546   -0.00188   -0.00099
AFIX  23
H34A  2    0.057964   -0.144285    0.448171    11.00000   -1.20000
H34B  2    0.201734   -0.148202    0.472862    11.00000   -1.20000
AFIX   0
C35   1    0.166909   -0.029775    0.447031    11.00000    0.03826    0.05222 =
         0.03982    0.00803   -0.00284    0.00862
AFIX  23
H35A  2    0.176384   -0.052869    0.389133    11.00000   -1.20000
H35B  2    0.101119    0.013139    0.456484    11.00000   -1.20000
AFIX   0
C36   1    0.324430    0.097192    0.469026    11.00000    0.05564    0.04306 =
         0.03846    0.01414    0.00550    0.01074
AFIX  23
H36A  2    0.265840    0.144700    0.487108    11.00000   -1.20000
H36B  2    0.328267    0.082441    0.410763    11.00000   -1.20000
AFIX   0
C38   1    0.451780    0.130224    0.510726    11.00000    0.05991    0.03020 =
         0.04822    0.01148    0.01660    0.00428
AFIX  23
H38A  2    0.510358    0.082865    0.491939    11.00000   -1.20000
H38B  2    0.483456    0.185759    0.499116    11.00000   -1.20000
AFIX   0

C1A   1    0.231185    0.342592    0.391204    11.00000    0.10989    0.23113 =
         0.05781    0.04251    0.00732    0.01427
AFIX 137
H     2    0.148858    0.361028    0.380662    11.00000   -1.50000
HA    2    0.281221    0.394485    0.428443    11.00000   -1.50000
HB    2    0.222786    0.292914    0.414403    11.00000   -1.50000
AFIX   0
C2A   1    0.292167    0.311642    0.316424    11.00000    0.07331    0.10985 =
         0.09025    0.02604   -0.01443    0.00622
C3A   1    0.298954    0.220184    0.279995    11.00000    0.07452    0.06184 =
         0.09814    0.01961   -0.01132    0.00647
AFIX  43
HC    2    0.265232    0.177532    0.303610    11.00000   -1.20000
AFIX   0
C4A   1    0.356847    0.188799    0.206330    11.00000    0.07980    0.09124 =
         0.13777    0.05386   -0.01847   -0.00603
AFIX  43
HD    2    0.356206    0.125320    0.180121    11.00000   -1.20000
AFIX   0
C5A   1    0.411513    0.246995    0.173961    11.00000    0.07592    0.11441 =
         0.09532    0.01444   -0.00684   -0.00151
AFIX  43
HE    2    0.454670    0.225366    0.127312    11.00000   -1.20000
AFIX   0
C6A   1    0.403977    0.344500    0.211367    11.00000    0.12202    0.08599 =
         0.09010    0.02457   -0.02214   -0.03631
AFIX  43
HF    2    0.439190    0.386896    0.187987    11.00000   -1.20000
AFIX   0
C7A   1    0.344391    0.374869    0.281976    11.00000    0.10561    0.09263 =
         0.10851    0.07094   -0.00875   -0.03070
AFIX  43
HG    2    0.339136    0.438123    0.306701    11.00000   -1.20000
AFIX   0

PART 0
PART -1
C1B   1    0.385559    0.616132    0.583115    21.00000    0.22737    0.05307 =
         0.21749    0.02978   -0.11383    0.00334
AFIX 137
HH    2    0.441920    0.670198    0.589325    21.00000   -1.50000
HI    2    0.431304    0.561602    0.566204    21.00000   -1.50000
HJ    2    0.350716    0.620272    0.633985    21.00000   -1.50000
AFIX  66
C2B   1    0.290053    0.610914    0.526079    21.00000    0.11241    0.04200 =
         0.08751    0.01030   -0.02140   -0.00575
C7B   1    0.163324    0.599196    0.540342    21.00000    0.06099    0.04657 =
         0.09834    0.00376    0.04606   -0.01005
AFIX  43
HK    2    0.141314    0.592800    0.589645    21.00000   -1.20000
AFIX  65
C6B   1    0.069493    0.597037    0.480916    21.00000    0.10530    0.04442 =
         0.19555   -0.00474    0.07605   -0.00356
AFIX  43
HL    2   -0.015297    0.589197    0.490459    21.00000   -1.20000
AFIX  65
C5B   1    0.102389    0.606597    0.407226    21.00000    0.25208    0.05850 =
         0.25395    0.04317    0.08601    0.04106
AFIX  43
HM    2    0.039609    0.605152    0.367466    21.00000   -1.20000
AFIX  65
C4B   1    0.229117    0.618315    0.392962    21.00000    0.16817    0.07901 =
         0.11583    0.02114    0.05434   -0.02484
AFIX  43
HN    2    0.251126    0.624711    0.343658    21.00000   -1.20000
AFIX  65
C3B   1    0.322949    0.620474    0.452387    21.00000    0.15951    0.09607 =
         0.05151    0.02377    0.05314   -0.04048
AFIX  43
HO    2    0.407739    0.628314    0.442844    21.00000   -1.20000
AFIX   0

PART 0
PART -2
C1C   1    0.083869    0.619922    0.399267   -21.00000    0.11454    0.05595 =
         0.05892   -0.00001   -0.04260   -0.01107
AFIX 137
HP    2    0.002381    0.625932    0.421172   -21.00000   -1.50000
HQ    2    0.080995    0.564174    0.353905   -21.00000   -1.50000
HR    2    0.106042    0.672597    0.381728   -21.00000   -1.50000
AFIX  66
C2C   1    0.175542    0.615589    0.459700   -21.00000    0.08691    0.03461 =
         0.04338    0.01378   -0.01452    0.01050
C3C   1    0.137110    0.596978    0.528882   -21.00000    0.08649    0.04453 =
         0.05646    0.01121   -0.00488    0.01212
AFIX  43
HS    2    0.051370    0.587971    0.535565   -21.00000   -1.20000
AFIX  65
C4C   1    0.226825    0.591826    0.588073   -21.00000    0.09599    0.04543 =
         0.04661    0.02105   -0.00024    0.01472
AFIX  43
HT    2    0.201111    0.579374    0.634360   -21.00000   -1.20000
AFIX  65
C5C   1    0.354973    0.605287    0.578084   -21.00000    0.09253    0.05766 =
         0.08460    0.01620   -0.01929    0.01011
AFIX  43
HU    2    0.414998    0.601841    0.617687   -21.00000   -1.20000
AFIX  65
C6C   1    0.393407    0.623899    0.508903   -21.00000    0.07502    0.06553 =
         0.10529    0.02057    0.00669   -0.00238
AFIX  43
HV    2    0.479147    0.632905    0.502220   -21.00000   -1.20000
AFIX  65
C7C   1    0.303693    0.629050    0.449711   -21.00000    0.08750    0.04760 =
         0.08028    0.02425    0.01115    0.01038
AFIX  43
HW    2    0.329407    0.641503    0.403424   -21.00000   -1.20000
AFIX   0

PART 0
PART -3
C1D   1    0.716065    1.025526    1.019275    10.50000    0.08576    0.08850 =
         0.08467    0.03136   -0.01072    0.00587
AFIX 137
HX    2    0.756007    0.994235    0.971038    10.50000   -1.50000
HY    2    0.746750    1.005020    1.063278    10.50000   -1.50000
HZ    2    0.735418    1.091338    1.032659    10.50000   -1.50000
AFIX  66
C2D   1    0.579419    1.004242    1.005378    10.50000    0.07011    0.05476 =
         0.04156    0.01382    0.01193    0.02022
C7D   1    0.502255    1.064975    0.984077    10.50000    0.08146    0.04876 =
         0.05151    0.01992    0.00561    0.02214
AFIX  43
H0AA  2    0.537973    1.118773    0.976221    10.50000   -1.20000
AFIX  65
C6D   1    0.371708    1.045299    0.974518    10.50000    0.08241    0.06760 =
         0.05354    0.01647    0.00494    0.01665
AFIX  43
H1AA  2    0.320081    1.085933    0.960266    10.50000   -1.20000
AFIX  65
C5D   1    0.318322    0.964891    0.986260    10.50000    0.08016    0.08383 =
         0.05262    0.01630    0.00429    0.00869
AFIX  43
H2AA  2    0.230977    0.951728    0.979865    10.50000   -1.20000
AFIX  65
C4D   1    0.395484    0.904159    1.007562    10.50000    0.08089    0.07264 =
         0.06012    0.02247   -0.00511    0.00965
AFIX  43
H3AA  2    0.359765    0.850361    1.015418    10.50000   -1.20000
AFIX  65
C3D   1    0.526032    0.923833    1.017121    10.50000    0.08014    0.05688 =
         0.06130    0.02333    0.00533    0.01847
AFIX  43
H4AA  2    0.577658    0.883199    1.031373    10.50000   -1.20000
AFIX   0
HKLF 4

REM  chenchj_0418_2 in P-1
REM R1 =  0.0770 for    4664 Fo > 4sig(Fo)  and  0.1589 for all    9331 data
REM    656 parameters refined using    116 restraints

END

WGHT      0.0413      0.0000

REM Highest difference peak  0.518,  deepest hole -0.295,  1-sigma level  0.056
Q1    1   0.3483  0.2679  0.2378  11.00000  0.05    0.52
Q2    1   0.2715  0.3914  0.3699  11.00000  0.05    0.31
Q3    1   0.3921  0.6182  0.5399  11.00000  0.05    0.28
Q4    1   0.2628  0.5970  0.5833  11.00000  0.05    0.26
;
_shelx_res_checksum              55691
_shelx_hkl_file
;
   0   0   3 2361.20 287.546   6
   0   0  -4 83884.5 1550.28   8
   0   0  -4 85753.1 1708.46   2
   0   0  -4 86709.4 1844.17   6
   0   0   4 82168.2 1912.43   6
   0   0   5 26643.5 1226.86   6
   0   0  -5 27099.9 1153.29   6
   0   0  -5 25913.0 1072.47   2
   0   0  -5 26431.4 971.363   8
   0   0  -6 4566.26 495.636   2
   0   0   6 5104.53 594.704   6
   0   0  -6 3749.61 473.138   6
   0   0  -6 4106.78 418.363   8
   0   0   7 8118.44 810.504   6
   0   0  -7 7293.65 603.397   8
   0   0  -7 7829.38 705.082   2
   0   0  -7 8350.30 757.298   6
   0   0   8 909.328 325.458   6
   0   0  -8 1295.35 327.888   2
   0   0  -8 950.704 230.353   8
   0   0  -8 935.000 274.186   6
   0   0  -9 24005.4 987.591   3
   0   0  -9 23850.7 1441.65   6
   0   0  -9 24735.8 1261.03   8
   0   0  -9 25263.5 1439.49   2
   0   0   9 26163.1 1679.03   6
   0   0 -10 1721.87 350.256   8
   0   0 -10 1321.99 223.027   3
   0   0  10 1683.23 465.629   6
   0   0 -10 1281.86 344.513   2
   0   0  11 9549.04 1145.93   6
   0   0 -11 10645.2 1484.63   9
   0   0 -11 9309.45 972.572   2
   0   0 -11 9342.12 851.134   8
   0   0 -12 995.437 283.708   8
   0   0 -12 1063.55 351.302   2
   0   0  12 1479.83 497.806   6
   0   0 -12 1519.31 637.371   9
   0   0 -13 604.187 476.788   9
   0   0 -13 749.119 375.328   2
   0   0  13 970.343 444.053   6
   0   0 -14 2658.16 569.145   2
   0   0  14 3301.14 795.203   6
   0   0 -14 4994.59 1166.46   9
   0   0 -15 789.154 347.231   2
   0   0 -15 329.135 181.967   9
   0   0  15 958.055 471.178   6
   0   0  16 1198.38 540.175   6
   0   0 -16 1055.29 518.604   9
   0   0 -17 2359.43 1013.06   7
   0   0 -17 2353.52 869.451   9
   0   0 -18 314.462 376.031   7
   0   0 -18-138.677 570.455   9
   0   0 -19 586.850 706.449   7
   0   0 -19 1266.14 794.853   9
   0   0 -20 497.828 568.609   9
   0   0 -20 297.555 410.032   7
   0   1 -21-573.495 525.548   9
   0   1 -20-608.907 513.521   9
   0   1 -20 170.501 399.251   7
   0   1 -19 42.2539 186.657   9
   0   1 -19 819.431 623.540   7
   0   1 -18 1221.69 691.886   7
   0   1 -18-267.323 526.354   9
   0   1 -18 1607.08 654.135   5
   0   1 -17 673.193 620.888   7
   0   1 -17 264.919 373.161   9
   0   1 -16 107.816 165.887   7
   0   1 -16 29.4473 217.092   9
   0  -1  16 473.716 335.987   6
   0   1 -15 4651.30 862.154   2
   0   1 -15 3049.23 971.030   7
   0  -1  15 4320.23 873.496   6
   0  -1  14 10791.8 1332.95   6
   0   1 -14 7568.52 1411.50   9
   0   1 -14 7531.73 1048.99   2
   0   1 -13 253.506 134.671   3
   0   1 -13 575.810 266.224   2
   0  -1  13 190.621 84.7281   6
   0   1 -12 5293.00 808.161   2
   0  -1  12 4600.39 783.594   6
   0   1 -11 3213.03 548.195   8
   0   1 -11 3896.28 673.597   2
   0  -1  11 3831.61 686.091   6
   0   1 -10 23684.8 1389.13   6
   0   1 -10 24862.1 1600.41   2
   0  -1  10 26373.5 1679.75   6
   0   1 -10 25386.7 1471.24   8
   0  -1   9 79.8882 127.968   6
   0   1  -9 1.50265 51.5873   8
   0   1  -9 75.8805 74.2811   6
   0   1  -9-100.329 112.122   2
   0  -1   8 1609.31 379.603   6
   0   1  -8 1653.79 343.753   8
   0   1  -8 1153.64 300.663   2
   0   1  -8 1633.18 313.876   6
   0  -1   7 7757.32 729.100   6
   0   1  -7 8963.11 690.567   6
   0   1  -7 8307.52 725.685   8
   0   1  -6 35113.0 1197.02   1
   0   1  -6 34163.7 1232.76   6
   0  -1   6 33755.9 1372.47   6
   0   1  -6 34505.9 1391.91   8
   0   1  -5 22457.2 1047.03   8
   0   1  -5 23011.9 915.751   1
   0  -1   5 22811.8 1068.28   8
   0  -1   5 21938.4 968.114   6
   0   1  -5 22507.7 896.829   6
   0   1  -4 3997.44 329.414   6
   0  -1   4 4248.11 374.438   6
   0  -1   4 4188.69 414.395   8
   0   1  -4 4283.97 364.908   1
   0  -1   3 10606.4 596.361   8
   0   1   3 58373.7 1654.13   6
   0  -1  -4 92583.2 1623.55   2
   0   1   4 100385. 2401.28   6
   0  -1  -5 7627.69 698.815   6
   0   1   5 6803.44 702.959   6
   0  -1  -5 6953.74 509.111   2
   0  -1  -5 7040.94 407.810   8
   0  -1  -6 24660.4 857.945   8
   0  -1  -6 27696.8 1424.39   6
   0   1   6 25972.5 1470.02   6
   0  -1  -6 23988.5 1042.90   2
   0  -1  -7 4068.78 382.747   8
   0   1   7 4218.13 660.806   6
   0  -1  -7 3474.11 527.942   6
   0  -1  -7 3623.21 447.455   2
   0  -1  -8 18531.8 1091.78   2
   0   1   8 17497.7 1371.15   6
   0  -1  -8 16787.5 847.367   8
   0  -1  -9 7034.39 585.124   8
   0   1   9 7156.94 936.560   6
   0  -1  -9 7085.33 719.328   2
   0   1  10 2496.71 579.785   6
   0  -1 -10 2426.38 364.536   8
   0  -1 -10 2032.47 409.893   2
   0   1  11 1282.82 474.578   6
   0  -1 -11 1169.83 306.819   2
   0  -1 -11 817.798 430.759   9
   0  -1 -11 1321.65 277.729   8
   0  -1 -12 719.007 217.146   8
   0  -1 -12 1104.92 328.129   2
   0  -1 -12 434.359 333.200   9
   0   1  12 1116.00 460.029   6
   0  -1 -13 11368.4 1700.71   9
   0  -1 -13 7482.07 871.278   2
   0   1  13 8401.01 1271.46   6
   0  -1 -14 549.837 252.438   2
   0  -1 -14 662.633 458.335   9
   0   1  14 571.638 420.847   6
   0  -1 -15-239.693 154.011   9
   0   1  15 849.738 497.440   6
   0   1  16 240.180 278.735   6
   0  -1 -16-76.4297 360.066   9
   0  -1 -17-303.392 326.449   9
   0   1  17 389.202 397.407   6
   0  -1 -18 529.370 595.565   9
   0  -1 -18 276.436 263.916   7
   0  -1 -19-224.330 330.578   9
   0  -1 -19 623.749 757.590   7
   0  -1 -20 1168.35 772.408   7
   0  -1 -20 710.704 426.497   9
   0   2 -21 227.615 220.586   9
   0   2 -21-1224.46 793.891   7
   0   2 -20-178.873 302.834   9
   0   2 -20 410.970 317.250   7
   0   2 -19 188.571 366.129   9
   0   2 -19-283.646 373.575   7
   0   2 -18-120.648 394.401   7
   0   2 -18 862.071 601.453   9
   0   2 -17 701.186 320.819   5
   0   2 -17 540.295 416.302   9
   0   2 -17 920.989 619.582   7
   0   2 -16 10148.8 1838.22   7
   0   2 -16 10739.6 1825.54   9
   0   2 -16 9071.41 1271.13   2
   0   2 -16 10073.6 1414.06   5
   0   2 -15 15906.9 2215.40   7
   0   2 -15 13922.9 1604.08   5
   0  -2  15 13433.0 1491.46   6
   0   2 -15 14727.3 1585.84   2
   0   2 -14 2176.07 864.547   7
   0   2 -14 943.698 386.757   2
   0  -2  14 1408.85 460.710   6
   0  -2  13 2310.56 565.740   6
   0   2 -13 3246.28 895.307   7
   0   2 -13 3107.68 664.911   2
   0  -2  12 451.888 209.670   6
   0   2 -12 559.265 301.747   7
   0   2 -12 445.290 198.107   6
   0   2 -12 433.257 204.521   2
   0   2 -11 9911.12 856.873   6
   0   2 -11 11075.5 1171.05   2
   0  -2  11 10690.4 1084.20   6
   0   2 -10 412.246 171.820   6
   0  -2  10 322.686 182.914   6
   0  -2   9 894.239 276.278   6
   0   2  -9 688.542 243.459   8
   0   2  -9 767.424 213.070   1
   0   2  -9 718.350 202.182   6
   0  -2   8 2263.88 389.139   6
   0   2  -8 2264.21 336.795   6
   0   2  -8 2046.04 366.693   1
   0   2  -8 2644.35 472.521   8
   0   2  -7 64.2260 64.1767   6
   0   2  -7 58.3175 54.0595   1
   0   2  -7 139.757 116.355   8
   0  -2   7 29.1058 73.2464   6
   0  -2   7 164.555 167.709   8
   0   2  -6 17179.7 970.656   1
   0   2  -6 17623.8 762.353   6
   0  -2   6 20351.6 1181.74   8
   0   2  -6 17428.0 1096.91   8
   0  -2   6 16613.5 858.330   6
   0   2  -5 45344.3 1090.82   6
   0  -2   5 47510.5 1717.62   8
   0   2  -5 48040.8 1296.09   5
   0  -2   5 44156.7 1214.98   6
   0   2  -4 27597.6 1071.56   4
   0  -2   4 25872.5 1171.27   8
   0   2  -3 6072.41 430.915   4
   0  -2   3 6468.69 581.243   7
   0  -2   3 6143.97 535.858   8
   0  -2  -1 2214.71 214.592   8
   0   2   1 2728.68 348.329   9
   0   2   2 6622.68 611.912   9
   0   2   2 6629.43 592.425   6
   0   2   3 41355.3 1604.21   6
   0   2   3 40098.8 1734.87   9
   0  -2  -4 13715.8 603.448   2
   0   2   4 13393.6 575.848   2
   0   2   4 14274.4 1015.46   6
   0   2   5 73.5029 56.7285   2
   0  -2  -5 160.449 97.9966   6
   0  -2  -5 54.3500 50.6160   2
   0   2   5 92.8546 126.777   6
   0   2   6 9855.52 970.725   6
   0  -2  -6 9932.18 625.272   2
   0   2   7 6147.81 821.549   6
   0  -2  -7 5061.26 488.315   2
   0  -2  -7 4797.77 323.588   8
   0  -2  -8 2574.89 371.621   2
   0  -2  -8 2430.39 254.347   8
   0   2   8 2431.76 535.323   6
   0  -2  -9 13332.4 645.316   8
   0  -2  -9 14071.8 922.992   2
   0   2   9 15159.4 1455.46   6
   0   2  10-98.5389 311.727   6
   0  -2 -10 137.728 75.0660   8
   0  -2 -10 128.550 95.4221   2
   0  -2 -11 1381.15 231.081   8
   0   2  11 1504.35 528.022   6
   0  -2 -11 1711.70 356.410   2
   0  -2 -11 1488.43 600.601   9
   0  -2 -12 801.981 438.001   9
   0   2  12 68.5926 112.944   6
   0  -2 -12 428.364 157.823   2
   0   2  13 2762.04 793.018   6
   0  -2 -13 1888.42 723.517   9
   0  -2 -13 2243.94 431.950   2
   0   2  14 5949.63 1166.44   6
   0  -2 -14 8201.70 1581.45   9
   0   2  15 935.021 471.841   6
   0  -2 -15 1226.17 589.767   9
   0   2  16 1150.78 554.706   6
   0  -2 -16 1469.53 647.688   9
   0  -2 -17 460.542 513.670   9
   0   2  17 134.471 349.948   6
   0  -2 -18 875.000 589.349   9
   0  -2 -19 491.179 601.847   9
   0  -2 -19-472.275 500.131   7
   0   3 -21 769.448 566.468   9
   0   3 -21 1344.76 912.747   7
   0   3 -20 592.520 487.029   9
   0   3 -20 1133.57 722.746   7
   0   3 -19 720.542 591.909   7
   0   3 -19 292.522 206.361   9
   0   3 -18 884.514 577.006   9
   0   3 -18 918.089 534.563   4
   0   3 -18 977.845 610.548   7
   0   3 -17 1963.43 603.902   2
   0   3 -17 3645.50 1158.20   7
   0   3 -16 6902.29 1109.17   5
   0   3 -16 8073.65 1257.55   2
   0   3 -16 7108.13 1505.11   7
   0   3 -15 584.912 311.003   2
   0   3 -15 1201.36 416.843   5
   0  -3  15 1045.22 416.840   6
   0   3 -15 823.643 432.774   7
   0   3 -14 4620.93 891.580   2
   0   3 -14 3765.61 1012.28   7
   0  -3  14 3977.42 734.617   6
   0   3 -14 4455.23 807.788   5
   0   3 -13 4740.38 802.746   5
   0   3 -13 4235.80 1033.33   7
   0   3 -13 4356.29 829.885   2
   0   3 -13 4058.87 543.297   6
   0  -3  13 4037.50 679.999   6
   0   3 -12 2576.27 552.029   5
   0  -3  12 2111.58 453.545   6
   0   3 -12 1855.32 686.142   7
   0   3 -12 1411.13 313.894   6
   0  -3  11 2275.58 453.917   6
   0   3 -11 2721.16 509.890   1
   0   3 -11 2845.25 536.416   5
   0   3 -11 3505.87 870.342   7
   0   3 -11 2666.31 390.232   6
   0   3 -10-44.2982 44.6519   6
   0   3 -10-94.7578 101.342   7
   0   3 -10-35.5982 101.195   5
   0   3 -10-25.2036 130.812   1
   0  -3  10 17.5969 62.4848   6
   0   3  -9 976.457 205.373   6
   0   3  -9 927.503 268.345   5
   0   3  -9 1269.50 329.193   1
   0   3  -8 18948.2 825.080   6
   0  -3   8 19214.7 1372.10   8
   0   3  -8 19860.7 1083.04   5
   0   3  -8 19568.0 1255.88   1
   0   3  -8 18964.5 1335.15   4
   0  -3   7 3466.22 562.839   8
   0   3  -7 4413.92 580.880   1
   0   3  -7 4164.08 361.756   6
   0   3  -7 4812.66 655.619   8
   0   3  -7 4224.35 579.831   4
   0   3  -7 3732.97 425.052   5
   0  -3   6 30412.5 1580.07   8
   0   3  -6 27376.6 876.364   6
   0   3  -6 30673.3 1591.78   8
   0   3  -6 29420.1 1379.25   4
   0  -3   5 10049.0 914.333   7
   0   3  -5 8718.69 497.044   6
   0   3  -5 9187.02 683.974   4
   0  -3   5 10230.3 868.192   8
   0  -3   4 542.526 207.964   7
   0  -3   4 1040.75 202.796   4
   0  -3   4 967.292 254.168   8
   0  -3   3 35605.2 1495.93   8
   0  -3   3 36920.7 1428.58   7
   0  -3   2 262.610 173.822   8
   0   3  -2 163.985 105.245   6
   0   3  -1 1919.76 271.424   6
   0  -3   1 2218.15 336.494   8
   0  -3   0 74735.4 1734.81   8
   0   3   0 77935.4 1922.34   6
   0   3   1 19658.9 1073.52   9
   0   3   1 17601.5 808.774   8
   0  -3  -1 20038.1 826.452   8
   0   3   1 19031.5 1041.92   6
   0  -3  -2 25005.9 833.030   8
   0   3   2 25836.2 1331.44   6
   0   3   2 24433.2 900.521   8
   0   3   2 26979.8 1390.98   9
   0   3   3 11960.5 663.598   2
   0  -3  -3 12797.7 529.920   8
   0   3   3 11716.9 580.451   8
   0   3   3 12475.5 988.359   6
   0   3   3 11853.4 1019.82   9
   0   3   4 1154.68 302.426   6
   0   3   4 841.025 170.990   2
   0   3   4 1413.02 367.729   9
   0   3   5 948.547 329.525   6
   0   3   5 745.220 149.601   2
   0   3   6 35577.1 1990.58   6
   0   3   6 29533.7 922.501   2
   0   3   7 1071.60 390.660   6
   0   3   7 663.448 156.527   3
   0   3   8 6391.35 979.214   6
   0   3   9 13387.3 1456.23   6
   0  -3  -9 11774.4 717.607   2
   0  -3 -10 2548.96 344.169   2
   0   3  10 4110.85 881.318   6
   0  -3 -10 3874.11 952.153   9
   0  -3 -11 23.2223 51.2472   2
   0  -3 -11 110.288 218.693   9
   0   3  11 192.775 158.889   6
   0  -3 -12 1437.27 260.889   2
   0   3  12 1200.36 529.841   6
   0  -3 -12 2035.95 676.303   9
   0  -3 -13 3936.02 1060.95   9
   0   3  13 4318.12 986.217   6
   0   3  14 1554.14 651.217   6
   0  -3 -14 2127.57 793.958   9
   0  -3 -15 3138.07 952.402   9
   0   3  15 3420.71 951.501   6
   0   3  16 1361.68 676.204   6
   0  -3 -16 1875.18 787.803   9
   0   3  17 641.637 237.095   6
   0  -3 -17 1551.91 883.218   9
   0  -3 -18 372.815 420.752   9
   0  -3 -19 313.754 389.787   9
   0   4 -22-296.043 383.342   9
   0   4 -21-91.9449 335.732   7
   0   4 -21 169.916 205.428   9
   0   4 -20 581.596 520.520   7
   0   4 -20 1011.15 622.364   9
   0   4 -19 513.973 488.579   9
   0   4 -19 694.451 545.295   7
   0   4 -18 51.0073 129.543   4
   0   4 -18 235.690 231.896   2
   0   4 -18 661.170 504.399   7
   0   4 -17 7654.50 1290.30   2
   0   4 -17 7949.98 1405.27   4
   0   4 -17 6035.82 1433.38   7
   0   4 -16 257.608 192.271   5
   0   4 -16 352.223 390.301   4
   0   4 -16 319.539 328.028   2
   0   4 -16 52.6529 261.734   7
   0   4 -15-141.438 269.281   2
   0   4 -15 58.7126 138.934   5
   0   4 -15 71.0567 292.916   7
   0   4 -15-142.429 203.047   4
   0   4 -14-130.434 337.716   7
   0   4 -14 204.384 92.9932   4
   0   4 -14 255.952 172.687   5
   0   4 -14-86.6483 137.236   2
   0   4 -13 1412.69 380.252   5
   0   4 -13 425.138 303.647   4
   0   4 -13 1567.56 418.256   1
   0   4 -13 784.841 450.713   7
   0   4 -13 639.281 187.192   6
   0   4 -12 1870.19 558.828   4
   0   4 -12 1186.76 383.047   1
   0   4 -12 1463.38 595.754   7
   0   4 -12 1325.72 257.854   6
   0   4 -12 1465.11 363.664   5
   0   4 -11 1695.99 485.793   4
   0   4 -11 2061.25 669.830   7
   0   4 -11 1501.63 347.851   5
   0   4 -11 1449.82 251.947   6
   0   4 -11 1700.91 429.199   1
   0   4 -10-76.7076 150.868   4
   0   4 -10 53.4747 129.638   7
   0   4 -10 18.3882 36.3028   6
   0   4 -10-150.081 151.760   1
   0   4 -10-8.03171 99.9511   5
   0  -4   9 11429.3 1179.53   8
   0   4  -9 11714.6 1089.41   1
   0   4  -9 13544.5 1174.70   4
   0   4  -9 11632.0 615.742   6
   0   4  -9 15083.3 1573.90   7
   0   4  -8 4743.17 844.364   7
   0   4  -8 4341.09 362.989   6
   0   4  -8 3697.06 610.277   1
   0  -4   8 3827.29 652.005   8
   0   4  -8 4979.90 645.715   4
   0   4  -7 3601.90 659.623   7
   0   4  -7 2698.14 290.950   6
   0  -4   7 3238.61 594.304   8
   0   4  -7 2563.69 424.945   4
   0   4  -6 2159.46 513.487   7
   0  -4   6 2030.90 463.151   7
   0  -4   6 1837.02 415.881   8
   0   4  -5 1489.32 369.909   7
   0  -4   5 1839.79 389.933   7
   0  -4   5 1877.60 307.094   4
   0  -4   5 1241.95 352.467   8
   0   4  -4 16595.7 1121.28   7
   0  -4   4 16015.3 1158.36   8
   0  -4   4 19097.6 1182.56   7
   0  -4   3 11818.4 934.986   8
   0   4  -3 10409.8 636.116   6
   0  -4   3 11841.6 842.628   7
   0   4  -2 29548.2 1170.07   6
   0  -4   2 30597.8 1436.09   8
   0   4  -1 216009. 3435.10   6
   0  -4   1 212749. 3586.28   8
   0  -4   0 185740. 3152.56   8
   0   4   0 188276. 3519.87   6
   0   4   0 186185. 3237.35   8
   0   4   1 24510.9 1129.53   8
   0   4   1 23661.6 1323.63   9
   0  -4  -1 23926.1 1067.06   8
   0   4   1 25311.5 1385.19   6
   0   4   2 874.655 202.137   8
   0  -4  -2 1103.96 208.991   8
   0   4   2 515.050 208.778   9
   0   4   2 641.766 225.791   6
   0   4   3 20106.4 1396.15   6
   0   4   3 20511.8 1437.86   9
   0  -4  -3 19671.6 808.641   8
   0   4   3 18614.4 887.430   8
   0   4   4 1093.70 395.854   6
   0   4   4 1173.46 245.229   2
   0  -4  -4 1030.35 165.528   8
   0   4   5 12178.6 707.709   2
   0   4   5 12160.6 1217.52   6
   0   4   6 28154.6 988.690   2
   0   4   6 32151.2 2043.48   6
   0   4   7 2465.74 268.329   2
   0   4   7 3286.19 683.066   6
   0   4   8 6230.57 522.369   3
   0   4   8 6496.69 1042.12   6
   0   4   9 680.498 380.364   6
   0  -4  -9 298.078 218.710   9
   0  -4 -10 1517.77 594.011   9
   0   4  10 1868.65 596.510   6
   0  -4 -11 7525.41 1346.91   9
   0   4  11 5915.23 1146.39   6
   0  -4 -12 1220.93 571.375   9
   0   4  12 2670.36 778.720   6
   0   4  13 2822.20 845.699   6
   0  -4 -13 3049.07 969.989   9
   0   4  14 6326.05 1295.89   6
   0  -4 -14 4687.96 1167.36   9
   0   4  15 2872.34 920.398   6
   0  -4 -15 2548.89 874.202   9
   0  -4 -16 242.918 183.183   9
   0   4  16 761.848 437.821   6
   0   4  17 1787.78 800.873   6
   0  -4 -17 1957.23 955.720   9
   0  -4 -18 1787.87 962.564   9
   0   4  18 1306.44 710.816   6
   0   5 -22-862.909 613.283   9
   0   5 -21-304.919 548.541   7
   0   5 -21-160.718 304.551   9
   0   5 -20 795.237 536.398   7
   0   5 -20 1295.47 747.198   9
   0   5 -19 194.632 242.711   2
   0   5 -19-278.813 371.634   7
   0   5 -18 1620.23 795.705   7
   0   5 -18 1275.94 549.764   2
   0   5 -17 105.867 279.136   2
   0   5 -17 449.164 419.306   7
   0   5 -17 99.0912 302.014   4
   0   5 -16 2682.20 769.901   4
   0   5 -16 3493.72 1009.68   7
   0   5 -16 2377.52 720.905   2
   0   5 -15-175.094 246.432   4
   0   5 -15 235.235 417.009   7
   0   5 -15-87.3201 119.422   2
   0   5 -14 151.055 196.441   4
   0   5 -14 668.586 421.148   7
   0   5 -14 198.229 210.251   1
   0   5 -13 475.950 250.763   1
   0   5 -13 354.090 269.356   4
   0   5 -13-144.898 319.332   7
   0   5 -13 394.279 126.835   6
   0   5 -12 4070.22 945.659   7
   0   5 -12 3576.84 347.033   6
   0   5 -12 3520.18 686.878   1
   0   5 -12 4011.20 751.582   4
   0   5 -11 5020.92 795.142   1
   0   5 -11 4650.05 367.976   6
   0   5 -11 5519.56 1057.32   7
   0   5 -11 5264.80 790.674   4
   0   5 -10 1024.50 342.939   4
   0   5 -10 590.296 127.988   6
   0  -5  10 804.773 310.218   8
   0   5 -10 743.959 369.035   7
   0   5 -10 587.267 291.002   1
   0   5  -9 8531.54 1021.12   1
   0  -5   9 7109.72 973.286   8
   0   5  -9 7611.39 837.391   4
   0   5  -9 8132.41 1130.43   7
   0   5  -9 7198.25 457.740   6
   0   5  -8 6895.20 492.065   6
   0  -5   8 7292.70 951.996   8
   0   5  -8 8043.43 1057.57   7
   0  -5   7 7161.25 713.752   4
   0  -5   7 6752.30 899.917   8
   0  -5   7 6803.75 896.097   7
   0   5  -7 7018.83 930.243   7
   0  -5   6 31853.5 1435.40   4
   0  -5   6 25450.7 1628.96   7
   0   5  -6 27998.2 1738.24   7
   0  -5   6 28126.9 1746.62   8
   0  -5   5 2595.20 535.572   8
   0  -5   5 2451.30 469.347   7
   0  -5   4 7939.43 789.407   7
   0  -5   4 7329.39 826.405   8
   0   5  -4 6993.54 571.644   6
   0   5  -3 15626.4 921.632   6
   0  -5   3 17351.9 1233.80   8
   0   5  -2 4190.22 512.931   6
   0  -5   2 3367.60 543.663   8
   0  -5   1 9481.54 842.040   8
   0   5  -1 10944.3 915.482   8
   0   5  -1 10862.6 882.596   6
   0   5   0 40207.0 1689.71   8
   0  -5   0 38820.6 1617.57   8
   0   5   0 40307.5 1811.17   6
   0   5   1 40429.6 1639.06   8
   0  -5  -1 42280.7 1600.48   8
   0   5   1 41335.8 1963.53   6
   0   5   2 1864.53 437.190   6
   0   5   2 1885.89 339.721   8
   0   5   2 1283.60 349.545   9
   0  -5  -2 1732.43 305.859   8
   0   5   3 272.379 112.196   8
   0   5   3 595.195 282.022   6
   0  -5  -3 677.717 170.335   8
   0   5   4 40063.7 2224.61   6
   0   5   4 37575.6 1517.76   2
   0  -5  -4 37352.6 1198.43   8
   0   5   4 35958.9 1345.94   8
   0  -5  -5 3213.81 306.759   8
   0   5   5 3671.56 711.057   6
   0   5   5 3002.49 405.982   2
   0   5   6 636.062 315.181   6
   0   5   6 599.715 167.474   2
   0   5   7 808.691 399.363   6
   0   5   7 1001.97 184.496   2
   0   5   8 382.549 335.439   6
   0  -5  -8 356.757 254.704   9
   0   5   9 3528.11 417.928   3
   0  -5  -9 4355.41 965.185   9
   0   5   9 4104.39 916.270   6
   0   5   9 3032.39 319.243   1
   0   5  10 492.426 367.091   6
   0  -5 -10 1022.98 621.350   9
   0   5  11 3439.12 878.680   6
   0  -5 -11 3234.96 951.094   9
   0   5  12 92.5291 270.396   6
   0  -5 -12-337.266 463.033   9
   0   5  13 7845.29 1463.90   6
   0  -5 -13 8494.61 1624.68   9
   0   5  14 3321.22 982.927   6
   0  -5 -14 2776.39 965.970   9
   0  -5 -15 3395.87 1115.66   9
   0   5  15 2699.09 961.494   6
   0   5  16 580.624 387.691   6
   0  -5 -16-308.154 365.429   9
   0  -5 -17 628.091 673.633   9
   0   5  17 1005.23 625.546   6
   0   5  18-455.282 432.383   6
   0   6 -22 3.49317 192.613   9
   0   6 -22-74.9714 241.118   7
   0   6 -21-344.135 426.491   7
   0   6 -21 948.349 601.388   9
   0   6 -20 1175.27 709.930   7
   0   6 -20 1319.66 581.019   2
   0   6 -19-665.059 562.796   7
   0   6 -19 1128.41 594.347   2
   0   6 -18 243.074 157.550   7
   0   6 -18 155.765 310.543   2
   0   6 -17 289.841 282.764   2
   0   6 -17 203.275 313.109   7
   0   6 -16 2260.77 649.353   4
   0   6 -16 2970.61 840.358   2
   0   6 -16 3046.26 967.153   7
   0   6 -15 543.872 365.332   7
   0   6 -15 306.885 208.543   4
   0   6 -15 274.387 306.919   1
   0   6 -14 308.161 247.882   4
   0   6 -14 100.999 168.207   7
   0   6 -14 232.985 243.100   1
   0   6 -13 12052.2 1307.19   4
   0   6 -13 13538.9 1812.12   7
   0   6 -13 13046.1 1431.45   1
   0   6 -12 4900.12 783.794   4
   0   6 -12 3798.97 754.688   1
   0   6 -12 3762.21 889.448   7
   0   6 -11 15511.9 1505.40   1
   0   6 -11 15876.1 1770.28   7
   0  -6  11 14201.2 1559.05   8
   0   6 -11 15166.3 1302.80   4
   0   6 -10 4980.73 362.695   6
   0   6 -10 6397.78 955.597   1
   0  -6  10 7099.22 1064.27   8
   0   6 -10 5462.35 983.945   7
   0   6  -9 1065.92 402.320   7
   0  -6   9 1227.19 500.787   8
   0   6  -9 657.710 168.651   6
   0  -6   8 6247.39 704.848   4
   0  -6   8 6990.01 995.301   8
   0   6  -8 6199.70 944.581   7
   0  -6   7 3832.57 690.879   7
   0  -6   7 4652.63 603.338   4
   0   6  -7 3812.78 702.465   7
   0  -6   7 4184.41 735.380   8
   0  -6   6 2837.85 577.751   7
   0   6  -6 2275.99 331.030   6
   0  -6   6 2595.33 467.602   4
   0  -6   6 3142.51 656.567   8
   0  -6   5 19850.9 1377.48   7
   0   6  -5 19434.3 1022.78   6
   0  -6   5 21063.8 1592.17   8
   0  -6   4 4818.11 651.216   7
   0  -6   4 4746.25 733.547   8
   0   6  -4 4508.20 531.938   6
   0  -6   3 1152.67 330.508   8
   0   6  -3 1232.01 317.632   6
   0   6  -2 1882.97 396.333   6
   0  -6   2 2172.23 459.792   8
   0   6  -2 1486.11 378.915   8
   0   6  -1 23258.9 1462.50   8
   0   6  -1 23565.7 1441.56   6
   0  -6   1 23250.5 1434.78   8
   0   6   0 12007.5 1109.23   6
   0  -6   0 11282.4 956.423   8
   0   6   0 11013.6 981.584   8
   0  -6  -1 35841.6 1620.99   8
   0   6   1 35462.9 1709.82   8
   0   6   1 33784.7 1930.52   6
   0   6   1 35236.0 1933.94   9
   0  -6  -2 67608.9 2123.02   8
   0   6   2 67198.0 2839.60   6
   0   6   2 64452.8 2237.50   8
   0   6   3 31684.7 1510.18   8
   0  -6  -3 32349.1 1395.24   8
   0   6   3 35345.6 2175.35   6
   0   6   4 1405.51 464.157   6
   0   6   4 873.484 229.389   8
   0  -6  -4 1029.37 218.032   8
   0   6   5 327.676 171.820   2
   0  -6  -5 456.589 139.861   8
   0   6   5 577.539 299.427   6
   0   6   6 214.851 238.594   6
   0   6   6 335.992 132.760   2
   0   6   7 3637.72 411.521   2
   0   6   7 3478.30 773.543   6
   0   6   8 6106.96 1155.31   6
   0   6   8 4433.30 350.115   2
   0  -6  -8 4838.86 1034.85   9
   0  -6  -9 211.047 319.632   9
   0   6   9 65.2240 239.895   6
   0   6   9 85.5697 82.6373   1
   0   6  10 1989.44 690.072   6
   0  -6 -10 2447.01 781.603   9
   0  -6 -11 4031.89 1076.95   9
   0   6  11 4006.45 1006.74   6
   0   6  12 2778.97 893.479   6
   0  -6 -12 5223.32 1246.41   9
   0  -6 -13-217.438 287.955   9
   0   6  13 1115.31 605.816   6
   0  -6 -14 299.266 240.339   9
   0   6  14-300.806 369.542   6
   0   6  15 2197.31 864.507   6
   0  -6 -15 2412.67 980.698   9
   0  -6 -16 226.568 582.880   9
   0   6  16 542.462 372.056   6
   0   6  17-53.3307 203.378   6
   0   6  18 709.704 657.086   6
   0   7 -22 271.575 525.140   9
   0   7 -22-191.202 333.379   7
   0   7 -21-1396.03 810.536   7
   0   7 -20 669.368 510.078   2
   0   7 -20 1612.80 836.307   7
   0   7 -19 1045.44 558.010   2
   0   7 -19 508.353 635.849   7
   0   7 -18 398.908 342.587   2
   0   7 -18 406.481 429.768   7
   0   7 -17 608.974 358.686   1
   0   7 -17 2016.87 824.420   7
   0   7 -17 2237.48 781.390   2
   0   7 -16 3817.41 856.287   1
   0   7 -16 2811.60 943.654   7
   0   7 -15 707.157 332.820   4
   0   7 -15 438.405 278.636   1
   0   7 -15 298.003 327.947   7
   0   7 -14 6520.84 1084.58   1
   0   7 -14 5788.98 1256.70   7
   0   7 -13 1450.17 571.084   7
   0   7 -13 1405.94 507.340   1
   0   7 -12 4119.28 930.035   7
   0   7 -12 4407.26 860.678   1
   0   7 -11 7466.03 1206.04   7
   0   7 -11 5802.29 979.631   1
   0  -7  11 5577.24 1013.11   8
   0  -7  10-147.938 190.388   8
   0   7 -10 93.4389 59.9232   6
   0   7 -10 99.3644 50.7918   6
   0   7 -10 223.595 249.816   7
   0   7 -10-14.0606 129.509   1
   0  -7   9 256.986 138.533   4
   0   7  -9 591.825 386.716   7
   0  -7   8 3011.79 512.610   4
   0   7  -8 1985.92 300.141   6
   0   7  -8 2590.96 622.195   7
   0  -7   8 1749.96 524.898   8
   0  -7   7 7622.18 1089.50   8
   0   7  -7 7198.76 624.562   6
   0  -7   7 7727.60 841.607   4
   0  -7   6 56.4101 94.7467   7
   0  -7   6-78.8084 193.795   8
   0   7  -6 98.6057 102.327   6
   0   7  -5 737.934 244.290   6
   0  -7   5 1034.97 338.817   7
   0  -7   5 660.911 359.515   8
   0   7  -4 29.3166 77.5732   6
   0  -7   4 278.725 214.089   8
   0   7  -3 141.575 165.876   6
   0  -7   3 67.5394 170.669   8
   0   7  -2 96369.6 3040.66   6
   0  -7   2 96454.8 3235.56   8
   0  -7   1 9262.67 996.439   8
   0   7  -1 10568.4 1059.69   6
   0   7   0 54835.5 2388.37   8
   0  -7   0 55118.1 2273.81   8
   0   7   0 52951.6 2484.86   6
   0   7   1 15026.8 1210.12   8
   0   7   1 15444.6 1410.58   6
   0  -7  -1 12954.1 1079.92   8
   0  -7  -2 17747.6 1193.77   8
   0   7   2 19249.2 1331.68   8
   0   7   2 16281.7 1502.49   6
   0   7   3 4289.32 862.780   6
   0  -7  -3 4464.62 573.235   8
   0   7   3 4669.15 645.945   8
   0   7   4 1957.01 410.387   8
   0   7   4 2569.20 640.996   6
   0  -7  -4 2154.14 374.638   8
   0   7   5 980.922 269.194   8
   0   7   5 1029.48 297.842   2
   0  -7  -5 1314.63 261.462   8
   0   7   5 1590.54 531.200   6
   0   7   6 1153.40 292.853   2
   0   7   6 902.560 434.820   6
   0   7   7 9385.13 748.946   2
   0   7   7 11122.3 1515.54   6
   0   7   8 481.009 191.259   6
   0   7   9 779.803 239.944   1
   0   7   9 1363.45 538.619   6
   0   7  10-29.1170 294.656   6
   0   7  11 5708.76 1270.05   6
   0   7  12 583.045 416.842   6
   0   7  13 1820.67 752.848   6
   0   7  14 671.180 419.831   6
   0   7  15 2823.29 1015.48   6
   0   7  16-327.239 374.650   6
   0   7  17 319.820 288.944   6
   0   7  18-1.23240 215.281   6
   0   8 -23 371.980 428.404   9
   0   8 -22-1116.98 748.842   7
   0   8 -21 244.888 253.028   2
   0   8 -21-343.700 419.776   7
   0   8 -20 235.782 297.728   2
   0   8 -20-151.032 280.806   7
   0   8 -19-537.210 420.311   2
   0   8 -19-57.5839 249.152   7
   0   8 -18 1530.00 631.965   2
   0   8 -18 1590.66 614.880   1
   0   8 -18 606.676 441.083   7
   0   8 -17 592.938 487.029   7
   0   8 -17 36.1183 185.173   1
   0   8 -16 105.924 99.0873   1
   0   8 -16 558.590 391.678   7
   0   8 -15 8421.68 1320.13   1
   0   8 -15 8359.11 1574.70   7
   0   8 -14 2275.82 685.437   1
   0   8 -14 2008.60 685.426   7
   0   8 -13 1461.68 538.600   1
   0   8 -13 931.047 477.683   7
   0   8 -12 2598.37 747.808   1
   0  -8  12 2950.79 790.269   8
   0   8 -12 3356.52 860.615   7
   0  -8  11 1247.49 561.268   8
   0   8 -11 1144.99 475.294   7
   0   8 -11 1431.18 201.047   6
   0   8 -11 2282.66 641.741   1
   0   8 -11 1505.64 249.554   6
   0   8 -10-66.3347 55.8292   6
   0   8 -10-84.7160 253.667   7
   0  -8  10-331.583 359.358   8
   0  -8   9-122.428 63.0703   5
   0  -8   9-250.108 163.053   4
   0   8  -9 54.5779 82.8861   6
   0  -8   9 16.8620 262.724   8
   0  -8   8 6424.02 818.889   4
   0   8  -8 5620.54 587.874   6
   0  -8   8 6104.48 1047.22   8
   0   8  -7 383.268 168.724   6
   0  -8   7 802.458 394.001   8
   0  -8   6 7578.71 965.545   7
   0   8  -6 8189.22 803.216   6
   0  -8   6 9159.88 1195.16   8
   0   8  -5 6472.15 754.122   6
   0  -8   5 5916.24 940.975   8
   0  -8   5 7232.99 901.151   7
   0  -8   4 11562.6 1273.57   8
   0   8  -4 12650.4 1099.20   6
   0  -8   3 8450.66 1039.27   8
   0   8  -3 9047.85 977.414   6
   0  -8   2 14848.7 1363.57   8
   0   8  -2 13073.1 1239.88   6
   0  -8   1 12639.4 1205.59   8
   0   8  -1 14683.9 1350.00   6
   0   8   0 3060.90 656.543   6
   0  -8   0 4404.43 685.069   8
   0  -8  -1 693.268 279.446   8
   0   8   1 1449.47 469.964   6
   0  -8  -2 21269.6 1415.19   8
   0   8   2 21734.8 1853.06   6
   0   8   2 18842.6 1440.83   8
   0   8   3 12162.6 1117.70   8
   0   8   3 13539.7 1519.13   6
   0  -8  -3 13296.7 1062.42   8
   0   8   4 768.286 421.929   6
   0  -8  -4 484.702 184.855   8
   0   8   4 648.182 234.691   8
   0   8   5 1125.82 312.440   8
   0   8   5 1241.43 362.386   2
   0   8   5 1200.53 511.250   6
   0  -8  -5 1528.30 323.620   8
   0   8   6 442.654 178.119   6
   0   8   6 330.104 202.150   2
   0   8   7-103.204 149.790   6
   0   8   8 321.758 335.848   6
   0   8   8 88.6257 138.971   1
   0   8   9 2404.13 751.381   6
   0   8  10 1666.99 695.311   6
   0   8  11 2338.98 864.075   6
   0   8  12 2095.98 783.852   6
   0   8  13-24.9208 343.424   6
   0   8  14 650.094 456.393   6
   0   8  15-314.108 377.300   6
   0   8  16 466.332 457.671   6
   0   8  17 630.627 528.025   6
   0   9 -22 406.531 484.402   2
   0   9 -22 347.539 492.158   7
   0   9 -21 247.004 367.035   7
   0   9 -21 379.882 301.419   2
   0   9 -20 789.623 589.773   7
   0   9 -20 253.393 192.600   2
   0   9 -19-117.515 253.102   7
   0   9 -19-1333.40 670.458   2
   0   9 -18 775.296 429.849   1
   0   9 -18 600.742 481.212   7
   0   9 -17 1187.27 679.709   7
   0   9 -17 738.379 347.241   1
   0   9 -16 764.699 392.626   1
   0   9 -16 1131.25 591.777   7
   0   9 -15 6458.98 1349.26   7
   0   9 -15 7156.56 1266.98   1
   0   9 -14 429.100 357.447   7
   0   9 -14 647.531 335.493   1
   0   9 -13 1232.07 545.477   1
   0   9 -13 857.395 449.067   7
   0  -9  12 2917.56 822.485   8
   0   9 -12 2501.98 750.846   7
   0   9 -12 3757.24 862.355   1
   0   9 -12 2185.73 234.480   6
   0  -9  11 2034.89 655.669   8
   0   9 -11 2086.48 297.197   6
   0   9 -11 2943.97 781.174   1
   0  -9  10 1356.35 384.118   4
   0  -9  10 2803.00 819.358   8
   0   9 -10 1516.63 316.662   6
   0  -9   9 2599.70 709.508   8
   0   9  -9 1877.22 351.881   6
   0  -9   9 1762.27 444.417   4
   0  -9   8 4502.85 724.704   4
   0   9  -8 3414.60 516.738   6
   0  -9   8 3765.81 839.748   8
   0  -9   7 448.432 271.615   8
   0   9  -7 814.474 276.856   6
   0  -9   6 169.795 186.612   8
   0   9  -6 356.843 174.307   6
   0  -9   5 26997.1 2120.83   8
   0   9  -5 26361.6 1655.13   6
   0   9  -4 11533.3 1141.75   6
   0  -9   4 12881.2 1414.69   8
   0  -9   3 6444.65 980.460   8
   0   9  -3 5522.59 828.854   6
   0   9  -2 1596.29 419.984   6
   0  -9   2 1181.19 405.362   8
   0  -9   1 2954.27 612.833   8
   0   9  -1 2598.64 594.105   6
   0   9   0 15777.9 1575.02   6
   0  -9   0 15442.4 1369.35   8
   0  -9  -1 6663.80 880.701   8
   0   9   1 6583.53 1054.22   6
   0   9   2 309.439 247.771   6
   0  -9  -2-101.562 159.163   8
   0   9   3 398.575 425.389   6
   0  -9  -3 194.775 154.057   8
   0  -9  -4 143.050 88.9382   8
   0   9   4 493.379 335.194   6
   0   9   4 55.4800 96.0429   8
   0  -9  -5 1054.11 288.642   8
   0   9   5 1916.27 676.861   6
   0   9   6 1856.70 694.551   6
   0   9   7 2949.11 896.577   6
   0   9   8 78.6055 179.847   6
   0   9   8 302.921 230.998   1
   0   9   9 2620.89 859.343   6
   0   9  10 6022.81 1364.53   6
   0   9  11-333.728 225.140   6
   0   9  12 1432.55 762.173   6
   0   9  13 9.36585 236.775   6
   0   9  14-236.616 334.999   6
   0   9  15-239.008 356.437   6
   0   9  16-290.540 387.561   6
   0  10 -22 1390.34 814.657   7
   0  10 -22-193.231 305.966   2
   0  10 -21 193.099 305.793   2
   0  10 -21 43.3558 105.893   7
   0  10 -20-789.125 549.657   2
   0  10 -20 547.197 515.949   7
   0  10 -19 217.786 415.081   7
   0  10 -19 52.6078 151.228   1
   0  10 -18 1151.58 710.539   7
   0  10 -18 870.687 512.359   1
   0  10 -17 25.4090 130.740   1
   0  10 -17-402.469 124.854   7
   0  10 -16 1215.97 582.027   1
   0  10 -16 613.703 528.453   7
   0  10 -15 2235.01 771.372   1
   0  10 -15 5730.52 1276.70   7
   0  10 -14 2589.04 786.652   1
   0  10 -14 1839.95 659.206   7
   0  10 -13 386.135 339.308   1
   0  10 -12 1222.68 562.134   1
   0 -10  12 1947.05 692.325   8
   0  10 -11 25.2039 99.9239   6
   0  10 -11-292.287 391.794   1
   0 -10  11-125.703 175.176   8
   0  10 -10 711.252 226.460   6
   0 -10  10 616.243 420.840   8
   0  10  -9 1409.99 334.109   6
   0 -10   9 1152.60 427.151   4
   0 -10   9 819.264 337.896   8
   0 -10   8-9.28007 333.178   8
   0  10  -8 126.595 109.815   6
   0  10  -7 597.443 261.862   6
   0 -10   7 957.691 483.088   8
   0  10  -6 1854.56 455.679   6
   0 -10   6 2508.05 730.611   8
   0 -10   5 26389.7 2157.00   8
   0  10  -5 25664.3 1782.55   6
   0  10  -4 7964.06 1034.98   6
   0 -10   4 9216.11 1247.70   8
   0 -10   3-35.3411 234.158   8
   0  10  -3 160.364 224.474   6
   0 -10   2 486.371 280.129   8
   0  10  -2 238.272 178.261   6
   0  10  -1 1662.10 531.246   6
   0 -10   1 1549.01 466.883   8
   0  10   0 1019.94 557.090   6
   0 -10   0 598.398 292.248   8
   0 -10  -1 32.2648 81.7219   8
   0  10   1 548.262 366.005   6
   0 -10  -2 2896.05 601.018   8
   0  10   2 3942.33 879.291   6
   0  10   3 3120.99 834.517   6
   0 -10  -3 2451.64 540.639   8
   0 -10  -4 8216.18 924.163   8
   0  10   4 9414.72 1481.05   6
   0  10   5 518.624 358.502   6
   0  10   6 9908.42 1624.24   6
   0  10   7 1917.44 630.362   6
   0  10   7 723.496 303.182   1
   0  10   8 2896.15 940.981   6
   0  10   9 2115.50 832.553   6
   0  10  10 2081.74 865.808   6
   0  10  11 450.765 359.840   6
   0  10  12 41.4818 302.843   6
   0  10  13 1054.27 640.278   6
   0  10  14-536.368 504.337   6
   0  10  15-964.131 683.712   6
   0  11 -22-711.171 594.656   7
   0  11 -22 206.718 318.312   2
   0  11 -21 467.768 449.800   2
   0  11 -21-67.7836 232.292   7
   0  11 -20 60.9591 185.869   7
   0  11 -20 93.3670 170.174   2
   0  11 -19 424.638 429.834   7
   0  11 -19 381.451 299.385   1
   0  11 -18-376.047 386.953   7
   0  11 -18-428.251 367.490   1
   0  11 -17 514.433 421.281   1
   0  11 -17 2179.77 851.521   7
   0  11 -16 866.193 539.313   1
   0  11 -15 1487.70 690.237   1
   0  11 -14 2182.31 772.396   1
   0 -11  13 8202.51 1468.68   8
   0  11 -13 7143.31 1321.90   1
   0  11 -12 699.029 486.092   1
   0 -11  12 568.886 333.451   8
   0 -11  11 1080.67 460.565   8
   0  11 -11 1573.46 655.557   1
   0  11 -11 1088.23 292.456   6
   0 -11  10 481.360 377.529   8
   0  11 -10 62.7585 164.350   6
   0  11  -9 1947.48 448.848   6
   0 -11   9 1805.79 664.048   8
   0  11  -8 203.250 173.066   6
   0 -11   8-16.6032 244.913   8
   0 -11   7-333.591 243.909   8
   0  11  -7 344.144 218.709   6
   0  11  -6 15651.5 1433.78   6
   0 -11   6 12927.4 1620.07   8
   0  11  -5 419.269 231.663   6
   0 -11   5 1016.96 416.650   8
   0  11  -4 196.092 146.625   6
   0 -11   4 67.3267 122.239   8
   0 -11   3 2732.21 716.767   8
   0  11  -3 3445.86 768.146   6
   0  11  -2 118.192 280.310   6
   0 -11   2 651.149 357.281   8
   0  11  -1 2184.68 629.344   6
   0 -11   1 1587.80 539.511   8
   0 -11   0 5781.07 937.546   8
   0  11   0 5974.55 1121.93   6
   0  11   1 3438.92 860.593   6
   0 -11  -1 2793.49 649.615   8
   0  11   2 1246.45 549.722   6
   0 -11  -2 999.724 371.280   8
   0  11   3 2987.47 830.715   6
   0 -11  -3 3506.80 670.467   8
   0  11   4-160.457 239.183   6
   0 -11  -4 86.4810 158.950   8
   0  11   5 4897.54 1138.84   6
   0  11   6 384.338 398.931   6
   0  11   7 166.746 403.226   6
   0  11   8 1410.69 636.965   6
   0  11   9 1023.00 625.209   6
   0  11  10 114.604 159.760   6
   0  11  11 1270.45 698.547   6
   0  11  12 552.775 485.963   6
   0  11  13-311.444 418.165   6
   0  12 -22-105.102 244.216   7
   0  12 -22 129.827 418.876   2
   0  12 -21 765.256 616.208   2
   0  12 -20 786.123 536.617   1
   0  12 -19-584.780 445.573   1
   0  12 -18 1245.47 686.493   1
   0  12 -17-771.383 494.518   1
   0  12 -16 279.272 316.412   1
   0  12 -15-66.1722 425.140   1
   0  12 -14 147.552 403.789   1
   0  12 -13 7669.74 1458.90   1
   0  12 -12 7939.14 1460.73   1
   0 -12  12 7493.79 1451.29   8
   0  12 -11 2098.49 792.363   1
   0  12 -11 2012.49 444.499   6
   0 -12  11 2358.50 793.184   8
   0 -12  10 5691.22 1221.69   8
   0  12 -10 3947.26 658.435   6
   0  12  -9 13553.5 1273.05   6
   0 -12   9 12853.8 1798.94   8
   0 -12   8 2503.18 808.118   8
   0  12  -8 2775.82 596.091   6
   0 -12   7 6003.14 1192.57   8
   0  12  -7 3058.13 656.921   6
   0 -12   6 359.222 335.167   8
   0  12  -6 601.969 301.037   6
   0  12  -5 3139.45 709.779   6
   0 -12   5 2965.26 779.769   8
   0 -12   4-207.314 260.631   8
   0  12  -4-243.719 362.318   6
   0  12  -3 1405.23 547.724   6
   0 -12   3 1651.65 615.842   8
   0 -12   2 715.483 348.034   8
   0  12  -2 1027.02 505.600   6
   0 -12   1 156.151 235.175   8
   0  12  -1 280.068 326.249   6
   0  12   0 2688.97 853.879   6
   0 -12   0 2328.37 651.441   8
   0  12   1 774.574 454.543   6
   0 -12  -1 372.284 303.361   8
   0  12   2-96.0375 256.496   6
   0 -12  -2 80.8406 116.543   8
   0 -12  -3 264.839 241.802   8
   0  12   3 31.4990 449.829   6
   0  12   4 1678.22 785.789   6
   0  12   5 579.419 499.308   6
   0  12   6 1595.34 748.154   6
   0  12   6 1399.13 517.341   1
   0  12   7 864.077 506.315   6
   0  12   8 135.877 162.381   6
   0  12   9 941.490 796.973   6
   0  12  10-310.122 384.675   6
   0  12  11 2052.71 1014.10   6
   0  12  12 165.331 306.455   6
   0  13 -21-668.589 563.886   2
   0  13 -20-223.135 301.476   1
   0  13 -19 856.229 546.455   1
   0  13 -18-572.736 450.424   1
   0  13 -17 137.502 150.970   1
   0  13 -16 314.774 175.225   1
   0  13 -15 616.718 464.870   1
   0  13 -14 4471.98 1186.45   1
   0  13 -13 2481.32 870.374   1
   0 -13  12 2287.92 833.708   8
   0  13 -12 2934.27 971.920   1
   0  13 -11 13192.0 1938.86   1
   0 -13  11 11681.9 1834.31   8
   0 -13  10 3530.28 993.463   8
   0  13 -10 2001.61 532.622   6
   0 -13   9 83.8332 264.873   8
   0  13  -9 195.091 144.546   6
   0  13  -8-36.8130 181.993   6
   0 -13   8-398.098 389.697   8
   0  13  -7 1373.58 439.859   6
   0 -13   7 1719.54 620.927   8
   0  13  -6 1226.18 415.596   6
   0 -13   6 1293.62 577.055   8
   0  13  -5 488.105 296.989   6
   0 -13   5 99.6632 351.230   8
   0 -13   4 234.044 250.765   8
   0  13  -4-12.8519 149.207   6
   0  13  -3 1261.13 548.560   6
   0 -13   3 1040.27 563.954   8
   0  13  -2 1691.03 561.834   6
   0 -13   2 995.294 481.921   8
   0  13  -1 1007.12 595.109   6
   0 -13   1 1691.58 585.735   8
   0  13   0 1121.01 623.487   6
   0 -13   0 1185.16 479.678   8
   0 -13  -1 2282.05 648.539   8
   0  13   1 2356.45 819.795   6
   0 -13  -2 4321.48 853.202   8
   0  13   2 4326.90 1092.38   6
   0  13   3 30.0204 303.660   6
   0  13   4 2777.82 894.555   6
   0  13   5 616.492 438.629   6
   0  13   5 564.536 372.150   1
   0  13   6 137.259 384.003   6
   0  13   7-296.600 358.122   6
   0  13   8 620.933 452.317   6
   0  13   9 490.224 391.379   6
   0  13  10 506.968 491.498   6
   0  14 -20-946.714 613.430   1
   0  14 -19 454.317 439.385   1
   0  14 -18-626.696 489.827   1
   0  14 -17-141.408 264.582   1
   0  14 -16 2286.50 933.422   1
   0  14 -15 408.768 338.546   1
   0  14 -14 68.3154 199.344   1
   0  14 -13 359.772 327.292   1
   0  14 -12 902.621 648.927   1
   0 -14  12 37.2427 404.145   8
   0  14 -11-323.709 311.353   1
   0 -14  11 761.083 817.811   8
   0 -14  10 1454.38 652.481   8
   0  14 -10 1372.76 630.151   1
   0  14 -10 1244.75 426.603   6
   0  14  -9 185.683 246.933   6
   0 -14   9 472.834 357.061   8
   0 -14   8 114.193 229.133   8
   0  14  -8 883.588 337.489   6
   0 -14   7 1456.68 619.603   8
   0  14  -7 2348.07 646.252   6
   0  14  -6 2366.94 705.956   6
   0 -14   6 921.272 485.954   8
   0  14  -5 3221.41 803.991   6
   0 -14   5 2350.73 752.859   8
   0 -14   4 714.820 329.973   8
   0  14  -4 537.255 376.299   6
   0 -14   3 5857.55 1149.56   8
   0  14  -3 4977.00 1097.30   6
   0 -14   2 401.969 380.505   8
   0  14  -2 657.893 503.291   6
   0 -14   1 710.834 378.164   8
   0  14  -1 476.915 355.750   6
   0  14   0 1953.91 757.252   6
   0 -14   0 1566.08 575.846   8
   0  14   1 6727.84 1379.37   6
   0 -14  -1 6365.27 1105.70   8
   0  14   2-193.713 475.855   6
   0  14   3 8576.38 1647.52   6
   0  14   3 6024.26 1214.56   1
   0  14   4-87.5517 242.109   1
   0  14   4 704.502 465.842   6
   0  14   5 87.0612 240.743   6
   0  14   6 379.608 496.633   6
   0  14   7 1130.90 573.693   6
   0  14   8 270.679 166.706   6
   0  14   9 3762.93 1277.48   6
   0  15 -20-1.15380 333.779   1
   0  15 -19 454.609 521.553   1
   0  15 -18-714.372 543.352   1
   0  15 -17 332.547 393.359   1
   0  15 -16 655.418 516.166   1
   0  15 -15 198.188 310.758   1
   0  15 -14 72.7351 271.583   1
   0  15 -13 1184.22 653.904   1
   0  15 -12 256.652 433.964   1
   0 -15  11 283.817 407.837   8
   0  15 -11 1339.42 720.585   1
   0 -15  10 22.5199 204.579   8
   0  15 -10 248.167 377.357   1
   0 -15   9 305.803 385.085   8
   0  15  -9 511.229 360.607   6
   0  15  -9 100.180 188.897   1
   0 -15   8 819.565 664.120   8
   0  15  -8-178.758 253.334   6
   0  15  -7 878.529 411.269   6
   0 -15   7 2322.58 828.155   8
   0  15  -6-19.2721 116.621   6
   0 -15   6 48.5008 258.383   8
   0 -15   5 505.673 294.851   8
   0  15  -5-50.8341 165.050   6
   0  15  -4 412.695 410.605   6
   0 -15   4-179.175 211.277   8
   0 -15   3 3793.44 943.553   8
   0  15  -3 4163.47 1073.45   6
   0  15  -2-485.041 424.168   6
   0 -15   2-274.362 416.174   8
   0 -15   1 427.901 304.509   8
   0  15  -1 437.619 401.123   6
   0  15   0 7371.13 1466.66   6
   0  15   1 435.158 308.713   6
   0  15   2 272.990 255.894   1
   0  15   2 1219.83 721.183   6
   0  15   3 476.343 524.771   6
   0  15   3 304.757 388.826   1
   0  15   4 1191.47 531.325   1
   0  15   4 259.998 411.910   6
   0  15   5 303.669 275.530   6
   0  15   6-400.732 464.728   6
   0  15   7-633.945 546.720   6
   0  16 -19 2.40691 185.379   1
   0  16 -18 340.500 517.319   1
   0  16 -17-214.921 333.624   1
   0  16 -16 562.172 509.701   1
   0  16 -15 621.214 574.219   1
   0  16 -14 1048.28 771.554   1
   0  16 -13-547.296 471.534   1
   0  16 -12 1795.83 845.333   1
   0  16 -11 110.432 230.265   1
   0  16 -10 879.088 610.651   1
   0  16  -9 145.051 193.197   1
   0 -16   9-291.113 336.319   8
   0  16  -9 591.449 345.735   6
   0  16  -8 1596.54 731.959   1
   0  16  -8 403.759 265.898   6
   0 -16   8 1037.68 596.249   8
   0  16  -7 189.979 134.071   6
   0 -16   7-43.8579 240.941   8
   0  16  -7 101.364 230.437   1
   0 -16   6 1501.57 668.692   8
   0  16  -6 1553.44 611.141   6
   0  16  -5 42.4783 147.541   6
   0 -16   5-206.434 161.456   8
   0 -16   4 2252.44 786.297   8
   0  16  -4 2684.67 878.086   6
   0 -16   3 393.135 367.842   8
   0  16  -3-175.481 361.128   6
   0  16  -2 777.053 505.434   6
   0  16  -1 434.971 391.699   1
   0  16  -1 495.852 444.319   6
   0  16   0 1394.16 667.538   1
   0  16   0 749.679 469.448   6
   0  16   1-117.134 319.361   6
   0  16   1 1487.52 680.733   1
   0  16   2 1487.45 730.640   6
   0  16   2 1563.93 695.545   1
   0  16   3-284.422 296.356   1
   0  16   3 1044.87 707.378   6
   0  16   4-61.3791 344.895   6
   0  16   5 209.409 449.224   6
   0  17 -16 1121.39 755.455   1
   0  17 -15 399.818 508.201   1
   0  17 -14 759.896 571.328   1
   0  17 -13 196.666 183.150   1
   0  17 -12 731.342 516.405   1
   0  17 -11-38.6788 399.931   1
   0  17 -10 430.556 478.717   1
   0  17  -9 656.543 569.148   1
   0  17  -8 495.825 474.681   1
   0  17  -8 1167.53 544.154   6
   0  17  -7 874.279 473.238   6
   0  17  -7 630.845 462.136   1
   0  17  -6-586.016 473.102   1
   0  17  -6-241.388 275.474   6
   0  17  -5 199.777 303.318   6
   0  17  -5 599.897 447.778   1
   0  17  -4 1236.83 627.237   1
   0  17  -4 1732.99 726.626   6
   0  17  -3 3086.25 984.929   6
   0  17  -3 3086.17 1059.21   1
   0  17  -2 602.336 424.428   6
   0  17  -2 421.313 392.765   1
   0  17  -1 1319.86 695.191   1
   0  17  -1 1284.12 697.854   6
   0  17   0 873.503 543.656   1
   0  17   0 1012.06 687.212   6
   0  17   1 1.06391 262.996   6
   0  17   1 57.3176 150.795   1
   0  17   2-187.772 267.561   1
   0  17   2-585.648 502.157   6
   0  17   3 632.446 547.069   6
   0  18 -13 612.886 559.005   1
   0  18 -12-620.892 529.001   1
   0  18 -11-174.006 305.295   1
   0  18 -10 620.470 461.220   1
   0  18  -9 409.428 350.564   1
   0  18  -8 925.270 659.489   1
   0  18  -7-568.925 415.998   6
   0  18  -7 145.954 328.611   1
   0  18  -6 355.314 404.554   6
   0  18  -6 138.682 285.118   1
   0  18  -5 306.791 204.375   1
   0  18  -5 750.191 394.677   6
   0  18  -4 1.04857 257.229   1
   0  18  -4 499.613 425.863   6
   0  18  -3-134.666 250.638   1
   0  18  -3 330.052 381.654   6
   0  18  -2 29.6752 221.973   1
   0  18  -2 440.651 445.539   6
   0  18  -1-33.3975 156.266   1
   0  18  -1 95.5552 187.967   6
   0  18   0 550.049 483.132   1
   0  18   0 241.184 262.897   6
   0  18   1 223.452 228.684   1
   0  18   1 472.531 540.329   6
   0  19  -9 1204.65 722.989   1
   0  19  -8 567.376 575.912   1
   0  19  -7 967.150 726.747   1
   0  19  -6 568.643 556.759   1
   0  19  -6 71.1581 187.260   6
   0  19  -5-398.870 398.335   6
   0  19  -5 899.929 694.964   1
   0  19  -4 641.056 567.347   6
   0  19  -4 455.727 527.153   1
   0  19  -3 526.871 529.399   6
   0  19  -3-570.431 489.539   1
   0  19  -2 767.568 602.107   1
   0  19  -2 432.332 419.221   6
   0  19  -1 415.057 501.119   6
   0  19  -1 165.583 274.637   1
   0  19   0 8.66420 154.103   1
   0  20  -6 515.890 463.581   6
   0  20  -5 105.290 181.693   6
   0  20  -4 200.029 191.825   6
   0  20  -3-261.514 355.708   6
  -1  20  -2 580.821 576.524   1
  -1  20  -3 746.015 641.134   6
  -1  20  -4-221.076 333.721   6
  -1  20  -5 1613.46 832.272   6
  -1  19   0 420.628 496.070   1
  -1  19  -1 187.095 169.139   6
  -1  19  -1 1467.95 769.710   1
  -1  19  -2 1183.68 698.327   1
  -1  19  -2 1447.00 803.469   6
  -1  19  -3-648.610 524.186   1
  -1  19  -3-136.885 268.961   6
  -1  19  -4 725.297 597.107   1
  -1  19  -4 260.701 399.984   6
  -1  19  -5 46.5934 183.041   6
  -1  19  -5 309.794 507.170   1
  -1  19  -6 380.397 443.691   1
  -1  19  -6 249.241 422.547   6
  -1  19  -7-55.5842 191.687   1
  -1  19  -8 1284.28 768.635   1
  -1  19  -9 1041.28 692.093   1
  -1  18   2 309.971 586.127   6
  -1  18   1 776.336 512.928   6
  -1  18   1-327.592 353.081   1
  -1  18   0 155.259 252.473   1
  -1  18   0 900.033 554.365   6
  -1  18  -1 592.214 575.975   6
  -1  18  -1 467.855 389.664   1
  -1  18  -2 1422.71 739.278   1
  -1  18  -2 642.503 446.529   6
  -1  18  -3 3515.71 1147.24   6
  -1  18  -3 1826.63 844.279   1
  -1  18  -4 232.099 398.176   6
  -1  18  -4-191.293 290.080   1
  -1  18  -5 1127.99 635.662   1
  -1  18  -5 1586.83 718.004   6
  -1  18  -6-1.07974 143.329   1
  -1  18  -6-207.090 281.326   6
  -1  18  -7 1343.53 655.113   6
  -1  18  -7 1056.68 601.110   1
  -1  18  -8 155.547 158.313   1
  -1  18  -9 151.149 286.092   1
  -1  18 -10 1117.22 728.365   1
  -1  18 -11 526.501 589.797   1
  -1  18 -12 44.1247 229.997   1
  -1  18 -13 1312.02 930.684   1
  -1  17   4 142.253 309.230   6
  -1  17   3 4226.15 1388.95   6
  -1  17   2 1312.40 746.191   6
  -1  17   2 1475.83 703.164   1
  -1  17   1-9.82883 466.359   6
  -1  17   1 866.177 532.485   1
  -1  17   0 641.763 497.270   1
  -1  17   0 84.1580 333.283   6
  -1  17  -1 61.4796 129.825   1
  -1  17  -1 1026.98 643.441   6
  -1  17  -2 1014.44 633.313   1
  -1  17  -2-195.875 297.311   6
  -1  17  -3 53.6196 328.129   1
  -1  17  -3 63.7981 176.110   6
  -1  17  -4 4514.69 1213.00   6
  -1  17  -4 3198.65 1087.78   1
  -1  17  -5 117.938 245.194   1
  -1  17  -5-39.8989 344.578   6
  -1  17  -6-226.311 276.490   6
  -1  17  -6-188.420 456.281   1
  -1  17  -7 1002.52 524.174   6
  -1  17  -7 974.671 607.892   1
  -1  17  -8 553.530 473.898   1
  -1  17  -9 1750.12 838.868   1
  -1  17 -10-10.6464 418.872   1
  -1  17 -11-365.096 399.526   1
  -1  17 -12 41.0815 282.268   1
  -1  17 -13 439.406 552.783   1
  -1  17 -14-151.129 271.963   1
  -1  17 -15 91.6941 265.761   1
  -1  17 -16-385.437 431.761   1
  -1  16   5 91.1981 358.054   6
  -1  16   4-513.173 479.368   6
  -1  16   3 808.651 506.565   1
  -1  16   3 2587.79 938.611   6
  -1  16   2 342.639 292.736   1
  -1  16   2-868.375 587.021   6
  -1  16   1-190.018 252.060   1
  -1  16   1 237.822 374.325   6
  -1  16   0 788.165 467.875   6
  -1  16   0 73.5459 111.490   1
  -1  16  -1-120.800 333.056   1
  -1  16  -1-44.7923 318.584   6
  -1  16  -2 724.782 455.427   1
  -1  16  -2 1071.88 479.792   6
  -1  16  -3 2290.34 828.066   6
  -1  16  -3 2681.90 890.681   1
  -1  16  -4 2276.65 847.194   1
  -1  16  -4 3370.55 955.420   6
  -1  16  -5-584.316 448.622   1
  -1  16  -5-81.3634 279.985   6
  -1  16  -6 1331.97 541.306   6
  -1  16  -6 2043.50 832.486   1
  -1  16  -7-565.758 376.287   6
  -1  16  -7-978.511 588.586   1
  -1  16  -8 1090.97 448.451   6
  -1  16  -8 1907.45 806.619   1
  -1  16  -9 939.479 637.030   1
  -1  16 -10 474.195 236.853   1
  -1  16 -11-417.348 629.973   1
  -1  16 -12-437.992 413.987   1
  -1  16 -13-303.068 372.093   1
  -1  16 -14 1292.97 680.662   1
  -1  16 -15 766.232 530.942   1
  -1  16 -16-1119.31 691.535   1
  -1  16 -17 822.570 683.221   1
  -1  16 -18 56.8555 406.320   1
  -1  16 -19 55.6913 214.996   1
  -1  15   7 386.229 467.825   6
  -1  15   6 1729.80 860.798   6
  -1  15   5 202.994 285.415   6
  -1  15   4 929.126 494.154   1
  -1  15   4 1501.02 722.352   6
  -1  15   3 2043.11 858.836   6
  -1  15   3 1577.35 628.865   1
  -1  15   2 1170.02 567.199   1
  -1  15   2 1524.31 712.716   6
  -1  15   1 3351.25 968.313   1
  -1  15   1 5555.19 1312.60   6
  -1  15   0 2228.25 785.583   1
  -1  15   0 1893.75 750.008   6
  -1  15  -1 556.053 462.362   6
  -1  15  -1 21.9885 252.301   1
  -1  15  -2 2004.80 761.387   6
  -1  15  -2 2754.24 881.889   1
  -1  15  -3 1066.71 504.420   1
  -1  15  -3 1968.42 683.063   6
  -1  15  -4 820.535 408.288   6
  -1  15  -4 1790.09 809.022   1
  -1  15  -5-218.626 339.324   1
  -1  15  -5-132.734 144.284   6
  -1  15  -6-390.185 309.980   6
  -1  15  -6-316.768 429.168   1
  -1  15  -7 424.001 429.411   1
  -1  15  -7 523.279 216.497   6
  -1  15  -8 1850.77 604.363   6
  -1  15  -8 1384.66 723.994   1
  -1  15  -9 1812.58 799.586   1
  -1  15  -9 1128.26 438.651   6
  -1  15 -10-377.783 417.162   1
  -1  15 -11-150.042 429.916   1
  -1  15 -12 1330.70 605.387   1
  -1  15 -13 373.392 403.726   1
  -1  15 -14 1496.37 760.229   1
  -1  15 -15 422.831 398.458   1
  -1  15 -16 28.6516 181.414   1
  -1  15 -17 1875.10 927.175   1
  -1  15 -18 341.095 350.257   1
  -1  15 -19 2048.30 954.350   1
  -1  15 -20-300.461 376.469   1
  -1  14   9 1263.59 702.634   6
  -1  14   8 1551.36 863.086   6
  -1  14   7 1244.55 686.424   6
  -1  14   6 322.060 461.922   6
  -1  14   5 869.218 567.925   6
  -1  14   4-409.457 502.824   6
  -1  14   4 147.572 305.419   1
  -1  14   3 530.187 348.361   1
  -1  14   3 179.370 184.364   6
  -1  14   2-161.364 153.807   1
  -1  14   2 679.479 400.127   6
  -1  14   1 4194.67 1025.10   1
  -1  14   1 2453.93 829.709   6
  -1  14   0 4398.90 1099.17   6
  -1  14   0 2248.12 733.246   1
  -1  14  -1 1396.09 662.874   6
  -1  14  -1 1689.61 657.329   1
  -1  14  -2 2331.69 785.700   6
  -1  14  -2 2513.53 831.828   1
  -1  14  -3 394.597 153.670   1
  -1  14  -3 392.046 331.530   6
  -1  14  -4 757.767 325.352   6
  -1  14  -4 1156.49 416.655   1
  -1  14  -5 6675.46 1213.53   6
  -1  14  -5 6863.53 1371.51   1
  -1  14  -6 689.150 362.684   6
  -1  14  -6 767.472 467.414   1
  -1  14  -7 2182.43 626.196   6
  -1  14  -7 2473.36 774.470   1
  -1  14  -8 980.121 590.225   1
  -1  14  -8 381.248 234.121   6
  -1  14  -9 66.9667 98.9385   6
  -1  14  -9 129.343 300.768   1
  -1  14 -10 1178.48 712.688   1
  -1  14 -11 339.109 312.740   1
  -1  14 -12 344.521 293.730   1
  -1  14 -13 1608.70 712.270   1
  -1  14 -14 697.789 468.048   1
  -1  14 -15 325.691 233.982   1
  -1  14 -16 985.358 616.451   1
  -1  14 -17 1744.94 835.602   1
  -1  14 -18 191.204 362.281   1
  -1  14 -19 206.102 308.432   1
  -1  14 -19 1345.34 807.356   2
  -1  14 -20 1.10773 231.905   1
  -1  13  10 1634.24 882.388   6
  -1  13   9 1655.16 757.887   6
  -1  13   8 1250.19 627.480   6
  -1  13   7-543.527 563.203   6
  -1  13   6 48.3044 277.378   6
  -1  13   5-93.2698 214.071   6
  -1  13   5 166.739 208.911   1
  -1  13   4-207.750 297.196   6
  -1  13   4-29.7457 161.743   1
  -1  13   3-55.3645 265.954   1
  -1  13   3 606.808 333.492   6
  -1  13   2 176.788 191.725   1
  -1  13   2-498.083 562.320   6
  -1  13   1-96.2484 370.972   6
  -1  13   1 233.983 246.629   1
  -1  13   0 2695.81 904.878   6
  -1  13   0 2755.22 779.442   1
  -1  13  -1-16.2617 338.464   1
  -1  13  -1 481.870 360.590   6
  -1  13  -2 362.490 237.207   1
  -1  13  -2-17.7415 269.220   6
  -1  13  -3 11840.4 1573.23   6
  -1  13  -3 11661.0 1670.60   1
  -1  13  -4 1956.79 624.864   6
  -1  13  -4 1603.79 694.412   1
  -1  13  -5 292.906 297.756   6
  -1  13  -5 761.634 289.139   1
  -1  13  -6 292.038 148.801   1
  -1  13  -6 776.896 338.550   6
  -1  13  -7 3114.47 705.512   6
  -1  13  -7 4488.20 1112.71   1
  -1  13  -8 2362.71 829.078   1
  -1  13  -8 3373.44 724.062   6
  -1  13  -9-230.771 256.710   6
  -1  13  -9 57.6286 208.687   1
  -1  13 -10 319.408 191.971   6
  -1  13 -10-106.292 290.196   1
  -1  13 -11 793.581 532.222   1
  -1  13 -12 10028.1 1728.26   1
  -1  13 -13 356.436 609.617   1
  -1  13 -14 6424.53 1426.22   1
  -1  13 -15-129.206 371.544   1
  -1  13 -16 2582.24 990.827   1
  -1  13 -17 70.4488 171.553   1
  -1  13 -18 152.225 243.956   1
  -1  13 -19 61.6641 405.756   1
  -1  13 -19 542.771 499.304   2
  -1  13 -20 493.869 405.961   2
  -1  13 -21 469.632 626.248   2
  -1  12  12 507.926 453.680   6
  -1  12  11 1208.53 679.242   6
  -1  12  10 453.061 157.909   6
  -1  12   9 3399.28 1167.64   6
  -1  12   8-345.742 460.988   6
  -1  12   7-299.677 459.422   6
  -1  12   6-46.7576 96.7447   1
  -1  12   6 71.9750 310.766   6
  -1  12   5 856.948 575.582   6
  -1  12   5 1266.55 509.014   1
  -1  12   4 280.032 264.037   6
  -1  12   4 245.266 196.277   1
  -1  12   3 193.211 313.606   6
  -1  12   3 1103.16 471.934   1
  -1  12   2 537.631 322.793   1
  -1  12   2 392.493 223.622   6
  -1  12   1 1186.27 492.583   1
  -1  12   1 262.974 197.615   6
  -1  12   0-111.015 348.859   6
  -1  12   0-982.941 462.193   1
  -1  12  -1 3092.61 768.421   6
  -1  12  -1 3688.33 934.132   1
  -1  12  -2 2692.22 776.224   1
  -1  12  -2 4367.37 992.241   6
  -1  12  -3 2739.03 723.211   1
  -1  12  -3 2952.42 732.735   6
  -1  12  -4 57.3142 163.001   1
  -1  12  -4 719.303 398.694   6
  -1  12  -5 883.674 412.642   6
  -1  12  -5 124.493 214.598   1
  -1  12  -6 2721.73 657.907   6
  -1  12  -6 1525.99 625.399   1
  -1  12  -7 2015.04 697.711   1
  -1  12  -7 1261.54 424.983   6
  -1  12  -8 576.011 309.697   6
  -1  12  -8 1217.05 565.141   1
  -1  12  -9 2081.91 737.492   1
  -1  12  -9 1411.35 395.510   6
  -1  12 -10 1395.51 382.415   6
  -1  12 -10 1231.15 530.731   1
  -1  12 -11 18863.3 2236.47   1
  -1  12 -12 398.224 309.120   1
  -1  12 -13 8009.74 1501.98   1
  -1  12 -14 2838.96 856.108   1
  -1  12 -15 1273.40 693.233   1
  -1  12 -16 325.757 385.997   1
  -1  12 -17-268.784 316.462   1
  -1  12 -18-230.883 297.846   1
  -1  12 -18-115.217 369.644   2
  -1  12 -19-562.714 492.301   2
  -1  12 -19-411.536 386.436   1
  -1  12 -20 697.893 431.107   2
  -1  12 -21 77.3491 365.815   2
  -1  12 -22 415.033 454.683   2
  -1  11  13 1074.87 752.663   6
  -1  11  12 1174.00 656.790   6
  -1  11  11 58.1883 247.465   6
  -1  11  10 3332.23 1154.91   6
  -1  11   9 523.057 282.842   6
  -1  11   8 1941.61 804.855   6
  -1  11   7 877.149 583.357   6
  -1  11   6 392.891 268.745   1
  -1  11   6 952.492 629.371   6
  -1  11   5 177.149 144.245   1
  -1  11   5 186.540 287.414   6
  -1  11   4 719.625 406.106   1
  -1  11   4 994.510 468.863   6
  -1  11   3 4707.66 921.277   1
  -1  11   3 3028.13 905.568   6
  -1  11   2 13642.3 1811.31   6
  -1  11   2 12570.3 1518.74   1
  -1  11   1 5080.28 1109.10   6
  -1  11   1 5987.66 1111.00   1
  -1  11   0 397.738 370.155   1
  -1  11   0-151.281 331.580   6
  -1  11  -1 8043.90 1268.19   1
  -1  11  -1 5492.00 1005.43   6
  -1  11  -2 341.750 316.881   6
   1 -11   3 860.258 428.251   8
  -1  11  -3 853.190 391.408   6
  -1  11  -4 707.532 453.028   1
   1 -11   4 648.713 395.268   8
  -1  11  -4 98.6874 130.863   6
   1 -11   5 24693.3 2188.65   8
  -1  11  -5 23071.8 1801.15   6
  -1  11  -5 26963.5 2392.15   1
   1 -11   6 3180.11 832.675   8
  -1  11  -6 3418.40 658.983   6
  -1  11  -6 4444.16 1024.66   1
  -1  11  -7 1144.21 549.442   1
  -1  11  -7 2210.46 525.826   6
  -1  11  -8 2592.24 770.257   1
  -1  11  -8 1489.83 414.075   6
  -1  11  -9 2693.67 510.770   6
  -1  11  -9 3664.48 952.972   1
  -1  11 -10 1494.74 591.243   1
  -1  11 -10 2314.57 439.225   6
  -1  11 -11 3463.09 945.150   1
  -1  11 -12 2274.03 749.345   1
  -1  11 -13 406.606 370.833   1
  -1  11 -14 4422.47 1113.24   1
  -1  11 -15 2084.52 775.443   1
  -1  11 -16-308.852 318.940   1
  -1  11 -17 771.692 531.228   1
  -1  11 -18 372.469 205.542   1
  -1  11 -18 592.716 367.894   2
  -1  11 -19 1482.39 855.734   2
  -1  11 -19 595.025 572.118   7
  -1  11 -20-302.154 374.348   2
  -1  11 -20 323.612 330.161   7
  -1  11 -21 80.4789 244.948   2
  -1  11 -21 816.466 634.516   7
  -1  11 -22 1126.42 861.305   2
  -1  10  15-1389.55 818.428   6
  -1  10  14-412.533 449.272   6
  -1  10  13 408.790 407.611   6
  -1  10  12 886.304 541.597   6
  -1  10  11-158.034 283.620   6
  -1  10  10 1704.19 767.843   6
  -1  10   9 3006.15 960.604   6
  -1  10   8 1170.43 697.415   6
  -1  10   7 6816.36 964.961   1
  -1  10   7 7590.24 1478.77   6
  -1  10   6 389.861 510.594   6
  -1  10   6 646.884 291.300   1
  -1  10   5 11534.4 1318.99   1
  -1  10   5 16293.6 2047.92   6
  -1  10   4 4238.18 818.365   1
  -1  10   4 5239.89 1135.18   6
  -1  10   3 11700.5 1365.34   1
  -1  10   3 15646.1 1865.59   6
  -1  10   2 2037.07 653.392   6
  -1  10   2 1936.36 559.492   1
  -1  10   1 8990.44 1309.39   6
  -1  10   1 9485.80 1278.58   1
  -1  10   0 6741.38 1094.40   6
  -1  10  -1 3663.27 786.456   6
   1 -10   1 3157.00 674.006   8
  -1  10  -2 2266.81 621.947   6
   1 -10   2 2188.38 557.188   8
   1 -10   3 8.75126 176.081   8
  -1  10  -3 632.116 315.692   6
   1 -10   4 142.868 239.619   8
  -1  10  -4 325.057 221.228   6
   1 -10   5 14923.1 1633.20   8
  -1  10  -5 15722.0 1736.86   1
  -1  10  -5 14789.6 1340.59   6
   1 -10   6 754.967 357.587   8
  -1  10  -6 1053.95 559.943   1
  -1  10  -6 275.391 141.821   6
  -1  10  -7 342.926 145.929   6
   1 -10   7 1435.57 517.256   8
  -1  10  -7 1201.83 544.791   1
  -1  10  -8 431.383 484.427   1
  -1  10  -8 604.222 247.238   6
   1 -10   9 7211.04 789.107   4
  -1  10  -9 6066.00 682.922   6
  -1  10  -9 6052.22 1154.15   1
  -1  10 -10 1601.45 313.773   6
  -1  10 -10 1456.49 542.704   1
  -1  10 -11 3568.73 1009.35   1
  -1  10 -11 1157.52 211.935   6
  -1  10 -12 2592.76 768.756   1
  -1  10 -13 1666.49 609.746   1
  -1  10 -14 106.856 134.279   1
  -1  10 -15 232.298 304.109   1
  -1  10 -16 1449.22 615.415   1
  -1  10 -16 1661.45 767.891   7
  -1  10 -17 895.401 507.244   2
  -1  10 -17 1469.18 753.803   7
  -1  10 -17 1458.80 633.748   1
  -1  10 -18-20.0297 287.549   2
  -1  10 -18 1817.14 881.070   7
  -1  10 -19 118.011 318.518   7
  -1  10 -19-116.787 321.799   2
  -1  10 -20-845.919 615.935   7
  -1  10 -20 540.196 424.773   2
  -1  10 -21 643.365 659.643   7
  -1  10 -21-131.604 261.831   2
  -1  10 -22 280.322 223.933   2
  -1   9  16 339.387 545.999   6
  -1   9  15-847.023 623.868   6
  -1   9  14 389.289 406.451   6
  -1   9  13 314.387 156.567   6
  -1   9  12-181.014 404.785   6
  -1   9  11 5568.66 1356.91   6
  -1   9  10 6546.54 1488.10   6
  -1   9   9-46.3577 242.136   6
  -1   9   8 1743.49 842.602   6
  -1   9   7 13567.1 1942.47   6
  -1   9   7 12077.4 1198.12   1
  -1   9   6 635.930 291.086   1
  -1   9   6 485.144 464.949   6
  -1   9   5 5396.39 1118.71   6
  -1   9   5 3214.09 647.715   1
  -1   9   4-102.200 174.111   1
  -1   9   4 273.079 252.561   6
  -1   9   4 169.978 191.348   8
  -1   9   3 12958.6 1348.93   1
  -1   9   3 10601.9 1074.55   8
  -1   9   3 12508.0 1574.49   6
  -1   9   2 440.999 268.179   1
  -1   9   2 493.330 366.842   6
  -1   9   1 1274.38 453.583   6
  -1   9   0 88.7523 135.842   6
  -1   9  -1 519.558 444.694   6
   1  -9   1 730.679 282.312   8
   1  -9   2 5104.41 827.908   8
  -1   9  -2 4498.92 763.055   6
   1  -9   3 507.405 378.907   8
  -1   9  -3 171.261 182.474   6
  -1   9  -4 13357.6 1228.35   6
   1  -9   4 11405.6 1347.06   8
   1  -9   5 13348.3 1465.66   8
  -1   9  -5 14867.3 1633.14   1
  -1   9  -5 12950.6 1155.41   6
   1  -9   6 16817.3 1706.50   8
  -1   9  -6 18931.9 1840.09   1
  -1   9  -6 17332.1 1254.57   6
  -1   9  -7 169.764 146.993   6
  -1   9  -7-101.658 152.158   1
   1  -9   7 73.1502 129.308   8
  -1   9  -8 14856.5 1708.51   1
   1  -9   8 15039.6 1093.84   4
  -1   9  -8 12965.2 961.366   6
  -1   9  -9 9003.43 718.667   6
  -1   9  -9 11790.1 1512.36   1
   1  -9   9 9222.87 783.264   4
  -1   9 -10 295.489 246.692   1
  -1   9 -10 180.803 87.6080   6
   1  -9  11 853.480 227.595   5
  -1   9 -11 1184.17 491.522   1
  -1   9 -12 32.6958 203.224   1
  -1   9 -13-89.6151 260.462   1
  -1   9 -13-186.696 186.481   7
  -1   9 -14-281.454 245.687   7
  -1   9 -14 409.765 294.612   1
  -1   9 -15 249.984 260.904   1
  -1   9 -15-301.532 376.498   7
  -1   9 -16 196.577 294.066   7
  -1   9 -16 349.785 254.567   1
  -1   9 -17 1220.96 664.049   7
  -1   9 -17 1740.54 718.618   2
  -1   9 -18 690.105 487.088   2
  -1   9 -18 239.802 458.782   7
  -1   9 -19 362.432 400.414   7
  -1   9 -19-986.692 591.274   2
  -1   9 -20 2204.51 999.461   7
  -1   9 -20 1771.16 837.059   2
  -1   9 -21 722.224 625.516   7
  -1   9 -21 261.651 301.756   2
  -1   9 -22 148.325 271.090   2
  -1   9 -22 313.220 429.911   9
  -1   8  18-238.836 379.612   6
  -1   8  17 591.039 569.581   6
  -1   8  16-371.437 431.816   6
  -1   8  15-189.987 454.177   6
  -1   8  14-171.524 284.245   6
  -1   8  13 18.9476 445.796   6
  -1   8  12 3352.08 1086.87   6
  -1   8  11 4099.02 1124.52   6
  -1   8  10 292.944 280.811   6
  -1   8   9-208.853 249.285   6
  -1   8   8 7318.07 1369.73   6
  -1   8   8 7474.50 825.760   1
  -1   8   7 469.179 273.283   1
  -1   8   7-236.338 259.822   6
  -1   8   6 4813.49 1041.49   6
  -1   8   6 4191.18 472.600   8
  -1   8   6 4062.99 645.862   1
  -1   8   6 3723.94 481.325   2
  -1   8   5 1359.76 596.174   6
  -1   8   5 1620.26 409.055   1
  -1   8   5 1806.30 372.658   8
  -1   8   4 2827.63 762.158   6
  -1   8   4 2934.30 581.225   1
  -1   8   4 3169.01 515.821   8
  -1   8   3 5459.46 989.685   6
  -1   8   3 4877.84 777.633   1
  -1   8   3 3815.41 592.907   8
  -1   8   2 1973.91 449.308   8
  -1   8   2 2611.64 654.751   6
  -1   8   1 19774.5 1735.64   6
  -1   8   0 7015.10 962.941   6
   1  -8   0 5011.65 736.051   8
  -1   8  -1 32185.6 2026.85   6
   1  -8   1 32105.3 1923.57   8
   1  -8   2 4610.63 756.110   8
  -1   8  -2 4280.50 714.281   6
  -1   8  -3 17877.9 1369.18   6
   1  -8   3 19641.0 1598.93   8
   1  -8   4 1409.05 507.192   8
  -1   8  -4 601.542 245.560   6
  -1   8  -5 2644.48 462.425   6
  -1   8  -5 4105.23 849.952   1
   1  -8   5 1917.57 497.653   8
  -1   8  -6 409.668 282.832   1
   1  -8   6-104.104 354.035   8
  -1   8  -6 274.658 150.617   6
  -1   8  -7 18314.3 1747.59   1
  -1   8  -7 16143.7 1012.33   6
  -1   8  -8 2427.40 646.038   1
   1  -8   8 3331.96 442.340   4
  -1   8  -8 2707.79 366.030   6
  -1   8  -9 1612.90 567.365   1
  -1   8  -9 450.215 138.659   6
  -1   8 -10 1306.56 425.745   1
   1  -8  10 744.674 238.372   5
  -1   8 -11 3898.62 918.549   7
  -1   8 -11 4281.69 924.827   1
  -1   8 -12 314.716 367.034   7
  -1   8 -12 24.1110 189.930   1
  -1   8 -13 1026.67 520.720   7
  -1   8 -13 1700.78 596.988   1
  -1   8 -14 5649.70 1257.22   7
  -1   8 -14 4955.65 1038.22   1
  -1   8 -15 861.215 392.458   1
  -1   8 -15 681.160 483.548   7
  -1   8 -16 5340.56 1238.92   2
  -1   8 -16 4232.23 1187.45   7
  -1   8 -17 1789.87 816.984   7
  -1   8 -17 2556.77 910.090   2
  -1   8 -18 140.029 229.795   2
  -1   8 -18 525.537 508.036   7
  -1   8 -19 2078.87 919.302   7
  -1   8 -19 2835.13 980.936   2
  -1   8 -20 140.866 228.333   2
  -1   8 -20-128.631 266.406   7
  -1   8 -21 526.522 478.757   2
  -1   8 -21 256.460 416.068   7
  -1   8 -21 838.637 621.331   9
  -1   8 -22-107.338 234.138   9
  -1   7  18 1747.72 918.273   6
  -1   7  17-475.344 475.469   6
  -1   7  16 202.033 311.934   6
   1  -7 -16 601.448 596.373   9
   1  -7 -15-79.0551 211.908   9
  -1   7  15 189.406 233.149   6
  -1   7  14 111.119 245.235   6
   1  -7 -14-135.735 270.868   9
   1  -7 -13 424.904 494.921   9
  -1   7  13-8.26601 282.564   6
  -1   7  12 369.443 357.792   6
   1  -7 -12 158.478 140.856   9
  -1   7  11 7059.10 1387.74   6
   1  -7 -11 9725.27 1707.34   9
   1  -7 -10-203.092 371.802   9
  -1   7  10 74.3697 186.427   6
   1  -7  -9 14863.4 1926.28   9
  -1   7   9 14086.4 1889.67   6
   1  -7  -8 379.548 162.839   9
  -1   7   8 598.350 205.634   1
  -1   7   8 581.016 420.533   6
  -1   7   7 11531.5 1571.05   6
   1  -7  -7 14064.0 1721.62   9
  -1   7   7 12102.7 996.798   1
  -1   7   6 2584.97 790.305   6
  -1   7   6 1595.44 354.303   1
  -1   7   6 1350.33 245.143   2
  -1   7   5 2067.31 585.276   6
  -1   7   5 2222.68 455.780   1
  -1   7   5 2046.53 340.124   8
  -1   7   4-298.928 143.333   8
  -1   7   4 217.968 239.341   1
  -1   7   4 392.695 381.602   6
  -1   7   3 10377.5 880.181   8
  -1   7   3 9374.07 1215.29   6
  -1   7   3 9725.99 1013.58   1
  -1   7   2-218.227 190.973   6
  -1   7   2-82.8643 104.546   8
  -1   7   1 3994.65 590.884   8
  -1   7   1 3516.01 706.139   6
  -1   7   1 3454.17 609.233   9
  -1   7   0 11358.0 1046.49   8
   1  -7   0 9723.58 949.417   8
  -1   7   0 10619.7 1146.84   6
  -1   7   0 11863.0 1060.68   9
   1  -7   1 34366.6 1862.04   8
  -1   7  -1 36918.6 1999.76   6
  -1   7  -2 61699.4 2473.43   6
   1  -7   2 59726.7 2573.97   8
   1  -7   3 32553.0 1958.59   8
   1  -7   3 30992.7 1585.12   6
  -1   7  -3 34579.2 1741.61   6
  -1   7  -4 5043.36 629.273   6
  -1   7  -4 5595.61 867.832   1
   1  -7   4 4441.37 770.234   8
  -1   7  -5 2536.36 613.357   1
  -1   7  -5 2596.00 413.986   6
   1  -7   5 2401.38 586.279   8
  -1   7  -6 5907.40 950.076   1
   1  -7   6 7049.34 1009.30   8
  -1   7  -6 5650.17 568.528   6
  -1   7  -7 7240.62 1040.54   1
   1  -7   7 6743.88 589.366   4
  -1   7  -7 5367.10 495.254   6
  -1   7  -8 4982.46 873.670   1
  -1   7  -8 3030.47 316.743   6
   1  -7   9 1589.52 333.109   5
  -1   7  -9 1994.28 572.490   1
  -1   7  -9 421.832 327.223   7
  -1   7 -10 2587.60 667.248   1
  -1   7 -10 2238.64 647.703   7
  -1   7 -11 6184.05 1131.06   7
  -1   7 -11 6623.82 1064.46   1
  -1   7 -12 3682.34 815.524   1
  -1   7 -12 3145.78 840.947   7
  -1   7 -13 9631.92 1344.89   1
  -1   7 -13 6393.48 1336.61   7
  -1   7 -14 4259.22 1028.73   7
  -1   7 -14 5016.53 1010.57   1
  -1   7 -15 5812.78 1221.32   2
  -1   7 -15 2304.23 867.695   7
  -1   7 -16-15.2562 289.005   2
  -1   7 -16-202.073 252.377   7
  -1   7 -17 94.3115 345.230   2
  -1   7 -17 206.941 332.976   7
  -1   7 -18 355.598 584.262   2
  -1   7 -18-60.0861 208.558   7
  -1   7 -19 299.960 449.578   7
  -1   7 -19-554.628 426.830   2
  -1   7 -20 629.650 502.821   9
  -1   7 -20 355.713 324.353   7
  -1   7 -20 492.870 483.419   2
  -1   7 -21-373.209 386.474   9
  -1   7 -21 666.812 613.220   7
  -1   7 -22 366.877 398.592   9
  -1   7 -23-1427.92 777.973   9
  -1   6  18-397.513 434.498   6
  -1   6  17-331.154 384.986   6
   1  -6 -17-541.785 505.428   9
  -1   6  16-920.889 602.914   6
   1  -6 -16 360.523 579.159   9
  -1   6  15-138.052 310.802   6
   1  -6 -15 97.0467 313.289   9
   1  -6 -14 1490.26 727.400   9
  -1   6  14 2875.96 1039.31   6
  -1   6  13 3710.77 1095.72   6
   1  -6 -13 3835.88 1125.98   9
  -1   6  12 4049.84 1096.14   6
   1  -6 -12 4514.15 1141.65   9
   1  -6 -11 345.509 202.297   9
  -1   6  11 1165.46 552.416   6
  -1   6  10 24787.4 2482.98   6
   1  -6 -10 27423.2 2632.14   9
  -1   6   9 12901.4 1772.07   6
   1  -6  -9 14646.4 1857.28   9
   1  -6  -8 25692.6 2338.33   9
  -1   6   8 25120.2 2292.40   6
  -1   6   7 10.0172 57.8196   1
   1  -6  -7 126.974 214.255   9
  -1   6   7 206.387 307.108   6
  -1   6   6 601.775 231.892   1
   1  -6  -6 957.940 403.916   9
  -1   6   6 546.146 222.810   6
  -1   6   5 4547.75 603.945   1
  -1   6   5 3894.61 397.174   8
  -1   6   5 4603.46 910.218   6
  -1   6   4 3937.24 571.529   1
  -1   6   4 5011.72 911.536   6
  -1   6   4 4130.22 454.245   8
  -1   6   3 4045.62 493.499   8
  -1   6   3 3883.55 746.511   6
  -1   6   3 3315.99 550.410   1
  -1   6   2 109251. 2706.13   8
  -1   6   2 117872. 3517.43   9
  -1   6   2 113189. 3789.07   6
  -1   6   1 42493.9 2205.62   6
  -1   6   1 40020.1 1728.31   8
  -1   6   1 41244.0 1934.28   9
  -1   6   0 7897.41 787.708   9
  -1   6   0 6510.42 727.154   8
  -1   6   0 6005.26 794.761   6
  -1   6  -1 4766.84 663.802   6
   1  -6   1 4578.64 639.458   8
   1  -6   1 4894.72 644.592   6
  -1   6  -1 5540.69 702.321   8
  -1   6  -2 29093.7 1668.04   8
   1  -6   2 29500.4 1483.12   6
   1  -6   2 28908.6 1656.19   8
  -1   6  -2 31368.6 1590.48   6
   1  -6   3 9284.38 979.101   8
  -1   6  -3 8310.29 770.291   6
   1  -6   3 9278.91 771.751   6
  -1   6  -3 9880.96 1050.86   1
   1  -6   4 557.000 269.224   8
  -1   6  -4 178.910 143.679   6
  -1   6  -4 243.962 160.423   1
  -1   6  -5 13768.4 1320.66   1
  -1   6  -5 11090.7 741.130   6
   1  -6   5 12126.3 1199.07   7
   1  -6   5 13313.6 1256.86   8
  -1   6  -6 1940.94 279.152   6
   1  -6   6 1653.01 266.324   4
  -1   6  -6 2466.11 537.630   1
  -1   6  -7 902.937 412.804   1
  -1   6  -7 157.951 59.7159   6
   1  -6   8 8707.47 760.083   5
  -1   6  -8 11413.8 1247.10   1
  -1   6  -8 9649.97 1257.49   7
   1  -6   9 134.817 103.313   5
  -1   6  -9 500.335 261.499   1
  -1   6  -9 122.342 106.416   7
  -1   6 -10 11523.0 1499.72   7
  -1   6 -10 12205.2 1359.57   1
  -1   6 -11 394.127 170.242   4
  -1   6 -11 470.109 202.736   1
  -1   6 -11 181.328 193.189   7
  -1   6 -12 13589.7 1509.40   1
  -1   6 -12 14619.5 1850.96   7
  -1   6 -12 13307.6 1107.40   4
  -1   6 -13 1518.82 596.295   7
  -1   6 -13 776.594 308.385   1
  -1   6 -13 1380.84 409.954   4
  -1   6 -14 28237.9 2505.13   2
  -1   6 -14 27512.1 2773.75   7
  -1   6 -14 27502.7 1875.21   4
  -1   6 -15 2924.71 655.148   4
  -1   6 -15 2164.03 738.369   2
  -1   6 -15 1870.40 746.648   7
  -1   6 -16 5221.81 1305.70   7
  -1   6 -16 7753.09 1394.57   2
  -1   6 -17-595.290 583.908   7
  -1   6 -17 462.329 412.781   2
  -1   6 -18 68.4076 361.925   2
  -1   6 -18 543.776 467.781   7
  -1   6 -19 328.561 593.651   7
  -1   6 -19 215.711 278.147   2
  -1   6 -19-325.803 340.082   9
  -1   6 -20 2.57343 230.631   2
  -1   6 -20-236.040 312.815   9
  -1   6 -20-186.134 310.914   7
  -1   6 -21-367.435 392.404   9
  -1   6 -21 565.620 561.297   7
  -1   6 -22-264.540 350.494   9
  -1   5  18-1.11454 126.672   6
   1  -5 -18-330.264 405.573   9
   1  -5 -17 63.3451 217.109   9
  -1   5  17 411.052 241.414   6
   1  -5 -16 969.071 625.083   9
  -1   5  16 949.034 691.768   6
  -1   5  15 492.583 551.612   6
   1  -5 -15 695.048 519.643   9
  -1   5  14 4833.45 1204.28   6
   1  -5 -14 6322.70 1438.18   9
  -1   5  13 647.388 442.882   6
   1  -5 -13 502.624 374.599   9
  -1   5  12 76.1540 342.649   6
   1  -5 -12 60.0570 199.478   9
   1  -5 -11 18618.3 2204.23   9
  -1   5  11 12668.7 1740.96   6
  -1   5  10 3475.76 911.267   6
   1  -5 -10 3222.93 884.903   9
  -1   5   9 21351.2 2142.48   6
   1  -5  -9 22965.4 2261.49   9
   1  -5  -8 1439.05 583.904   9
  -1   5   8 861.853 485.072   6
   1  -5  -7 6498.20 1087.01   9
  -1   5   7 5708.60 528.739   1
  -1   5   7 6409.91 1075.81   6
  -1   5   6 1270.40 439.994   6
  -1   5   6 1338.22 268.426   1
  -1   5   5 12483.3 871.859   1
  -1   5   5 10027.4 536.695   2
  -1   5   5 13007.7 1406.39   6
  -1   5   4 54.8813 63.8496   8
  -1   5   4-91.1307 147.589   6
  -1   5   4 203.356 116.756   1
   1  -5  -4 50.2436 95.9511   9
  -1   5   3 25504.3 1777.24   6
  -1   5   3 25474.0 1345.94   1
  -1   5   3 24817.4 1639.66   9
   1  -5  -3 26748.0 1711.38   9
  -1   5   3 26124.8 1081.13   8
  -1   5   2 1258.20 337.298   9
  -1   5   2 1181.91 250.187   8
  -1   5   2 1003.56 334.207   6
  -1   5   2 1291.99 325.069   1
  -1   5   1 696.135 195.416   8
  -1   5   1 751.326 300.114   6
  -1   5   1 736.450 234.017   9
  -1   5   1 497.651 188.991   1
  -1   5   0 17192.9 1078.80   8
  -1   5   0 18053.4 1261.75   6
  -1   5   0 19093.0 1263.48   1
  -1   5   0 16969.9 1036.85   9
  -1   5  -1 11.9557 164.331   1
  -1   5  -1 72.7231 79.3892   6
   1  -5   1 122.441 115.734   6
  -1   5  -1 51.5881 72.0865   8
  -1   5  -2 29138.0 1366.51   6
  -1   5  -2 30046.7 1657.33   1
   1  -5   2 28251.6 1298.31   6
  -1   5  -3 15598.9 1221.62   1
  -1   5  -3 15050.1 903.254   6
   1  -5   3 15973.3 894.425   6
   1  -5   4 2074.72 284.977   6
  -1   5  -4 1980.87 473.685   1
  -1   5  -4 1630.99 263.520   6
   1  -5   4 1482.60 396.044   7
  -1   5  -5 3546.63 341.698   6
  -1   5  -5 4744.03 716.316   1
   1  -5   5 3852.38 663.998   7
   1  -5   6 3444.49 655.755   7
  -1   5  -6 4561.21 781.904   7
  -1   5  -6 5887.87 819.527   1
  -1   5  -7 2824.08 594.149   1
   1  -5   7 2241.94 389.349   5
  -1   5  -7 2001.36 552.481   7
  -1   5  -8 1811.69 548.290   7
   1  -5   8 1806.04 338.915   5
  -1   5  -8 1975.54 502.239   1
  -1   5  -9 4397.89 882.408   7
  -1   5  -9 4065.01 729.308   1
  -1   5  -9 3571.49 462.045   4
  -1   5 -10 266.253 343.888   7
  -1   5 -10 26.5280 67.2664   4
  -1   5 -10 56.3137 159.071   1
  -1   5 -11 22971.3 1803.78   1
  -1   5 -11 22131.7 2208.25   7
  -1   5 -11 21897.6 1424.68   4
  -1   5 -12 608.551 324.595   4
  -1   5 -12 691.552 316.779   1
  -1   5 -12 544.176 389.279   7
  -1   5 -12 1230.56 367.334   2
  -1   5 -13 2778.68 854.751   7
  -1   5 -13 3264.66 795.313   2
  -1   5 -13 3335.10 660.000   4
  -1   5 -14 4517.33 953.539   2
  -1   5 -14 2871.09 856.707   7
  -1   5 -14 2843.70 665.477   4
  -1   5 -15 215.073 226.709   4
  -1   5 -15 451.695 404.442   2
  -1   5 -15 479.427 389.920   7
  -1   5 -16 2808.14 825.191   2
  -1   5 -16 3079.67 1050.19   7
  -1   5 -16 1589.81 604.977   4
  -1   5 -17 1278.42 648.405   7
  -1   5 -17 1229.78 495.049   2
  -1   5 -18-618.881 449.718   9
  -1   5 -18-108.585 124.760   2
  -1   5 -19 21.3962 130.409   9
  -1   5 -19 316.072 353.216   2
  -1   5 -20 71.1883 128.796   9
  -1   5 -20 122.783 405.595   7
  -1   5 -21-497.947 505.911   7
  -1   5 -21-584.721 487.771   9
  -1   5 -22 3513.09 1252.03   9
  -1   4  18 674.483 476.755   6
   1  -4 -18-1126.59 707.625   9
   1  -4 -17 2437.94 1025.43   9
  -1   4  17 950.615 667.643   6
   1  -4 -16-137.909 201.812   9
  -1   4  16 267.264 228.240   6
  -1   4  15 3076.23 995.399   6
   1  -4 -15 3280.46 1029.13   9
   1  -4 -14 1300.35 663.077   9
  -1   4  14 579.177 446.527   6
  -1   4  13 2146.23 729.594   6
   1  -4 -13 3247.22 967.270   9
  -1   4  12 824.701 490.115   6
   1  -4 -12 1211.40 562.085   9
   1  -4 -11 2614.65 813.084   9
  -1   4  11 3239.98 831.002   6
  -1   4  10 11815.9 1596.35   6
   1  -4 -10 11215.5 1603.56   9
  -1   4   9 25.4150 127.423   6
   1  -4  -9-258.236 307.752   9
  -1   4   8 246.736 255.819   6
  -1   4   7 5036.57 881.396   6
  -1   4   6 1226.99 219.155   1
  -1   4   6 839.279 355.916   6
  -1   4   5 8436.25 619.397   1
  -1   4   5 8402.36 1047.61   6
  -1   4   4 18691.8 650.703   8
   1  -4  -4 22032.5 1563.04   9
  -1   4   4 22531.2 1647.53   6
  -1   4   4 21013.1 1032.44   1
  -1   4   3 24212.1 1606.21   6
  -1   4   3 22147.6 837.658   8
   1  -4  -3 21989.1 1473.75   9
  -1   4   3 22700.8 1117.00   1
  -1   4   2 84.7313 67.2531   8
   1  -4  -2 55.4868 189.261   9
  -1   4   2 54.8327 133.411   6
  -1   4   2-9.12482 81.0957   9
  -1   4   2 277.533 163.091   1
  -1   4   1 152010. 3076.44   9
  -1   4   1 149369. 3069.60   1
  -1   4   1 149831. 2672.83   8
  -1   4   1 148259. 3511.97   6
  -1   4   0 13904.6 983.049   1
  -1   4   0 15129.4 911.145   8
  -1   4   0 15669.6 1055.60   6
  -1   4   0 14612.9 838.606   9
  -1   4  -1 27184.8 1269.52   6
  -1   4  -1 31395.6 1506.47   1
  -1   4  -2 24795.6 1386.13   1
  -1   4  -2 23202.9 1064.15   6
   1  -4   2 23855.2 1039.72   6
  -1   4  -3 6882.70 765.099   1
   1  -4   3 6366.14 472.431   6
  -1   4  -3 6229.41 498.601   6
   1  -4   4 1335.17 180.960   6
  -1   4  -4 1236.11 184.021   6
   1  -4   4 1537.28 372.033   7
  -1   4  -4 1186.42 349.898   1
  -1   4  -5-62.5930 117.271   1
   1  -4   5-75.7065 106.885   7
   1  -4   6 2224.97 368.347   5
  -1   4  -6 2302.51 466.975   1
   1  -4   6 2539.69 569.823   7
  -1   4  -7 86.7532 65.8941   4
   1  -4   7 320.178 159.271   5
  -1   4  -7-112.062 212.290   1
  -1   4  -8 4732.04 723.604   1
  -1   4  -8 3834.30 472.772   4
  -1   4  -9 5140.09 635.762   4
  -1   4  -9 5227.55 763.169   1
  -1   4 -10 900.202 340.640   1
  -1   4 -10 1570.43 558.231   7
  -1   4 -10 1270.32 429.388   2
  -1   4 -11 7268.69 1291.07   7
  -1   4 -11 8447.54 1157.87   2
  -1   4 -12 2697.51 769.949   7
  -1   4 -12 3015.04 723.287   2
  -1   4 -12 2580.47 579.559   5
  -1   4 -13 9434.40 1320.82   2
  -1   4 -13 8115.23 1044.46   5
  -1   4 -13 9263.14 1590.65   7
  -1   4 -14 3116.56 792.922   2
  -1   4 -14 4296.42 1101.13   7
  -1   4 -14 2342.46 569.529   5
  -1   4 -15 3056.29 946.201   7
  -1   4 -15 3307.10 802.572   2
  -1   4 -15 2227.43 592.335   5
  -1   4 -16 112.085 143.032   2
  -1   4 -16 239.465 258.884   7
  -1   4 -16 66.2787 279.341   9
  -1   4 -17 1954.06 687.579   4
  -1   4 -17 1996.61 783.060   9
  -1   4 -17 2155.44 714.782   2
  -1   4 -17 326.398 339.367   7
  -1   4 -18-28.2404 271.006   9
  -1   4 -18-109.419 277.530   2
  -1   4 -18-181.242 480.114   7
  -1   4 -19 2362.16 1022.55   7
  -1   4 -19 107.667 212.092   9
  -1   4 -20 1116.67 775.386   9
  -1   4 -20 1103.99 829.962   7
  -1   4 -21 1572.58 920.575   7
  -1   4 -21 1424.21 707.266   9
  -1   4 -22 261.723 325.022   9
   1  -3 -19 578.293 580.324   9
  -1   3  18-215.455 527.723   6
   1  -3 -18 500.607 478.475   9
  -1   3  17 234.854 314.989   6
   1  -3 -17 168.297 299.989   9
   1  -3 -16 509.239 515.576   9
  -1   3  16 636.794 473.918   6
  -1   3  15 2209.36 760.951   6
   1  -3 -15 2560.58 968.652   9
   1  -3 -14 8460.52 1617.16   9
  -1   3  14 8782.08 1495.85   6
  -1   3  13 614.618 434.325   6
   1  -3 -13 914.168 510.562   9
  -1   3  12 1621.10 642.015   6
   1  -3 -12 1634.04 640.376   9
   1  -3 -11 8775.71 1457.48   9
  -1   3  11 7562.33 1257.07   6
   1  -3 -10 1971.69 658.390   9
  -1   3  10 2005.35 641.401   6
  -1   3   9-76.4984 175.671   6
  -1   3   8 889.960 443.599   6
  -1   3   7 16818.3 1556.08   6
  -1   3   6 12082.4 1266.75   6
  -1   3   5 5825.63 853.882   6
  -1   3   4 70757.8 2699.52   6
  -1   3   4 68224.5 1565.70   1
  -1   3   3 240.337 68.4281   8
  -1   3   3 271.890 109.561   1
  -1   3   3 219.545 116.253   6
  -1   3   2-22.7268 95.5338   6
  -1   3   2 163.732 82.5722   8
  -1   3   2-63.7922 93.3950   1
  -1   3   1 2601.19 362.363   1
  -1   3   1 2799.05 370.687   9
  -1   3   1 2944.06 469.105   6
  -1   3   1 2890.51 324.272   8
  -1   3   0 167432. 2360.73   9
  -1   3   0 167367. 3058.03   6
  -1   3   0 171352. 2995.43   1
  -1   3  -1 369.100 191.071   1
  -1   3  -1 341.564 155.239   6
   1  -3   2 13613.1 656.786   6
  -1   3  -2 13863.9 934.760   1
  -1   3  -2 14993.0 725.366   6
   1  -3   3 69399.5 1194.10   6
   1  -3   3 72597.9 2346.24   7
  -1   3  -3 71058.5 1333.16   6
  -1   3  -3 69584.4 2215.80   1
   1  -3   4 728.645 260.826   7
  -1   3  -4 633.956 202.428   1
   1  -3   5 10074.1 753.337   5
   1  -3   5 12520.6 1126.22   7
  -1   3  -5 11127.4 957.629   1
   1  -3   6 22845.0 1621.43   7
   1  -3   6 21085.1 1147.79   5
  -1   3  -6 20003.8 1306.83   1
  -1   3  -7 35713.3 1791.53   1
  -1   3  -7 32800.0 1746.10   8
  -1   3  -8 29757.9 1611.24   5
  -1   3  -8 32618.1 2008.37   2
  -1   3  -8 29457.1 1668.27   1
   1  -3   8 26854.1 908.344   6
   1  -3   9 3153.35 371.459   6
  -1   3  -9 3924.35 759.442   2
  -1   3  -9 3985.20 633.996   5
  -1   3 -10 8458.58 1099.62   2
   1  -3  10 8300.68 677.248   6
  -1   3 -10 9147.24 1000.49   5
  -1   3 -11 2800.83 582.975   5
  -1   3 -11 2300.22 596.951   2
   1  -3  11 2531.45 415.530   6
  -1   3 -12 5793.06 907.473   5
  -1   3 -12 5262.47 940.895   2
  -1   3 -12 5079.91 1091.48   7
   1  -3  12 4981.35 640.364   6
   1  -3  13 113.778 138.851   6
  -1   3 -13 249.037 212.471   2
  -1   3 -13 330.569 112.557   5
  -1   3 -13 149.285 143.671   7
  -1   3 -14-120.590 181.314   2
  -1   3 -14-43.6165 264.581   5
   1  -3  14 215.117 174.871   6
  -1   3 -14-169.215 403.337   7
  -1   3 -15 910.632 421.375   5
  -1   3 -15 151.412 272.483   2
  -1   3 -15 124.830 271.832   9
  -1   3 -15 754.910 429.675   7
  -1   3 -16 475.503 368.177   5
  -1   3 -16 1076.55 478.604   2
  -1   3 -16 732.841 507.794   7
  -1   3 -16 1396.11 610.169   9
  -1   3 -17 461.920 474.075   7
  -1   3 -17 333.038 421.157   2
  -1   3 -17 21.8027 326.324   9
  -1   3 -17 32.0029 179.038   5
  -1   3 -18 48.1513 214.892   9
  -1   3 -18 987.620 634.409   7
  -1   3 -19 78.2152 199.303   9
  -1   3 -19 278.636 379.800   7
  -1   3 -20 745.831 550.420   9
  -1   3 -20 337.118 428.376   7
  -1   3 -21 483.386 322.818   7
  -1   3 -21 501.125 725.910   9
   1  -2 -19 756.111 656.015   9
   1  -2 -18 2014.53 917.866   9
  -1   2  17-286.212 404.348   6
   1  -2 -17 1136.14 658.669   9
   1  -2 -16 1134.91 569.560   9
  -1   2  16 350.864 387.385   6
  -1   2  15 441.134 331.951   6
   1  -2 -15 829.545 539.090   9
  -1   2  14 3663.33 953.820   6
   1  -2 -14 7038.57 1424.39   9
   1  -2 -13 4224.47 1025.24   9
  -1   2  13 3687.26 929.029   6
  -1   2  12 513.755 471.962   6
   1  -2 -12-56.1292 71.1027   2
   1  -2 -12 240.984 261.421   9
   1  -2 -11 1127.83 550.465   9
  -1   2  11 1128.56 471.217   6
   1  -2 -11 655.260 209.702   2
  -1   2  10 22519.4 1992.71   6
   1  -2 -10 18326.2 819.960   2
  -1   2   9 735.911 371.880   6
   1  -2  -9 638.448 146.927   2
  -1   2   8 26813.8 1975.79   6
  -1   2   7 28887.1 1938.90   6
  -1   2   6 4327.15 724.063   6
  -1   2   5 23891.4 1570.24   6
  -1   2   4 33674.3 1722.49   6
  -1   2   3 254875. 4462.35   6
   1  -2  -2 153076. 2133.51   1
  -1   2   2 151508. 3116.79   6
  -1   2   1 16763.0 946.724   6
  -1   2   1 17273.8 670.514   2
  -1   2   1 17608.4 799.061   1
  -1   2  -2 97.1021 64.3984   6
  -1   2  -2 252.929 150.504   2
  -1   2  -2 292.066 157.839   1
   1  -2   2 96.5783 119.828   7
  -1   2  -3 303358. 4270.67   2
   1  -2   3 305127. 4556.97   7
  -1   2  -3 300204. 4054.71   1
   1  -2   4 94132.1 2787.58   7
  -1   2  -4 88347.3 2323.89   1
   1  -2   4 88502.9 2177.36   5
  -1   2  -4 91859.2 2519.18   2
   1  -2   5 19072.8 1073.58   1
  -1   2  -5 20678.1 1283.37   2
  -1   2  -5 18569.4 1082.83   5
   1  -2   5 19039.4 1367.53   7
  -1   2  -6 107410. 2844.12   5
   1  -2   6 101200. 1625.10   6
  -1   2  -6 102467. 2781.33   8
  -1   2  -6 106567. 3095.86   2
   1  -2   6 106118. 2595.29   1
   1  -2   7 6337.02 653.876   1
   1  -2   7 7687.86 535.860   6
  -1   2  -7 7973.58 808.428   8
  -1   2  -7 7183.75 790.221   5
  -1   2  -7 7437.09 855.461   2
   1  -2   8 77.4773 100.785   6
  -1   2  -8-16.2552 55.7984   8
  -1   2  -8-103.230 113.478   2
   1  -2   9 430.233 162.878   6
  -1   2  -9 407.137 175.536   2
  -1   2  -9 324.731 210.169   5
  -1   2 -10 141.307 121.055   2
  -1   2 -10 110.885 147.489   5
   1  -2  10 54.5191 123.954   6
  -1   2 -11 58.4953 97.1545   2
  -1   2 -11 169.964 168.183   5
   1  -2  11 108.209 70.9019   6
  -1   2 -12 720.446 362.093   2
  -1   2 -12 605.857 417.766   7
   1  -2  12 612.213 245.306   6
  -1   2 -12 315.547 234.148   9
  -1   2 -12 444.305 254.345   5
   1  -2  13 790.467 292.837   6
  -1   2 -13 574.396 299.222   2
  -1   2 -13 1167.45 451.691   5
  -1   2 -13 678.181 526.264   7
  -1   2 -13 703.236 455.768   9
  -1   2 -14 575.680 416.557   7
  -1   2 -14 709.920 345.260   2
   1  -2  14 283.475 195.088   6
  -1   2 -14 147.188 152.094   9
  -1   2 -14 164.923 127.932   5
  -1   2 -15 1105.72 496.869   5
  -1   2 -15 1651.75 571.260   2
  -1   2 -15 1392.60 661.323   7
   1  -2  15 1856.57 503.309   6
  -1   2 -15 1329.46 596.410   9
  -1   2 -16 349.054 166.899   2
  -1   2 -16 77.3292 290.329   9
  -1   2 -16 160.972 246.085   7
  -1   2 -16-9.29329 229.996   5
  -1   2 -17 3636.32 878.127   2
  -1   2 -17 4140.61 1127.10   9
  -1   2 -17 4583.54 1304.59   7
  -1   2 -17 4513.84 1051.79   5
  -1   2 -18-208.243 287.667   9
  -1   2 -18 162.815 332.963   7
  -1   2 -19-358.154 456.922   7
  -1   2 -19-128.059 262.838   9
  -1   2 -20 1187.26 665.468   7
  -1   2 -20 929.740 621.975   9
  -1   2 -21 187.794 318.551   9
   1  -1 -20 2888.28 1141.74   9
   1  -1 -20 2375.01 1089.43   7
   1  -1 -19 517.217 519.499   9
   1  -1 -18-421.510 344.416   9
   1  -1 -17 2374.12 980.362   9
  -1   1  17 2176.83 790.189   6
   1  -1 -16-279.200 317.352   9
  -1   1  16 118.901 165.926   6
   1  -1 -15 666.889 310.013   9
  -1   1  15 808.439 473.983   6
  -1   1  14 830.866 550.286   6
   1  -1 -14 704.494 373.525   9
   1  -1 -13 491.222 208.317   2
   1  -1 -13-42.0053 293.449   9
  -1   1  13 404.608 317.479   6
   1  -1 -12 2897.66 461.656   2
  -1   1  12 3824.81 854.730   6
   1  -1 -12 2287.70 388.841   8
   1  -1 -11 3393.07 478.068   2
  -1   1  11 1980.33 605.594   6
   1  -1 -11 2213.44 365.283   8
  -1   1  10 6054.47 988.103   6
   1  -1 -10 5762.98 587.168   2
   1  -1 -10 5539.05 561.721   8
   1  -1  -9 1171.21 242.444   8
  -1   1   9 964.482 343.507   6
   1  -1  -9 1278.94 259.705   2
   1  -1  -8-11.2642 54.2525   2
   1  -1  -8-2.39303 27.2361   8
  -1   1   8 75.1379 136.060   6
   1  -1  -7 218.824 102.808   8
   1  -1  -7 263.004 108.991   2
  -1   1   7 149.549 126.958   6
  -1   1   6 89700.6 2995.15   6
   1  -1  -6 91342.8 2786.49   6
  -1   1   6 88865.8 1545.35   8
   1  -1  -6 83962.0 1720.30   8
   1  -1  -5 3193.17 499.911   6
   1  -1  -5 2940.82 303.107   8
  -1   1   5 2982.50 263.072   8
  -1   1   5 4168.22 665.526   6
  -1   1   4 25943.6 739.669   8
  -1   1   4 27829.7 1460.39   6
   1  -1  -4 25790.1 827.218   8
  -1   1   3 431.217 303.443   6
  -1   1   2 14239.5 874.538   6
   1  -1   3 142262. 3030.22   7
  -1   1  -3 136469. 2678.81   2
   1  -1   3 134306. 2645.75   5
  -1   1  -4 21613.0 1160.41   2
   1  -1   4 21504.0 709.005   6
   1  -1   4 20338.4 996.213   1
  -1   1  -4 22584.9 1177.31   5
  -1   1  -5 48455.4 1848.35   2
  -1   1  -5 53646.6 1980.44   5
   1  -1   5 47513.8 1574.00   1
   1  -1   5 48985.0 1264.39   6
   1  -1   6 490.893 167.404   1
  -1   1  -6 950.311 306.453   2
  -1   1  -6 1200.72 312.540   5
   1  -1   6 1001.92 218.639   6
  -1   1  -7 4057.88 598.627   2
   1  -1   7 4340.92 493.036   1
   1  -1   7 4667.47 497.523   6
  -1   1  -7 5316.63 721.459   5
  -1   1  -7 3949.36 529.083   8
  -1   1  -8 209.539 263.407   9
   1  -1   8-2.62852 42.1224   1
  -1   1  -8-20.5330 124.256   2
  -1   1  -8 6.89685 40.7231   8
  -1   1  -9 681.493 312.294   9
  -1   1  -9 553.312 230.888   2
   1  -1   9 647.474 236.145   6
  -1   1  -9 411.793 196.028   8
  -1   1 -10 11138.2 1373.31   9
  -1   1 -10 9917.75 1098.86   2
   1  -1  10 10982.5 1009.34   6
  -1   1 -10 9607.49 943.163   8
  -1   1 -11 1829.24 556.344   9
  -1   1 -11 1550.26 458.635   2
   1  -1  11 1373.03 393.299   6
  -1   1 -12 983.922 424.386   9
   1  -1  12 987.218 349.377   6
  -1   1 -12 998.308 571.092   7
  -1   1 -12 514.933 240.483   2
  -1   1 -12 935.800 284.922   3
  -1   1 -13 2531.09 784.669   9
  -1   1 -13 1773.98 541.744   5
  -1   1 -13 1033.88 442.506   7
  -1   1 -13 2064.63 433.681   3
   1  -1  13 1688.15 503.360   6
  -1   1 -13 2971.76 689.871   2
  -1   1 -14 13716.8 2016.76   7
  -1   1 -14 15330.0 1621.47   2
  -1   1 -14 14810.2 1166.54   3
   1  -1  14 13286.2 1422.09   6
  -1   1 -14 15508.5 1974.25   9
  -1   1 -14 14181.3 1712.40   5
  -1   1 -15 142.453 105.377   5
  -1   1 -15-320.167 311.328   9
  -1   1 -15 55.4745 231.786   7
   1  -1  15 283.306 274.177   6
  -1   1 -15 331.933 310.207   2
  -1   1 -16 14.6631 102.219   2
  -1   1 -16-150.754 382.285   9
  -1   1 -16-148.130 169.698   7
  -1   1 -16 290.610 268.580   5
  -1   1 -17 755.213 485.880   5
  -1   1 -17 104.546 201.036   9
  -1   1 -18 401.047 401.077   5
  -1   1 -18 175.712 272.462   9
  -1   1 -18 22.9110 464.488   7
  -1   1 -19-427.560 459.093   7
  -1   1 -19 451.310 461.134   9
  -1   1 -20 505.532 539.281   9
  -1   1 -20-638.741 567.053   7
  -1   1 -21-12.0480 216.296   9
   1   0 -20 1016.65 711.605   7
   1   0 -20 528.100 494.407   9
   1   0 -19 188.201 133.569   7
   1   0 -19 671.037 536.396   9
   1   0 -18 433.034 477.263   9
   1   0 -17-268.696 259.300   9
  -1   0  17 483.264 361.550   6
   1   0 -16-211.102 313.849   9
  -1   0  16-16.6786 300.143   6
  -1   0  15-30.9176 113.052   6
   1   0 -15 626.877 466.284   9
  -1   0  14 74.0718 221.227   6
   1   0 -14 784.372 299.004   2
  -1   0  13 8.81900 104.850   6
   1   0 -13 206.938 186.114   2
   1   0 -12 2042.77 433.026   2
   1   0 -12 2052.38 420.080   8
  -1   0  12 2407.98 656.032   6
   1   0 -11 12643.7 1012.34   8
   1   0 -11 12402.3 1022.15   2
  -1   0  11 13773.3 1469.05   6
   1   0 -10 16137.4 1097.30   8
   1   0 -10 16218.2 1103.26   2
  -1   0  10 15503.2 1487.32   6
  -1   0   9 4414.41 763.397   6
   1   0  -9 4894.61 577.294   8
  -1   0   8 3055.55 607.107   6
   1   0  -8 3247.38 543.105   6
   1   0  -8 3336.00 459.428   8
  -1   0   8 3348.39 430.580   8
   1   0  -7 42740.9 1912.78   6
   1   0  -7 39890.5 903.416   1
   1   0  -7 42598.2 1534.04   8
  -1   0   7 41758.6 1437.38   8
  -1   0   7 41304.1 2066.95   6
  -1   0   6 959.362 213.035   8
   1   0  -6 938.259 289.118   6
   1   0  -6 1018.18 226.709   8
  -1   0   6 946.250 309.381   6
   1   0  -5 19418.0 1168.54   6
  -1   0   5 19836.8 1251.43   6
   1   0  -5 20936.5 964.665   8
  -1   0   5 20801.2 895.808   8
  -1   0   4 95452.1 2508.43   6
   1   0  -4 93029.4 1919.58   8
  -1   0   4 94458.6 1806.20   8
  -1   0   3 107026. 2487.33   6
  -1   0   3 109511. 1863.40   8
  -1   0  -3 52177.3 1592.94   3
  -1   0  -3 52186.9 1639.21   2
   1   0   3 52925.8 1722.20   9
  -1   0  -4 3660.68 458.405   2
   1   0   4 4099.93 404.185   6
  -1   0  -4 3888.02 467.997   3
   1   0   4 4483.75 497.943   2
  -1   0  -5 12743.0 934.553   2
  -1   0  -5 14576.9 927.322   3
   1   0   5 13214.2 808.968   6
   1   0   5 13165.2 899.576   2
   1   0   6 8620.18 706.268   6
  -1   0  -6 10546.3 899.901   2
  -1   0  -6 9038.68 758.906   3
   1   0   7 10328.9 845.743   6
   1   0   7 9609.99 697.653   1
  -1   0  -7 11991.2 904.245   3
  -1   0  -7 11570.7 1008.99   2
  -1   0  -8 334.884 147.066   8
   1   0   8 412.386 213.649   6
   1   0   8 526.635 168.970   1
  -1   0  -8 364.123 179.963   2
  -1   0  -8 360.791 150.130   3
  -1   0  -9 93.2371 95.0329   8
  -1   0  -9 84.4687 60.0316   2
   1   0   9 8.62549 34.1531   1
  -1   0  -9 40.9873 64.4282   3
   1   0   9 72.4979 151.230   6
  -1   0 -10 5309.47 783.811   2
  -1   0 -10 5022.02 632.964   8
   1   0  10 5329.58 760.685   6
  -1   0 -10 4367.85 884.334   9
  -1   0 -10 6060.09 667.594   3
  -1   0 -11 65.1035 104.507   8
  -1   0 -11 356.749 287.271   9
  -1   0 -11 6.13292 67.4329   3
   1   0  11 31.8551 123.522   6
  -1   0 -11-82.6157 162.396   2
  -1   0 -12 534.574 334.048   2
  -1   0 -12 544.153 323.456   9
   1   0  12 636.318 320.694   6
   1   0  13 5280.66 917.539   6
  -1   0 -13 4507.51 1074.15   9
  -1   0 -13 3668.28 746.049   2
  -1   0 -13 4754.36 1171.05   7
   1   0  14 1262.51 522.064   6
  -1   0 -14 738.454 368.661   2
  -1   0 -14 574.572 433.590   9
  -1   0 -14 1651.40 754.100   7
  -1   0 -15 1088.24 455.632   2
   1   0  15 1133.26 470.075   6
  -1   0 -15 342.577 395.901   7
  -1   0 -15 1687.86 642.712   9
   1   0  16 1930.96 647.698   6
  -1   0 -16 1393.86 648.538   5
  -1   0 -16 2842.20 952.606   9
  -1   0 -16 964.325 463.580   7
  -1   0 -17 165.822 158.017   5
  -1   0 -17 737.731 527.423   7
  -1   0 -17 168.928 206.368   9
  -1   0 -18 1395.74 635.578   5
  -1   0 -18 1073.38 588.561   7
  -1   0 -18 1731.43 750.016   9
  -1   0 -19 1390.05 751.403   9
  -1   0 -19-447.644 393.357   7
  -1   0 -20 195.562 323.286   9
  -1   0 -20 124.243 512.265   7
   1   1 -21 1447.99 858.986   9
   1   1 -20-162.048 308.094   7
   1   1 -20 92.9936 402.393   9
   1   1 -19 136.390 202.642   9
   1   1 -19-162.252 306.060   7
   1   1 -18 432.198 338.181   7
   1   1 -18-335.026 504.017   9
   1   1 -17 170.951 251.321   9
  -1  -1  16 310.543 209.038   6
  -1  -1  15-148.131 173.681   6
   1   1 -15-108.007 224.728   2
   1   1 -14 313.621 171.707   2
  -1  -1  14 299.995 271.084   6
   1   1 -13 3388.89 649.358   2
  -1  -1  13 2514.83 680.895   6
   1   1 -12 14129.0 1244.59   2
  -1  -1  12 15705.5 1586.93   6
   1   1 -11 437.725 212.202   8
  -1  -1  11 651.690 338.634   6
   1   1 -10 2991.98 517.305   8
  -1  -1  10 3160.30 637.122   6
  -1  -1  10 3107.24 494.343   8
   1   1 -10 3076.38 372.235   1
   1   1  -9 428.889 197.261   8
  -1  -1   9 48.0392 92.1222   6
   1   1  -9 153.114 72.5830   1
  -1  -1   9 213.486 118.862   8
   1   1  -9 106.363 118.111   6
   1   1  -8 53344.8 2104.34   6
  -1  -1   8 58645.8 2010.68   8
   1   1  -8 56093.9 2065.67   8
  -1  -1   8 56785.1 2437.25   6
   1   1  -7 571.138 212.627   6
  -1  -1   7 484.507 203.780   6
  -1  -1   7 1173.73 280.232   8
   1   1  -7 637.285 209.964   8
   1   1  -6 99.9546 75.4969   6
   1   1  -6 27.6445 45.7000   8
  -1  -1   6-23.8511 158.823   6
  -1  -1   6 127.934 142.432   8
   1   1  -5 15945.6 1003.30   6
  -1  -1   5 16196.2 1084.61   6
  -1  -1   5 15526.9 899.518   8
   1   1  -5 16740.0 977.806   8
  -1  -1   4 85617.3 2310.32   6
  -1  -1   4 85460.3 2035.95   8
   1   1  -4 83458.4 2202.15   6
   1   1  -4 85836.8 2545.07   4
  -1  -1   3 10357.6 677.950   8
   1   1  -3 13182.3 888.974   4
  -1  -1  -2 7736.28 601.828   2
   1   1   2 7886.74 641.525   9
   1   1   3 122678. 2522.48   2
  -1  -1  -3 116396. 2518.83   2
   1   1   3 128537. 2538.85   3
   1   1   3 128525. 2928.39   9
   1   1   3 125164. 2409.96   6
   1   1   4 2617.17 389.415   6
  -1  -1  -4 2410.42 373.187   2
   1   1   4 3017.38 404.339   2
   1   1   4 2473.98 454.665   9
   1   1   4 2890.27 391.122   3
  -1  -1  -5 14405.1 985.619   2
   1   1   5 13038.6 883.597   2
   1   1   5 13693.7 961.862   6
   1   1   6 21.4692 81.0614   6
   1   1   6-0.52340 43.8733   2
  -1  -1  -7 1903.06 398.496   2
   1   1   7 1626.48 341.648   2
   1   1   7 2310.57 450.350   6
   1   1   8 2737.06 522.878   6
  -1  -1  -8 1711.53 397.443   2
   1   1   9 6466.96 862.623   6
   1   1   9 5153.51 477.227   1
  -1  -1  -9 6760.26 837.452   2
  -1  -1  -9 5740.99 600.015   8
   1   1  10 4618.60 438.472   1
   1   1  10 4530.47 748.053   6
  -1  -1 -10 5529.61 1023.51   9
  -1  -1 -10 4441.92 699.376   2
  -1  -1 -10 5009.93 579.737   8
   1   1  11 683.316 319.118   6
  -1  -1 -11 664.813 215.417   8
  -1  -1 -11 450.541 234.208   2
  -1  -1 -11 178.896 282.173   9
  -1  -1 -12 568.264 310.639   2
   1   1  12 711.558 333.431   6
  -1  -1 -12 261.405 138.274   8
  -1  -1 -12 606.388 374.129   9
  -1  -1 -13 25995.3 2555.91   9
   1   1  13 23730.2 2031.68   6
  -1  -1 -13 23013.7 1758.85   2
  -1  -1 -14 1588.62 698.647   9
   1   1  14 978.641 423.068   6
  -1  -1 -14 743.128 329.085   2
  -1  -1 -15 4666.46 1256.29   7
   1   1  15 2078.45 648.443   6
  -1  -1 -15 3804.71 1058.52   9
   1   1  16 15.3977 145.762   6
  -1  -1 -16 394.570 231.549   9
  -1  -1 -17 1083.05 668.816   7
  -1  -1 -17 978.096 578.741   9
  -1  -1 -18 110.403 215.827   5
  -1  -1 -18-769.231 588.691   7
  -1  -1 -18 679.450 617.022   9
  -1  -1 -19 122.327 479.047   7
  -1  -1 -19-92.3257 341.272   9
  -1  -1 -19 452.385 419.319   5
  -1  -1 -20-162.100 300.158   9
   1   2 -21-991.846 670.285   9
   1   2 -21 182.283 440.258   7
   1   2 -20 43.0906 209.399   9
   1   2 -20 178.225 297.590   4
   1   2 -20-498.732 486.337   7
   1   2 -19-35.8459 365.132   9
   1   2 -19-223.217 429.247   7
   1   2 -19-939.808 591.381   4
   1   2 -18 276.411 554.197   7
   1   2 -18 99.0327 405.300   4
   1   2 -17 86.5414 259.924   7
  -1  -2  16 7145.16 1205.13   6
   1   2 -16 5704.24 951.376   2
   1   2 -16 7213.42 1555.37   7
  -1  -2  15 187.492 167.187   6
   1   2 -15 559.686 331.023   2
   1   2 -14 9506.04 1187.09   2
  -1  -2  14 8166.32 1197.29   6
  -1  -2  13 2122.96 588.004   6
   1   2 -12 1203.15 287.426   1
  -1  -2  12 646.405 331.368   6
  -1  -2  11 640.049 314.783   6
   1   2 -11 368.435 199.461   6
  -1  -2  11 361.420 189.906   8
   1   2 -11 332.249 147.338   1
  -1  -2  10 2988.44 600.474   6
   1   2 -10 1453.16 367.761   6
   1   2 -10 2448.51 399.892   1
  -1  -2  10 2169.26 465.805   8
  -1  -2   9 1537.51 413.515   6
   1   2  -9 1791.93 424.177   8
   1   2  -9 1769.92 382.024   6
  -1  -2   9 1706.06 385.916   8
   1   2  -8 31556.7 1547.56   6
   1   2  -8 31313.6 1685.43   8
  -1  -2   8 29174.9 1680.89   6
  -1  -2   8 30470.5 1609.64   8
   1   2  -7 10810.5 876.020   6
  -1  -2   7 11295.5 980.650   6
   1   2  -7 10512.3 1082.30   4
  -1  -2   7 11007.6 919.941   8
   1   2  -7 11016.0 957.975   8
   1   2  -6 2368.32 479.697   4
   1   2  -6 1737.61 337.096   6
   1   2  -6 2544.21 449.105   8
  -1  -2   6 1474.61 334.135   8
   1   2  -5 167.184 112.408   6
  -1  -2   5 476.689 183.745   8
   1   2  -5 135.562 136.451   8
   1   2  -5 114.780 100.739   4
   1   2  -4 74192.4 2308.94   4
  -1  -2   4 70592.7 2082.86   8
  -1  -2   3 50176.8 1687.36   8
   1   2  -3 48980.4 1739.20   4
  -1  -2   2 42413.1 1493.44   8
  -1  -2   0 10710.2 718.760   8
  -1  -2  -1 4961.89 495.571   8
   1   2   2 347.442 161.848   2
   1   2   2 408.776 176.730   9
  -1  -2  -2 291.041 130.803   8
  -1  -2  -2 243.359 148.709   2
   1   2   3 47146.7 1650.51   2
   1   2   3 45833.3 1918.91   9
  -1  -2  -3 45388.1 1634.71   2
   1   2   3 46849.2 1724.52   6
   1   2   4 53.1201 90.1282   9
  -1  -2  -4-81.8521 88.2509   2
   1   2   4-59.5266 70.5198   6
   1   2   4-103.211 103.552   2
   1   2   4 9.90954 45.0071   3
   1   2   5 5880.15 696.379   6
   1   2   5 5197.80 571.874   3
  -1  -2  -5 4288.04 549.152   2
   1   2   5 4807.24 549.979   2
   1   2   6 4592.24 653.428   6
  -1  -2  -6 5230.16 623.236   2
   1   2   6 5298.37 589.494   3
   1   2   6 4504.68 538.730   2
  -1  -2  -7 94.3936 89.3134   2
   1   2   7-229.792 167.611   6
   1   2   7 29.5157 71.8525   2
   1   2   8 19965.7 1532.27   6
   1   2   8 18165.1 1138.27   2
  -1  -2  -8 17337.3 1247.64   2
   1   2   9 2679.82 578.822   6
  -1  -2  -9 1671.38 299.971   8
  -1  -2  -9 2459.05 466.421   2
  -1  -2 -10 1181.83 254.771   8
   1   2  10 1085.91 200.136   1
   1   2  10 1507.52 460.978   6
  -1  -2 -10 1879.61 441.330   2
  -1  -2 -10 945.874 469.207   9
  -1  -2 -11-53.4807 139.535   2
  -1  -2 -11 233.928 215.159   9
  -1  -2 -11 55.8338 87.1690   8
   1   2  11-245.233 213.730   6
  -1  -2 -12 5956.54 834.491   2
   1   2  12 6622.06 1083.94   6
  -1  -2 -12 6987.85 1356.28   9
  -1  -2 -13 1275.35 621.281   9
   1   2  13 646.215 391.372   6
  -1  -2 -13 479.582 232.627   2
   1   2  14 5837.86 1114.49   6
  -1  -2 -14 5050.82 1208.49   9
   1   2  15 489.713 163.435   6
  -1  -2 -15 994.069 595.823   9
   1   2  16 4010.45 1003.89   6
  -1  -2 -16 1476.78 738.291   9
   1   2  17 358.984 311.872   6
  -1  -2 -17-33.3497 256.119   7
  -1  -2 -17 26.3291 360.823   9
  -1  -2 -18 114.311 262.009   7
  -1  -2 -18 354.674 395.963   9
  -1  -2 -19-151.253 304.780   7
  -1  -2 -19 706.846 722.790   9
  -1  -2 -19-647.969 510.148   5
   1   3 -21 127.297 356.619   9
   1   3 -21 504.635 483.870   7
   1   3 -20-755.235 559.943   9
   1   3 -20 500.428 482.522   7
   1   3 -19 348.993 572.337   7
   1   3 -19 1365.26 732.185   4
   1   3 -18-779.436 503.338   4
   1   3 -18-123.145 243.907   7
   1   3 -17 2525.50 834.093   4
   1   3 -17 2321.01 678.249   2
   1   3 -17 2155.36 951.562   7
   1   3 -16-47.0649 209.379   4
   1   3 -16 25.7742 264.244   7
   1   3 -16 457.457 344.803   2
   1   3 -15 3420.50 1000.79   4
   1   3 -15 3685.94 792.698   2
   1   3 -15 2920.10 928.600   7
   1   3 -14 1237.48 449.444   4
   1   3 -14 1436.91 365.661   1
   1   3 -14 689.622 370.926   7
   1   3 -13 1594.15 379.405   1
   1   3 -13 980.621 424.019   4
   1   3 -13 1137.69 523.499   7
   1   3 -12 6088.33 1060.75   4
   1   3 -12 6374.95 749.340   1
   1   3 -12 6049.86 726.595   6
  -1  -3  12 6555.72 918.049   8
   1   3 -11 659.765 225.475   1
   1   3 -11 387.924 181.265   6
   1   3 -11 296.664 107.773   4
  -1  -3  11 1035.24 377.488   8
   1   3 -10 94.6851 86.1652   6
   1   3 -10-106.844 242.839   4
  -1  -3  10 353.505 264.726   8
   1   3  -9 1256.79 294.759   6
   1   3  -9 2017.31 536.687   4
  -1  -3   9 949.567 288.852   8
  -1  -3   8 4545.54 678.437   8
   1   3  -8 3507.27 493.535   6
   1   3  -8 3673.82 669.902   4
   1   3  -7 592.291 238.047   8
   1   3  -7 574.654 200.925   6
   1   3  -7 789.461 288.284   4
  -1  -3   7 998.131 313.665   8
   1   3  -6-20.6007 83.4667   7
   1   3  -6 119.368 111.939   8
  -1  -3   6 177.884 164.056   8
   1   3  -6 172.063 146.844   4
   1   3  -6-46.6743 53.1782   6
  -1  -3   5 13614.6 1076.74   4
   1   3  -5 11793.1 983.530   4
  -1  -3   5 13824.4 1050.33   8
   1   3  -5 11761.6 948.245   7
   1   3  -4 7049.81 618.144   7
  -1  -3   4 7467.63 755.774   8
  -1  -3   4 7562.29 757.503   4
  -1  -3   3 99562.9 2619.75   8
   1   3  -3 98580.9 1925.25   7
  -1  -3   3 94907.2 1555.18   5
  -1  -3   2 5855.31 627.255   8
  -1  -3   1 9367.01 771.157   8
  -1  -3   0 28837.5 1316.77   8
   1   3   1 98152.4 2435.44   8
  -1  -3  -1 94702.7 2322.04   8
   1   3   2 46055.3 1808.95   6
   1   3   2 44245.4 1717.85   2
  -1  -3  -2 43793.0 1560.35   8
  -1  -3  -3 5868.60 563.508   8
   1   3   3 5862.60 624.780   2
   1   3   3 5427.35 724.497   9
   1   3   3 5740.08 687.671   6
   1   3   4 5049.09 583.453   2
  -1  -3  -4 4558.09 490.713   8
   1   3   4 4990.49 689.948   6
   1   3   5 15670.2 1019.74   2
   1   3   5 15894.9 1266.46   6
  -1  -3  -5 14036.7 872.949   8
  -1  -3  -5 14200.2 1008.98   2
  -1  -3  -6 170.759 86.3969   2
  -1  -3  -6 134.186 97.0108   8
   1   3   6 270.009 155.118   2
   1   3   6 275.626 114.051   3
   1   3   6 78.1686 181.204   6
  -1  -3  -7 4354.64 576.780   2
   1   3   7 3289.49 476.536   2
   1   3   7 2382.70 527.289   6
   1   3   7 4237.87 564.874   3
  -1  -3  -8 19332.9 1275.90   2
   1   3   8 21095.3 1675.72   6
   1   3   8 17939.7 1105.78   2
  -1  -3  -9 593.528 162.175   8
   1   3   9 1024.50 333.875   6
  -1  -3  -9 1327.13 339.382   2
  -1  -3 -10 4017.95 952.973   9
  -1  -3 -10 3337.34 373.161   8
   1   3  10 4449.88 852.012   6
  -1  -3 -10 3547.02 573.396   2
  -1  -3 -11 882.455 539.943   9
   1   3  11 879.353 442.735   6
  -1  -3 -11 210.143 131.674   2
   1   3  12 1645.96 554.694   6
  -1  -3 -12 1079.48 328.014   2
  -1  -3 -12 722.375 352.168   9
  -1  -3 -13 5373.89 1207.49   9
   1   3  13 4959.99 1037.38   6
   1   3  14-922.116 468.496   6
  -1  -3 -14-103.306 401.492   9
  -1  -3 -15 605.352 532.734   9
   1   3  15-490.513 363.386   6
  -1  -3 -16 1354.00 650.608   9
   1   3  16 219.644 343.451   6
   1   3  17 1536.25 642.810   6
  -1  -3 -17 401.323 430.871   9
  -1  -3 -17 741.694 598.349   7
  -1  -3 -18 830.869 718.549   7
  -1  -3 -18-793.167 576.911   9
  -1  -3 -19 222.247 355.325   7
  -1  -3 -19 1481.66 775.782   9
  -1  -3 -19 809.404 608.617   5
   1   4 -22-599.657 541.235   9
   1   4 -21 185.052 569.881   7
   1   4 -21-169.562 260.171   9
   1   4 -20 886.546 662.005   7
   1   4 -19-22.6630 144.121   4
   1   4 -19-414.302 310.919   7
   1   4 -18 217.792 229.262   4
   1   4 -18 212.343 233.621   2
   1   4 -18 237.631 272.573   7
   1   4 -17 2549.30 712.726   2
   1   4 -17 1954.51 712.392   4
   1   4 -17 3194.07 1082.64   7
   1   4 -16 3581.51 1040.92   7
   1   4 -16 4341.30 1054.53   4
   1   4 -15 4261.63 1098.70   7
   1   4 -15 3498.00 906.196   4
   1   4 -15 2639.35 540.438   5
   1   4 -15 3918.53 682.128   1
   1   4 -14 6781.33 841.818   5
   1   4 -14 6512.60 1181.53   4
   1   4 -14 5421.84 778.429   1
   1   4 -14 5578.15 1257.93   7
   1   4 -13 6227.24 1102.68   4
  -1  -4  13 7618.73 1092.52   8
   1   4 -13 5964.01 700.706   6
   1   4 -13 6339.57 747.250   5
   1   4 -13 7091.50 885.536   1
   1   4 -13 7111.21 1296.56   7
  -1  -4  12 87.9864 218.974   8
   1   4 -12-45.9974 96.8306   6
   1   4 -12 123.377 105.366   4
   1   4 -12-16.0177 100.223   5
   1   4 -12 19.2133 116.905   1
   1   4 -12 234.675 366.217   7
   1   4 -11 3603.11 470.335   5
   1   4 -11 4041.78 823.754   4
   1   4 -11 4153.14 907.322   7
  -1  -4  11 4270.46 763.874   8
   1   4 -11 3341.97 507.349   6
   1   4 -10 1213.88 302.589   6
  -1  -4  10 1445.35 428.225   8
   1   4 -10 899.684 200.031   5
   1   4 -10 1249.85 454.682   4
   1   4 -10 1406.91 495.105   7
   1   4  -9 3407.95 676.417   4
   1   4  -9 3156.36 478.756   6
  -1  -4   9 3665.65 677.026   8
   1   4  -9 2683.00 660.960   7
   1   4  -9 3226.14 323.813   5
   1   4  -8 1501.19 407.658   7
   1   4  -8 1915.40 363.637   6
   1   4  -8 1334.82 381.075   4
  -1  -4   8 2659.06 566.404   8
   1   4  -7 30247.9 1802.16   7
   1   4  -7 28643.9 1442.27   6
   1   4  -7 30952.3 1792.75   4
  -1  -4   7 33003.0 1834.85   4
  -1  -4   7 33861.5 1892.16   8
  -1  -4   6 7004.09 842.835   8
  -1  -4   6 7928.50 850.829   4
   1   4  -6 8542.49 889.335   7
  -1  -4   5 1147.97 326.100   4
  -1  -4   5 599.002 221.589   8
   1   4  -5 1106.06 292.097   7
   1   4  -4 61860.1 1839.52   7
  -1  -4   4 61121.9 1827.42   7
  -1  -4   4 60417.4 2358.98   8
  -1  -4   3 3684.44 561.738   8
  -1  -4   3 3853.95 383.266   7
  -1  -4   2 68581.5 2349.36   8
  -1  -4   1 41163.9 1738.73   8
  -1  -4   0 14098.9 986.459   8
   1   4   0 14598.7 1069.83   8
  -1  -4  -1 5273.80 612.147   8
   1   4   1 6127.50 667.858   8
   1   4   1 6019.28 689.317   6
  -1  -4  -2 12549.3 895.366   8
   1   4   2 14902.9 1147.40   6
   1   4   2 12263.1 937.646   8
   1   4   3 88.5366 74.1293   2
  -1  -4  -3 150.039 78.6322   8
   1   4   3 395.506 164.621   6
   1   4   4 5158.05 750.998   6
  -1  -4  -4 5187.61 546.242   8
   1   4   4 4956.26 623.078   2
   1   4   5 191.132 133.028   2
  -1  -4  -5 264.025 132.435   8
   1   4   5 227.470 183.352   6
   1   4   6 3506.59 513.128   2
   1   4   6 4159.10 725.481   6
  -1  -4  -6 4417.60 476.564   8
   1   4   7 21494.9 1241.62   2
   1   4   7 21519.0 1727.54   6
  -1  -4  -7 22056.1 1041.59   8
   1   4   7 24788.8 1467.36   3
   1   4   8 7821.33 794.588   3
   1   4   8 7139.10 1045.53   6
  -1  -4  -8 7225.85 576.550   8
   1   4   8 8062.44 741.673   2
   1   4   9 419.831 180.929   2
  -1  -4  -9 767.008 338.213   9
  -1  -4  -9 586.582 153.079   8
   1   4   9 654.355 299.122   6
  -1  -4 -10 67.1717 37.3578   8
   1   4  10 36.4924 166.578   6
  -1  -4 -10 160.501 252.913   9
  -1  -4 -10 118.179 52.9037   8
   1   4  11 2871.79 737.719   6
  -1  -4 -11 2583.66 790.726   9
  -1  -4 -12-281.647 475.313   9
   1   4  12 1346.35 578.232   6
  -1  -4 -13 213.231 462.524   9
   1   4  13 504.257 428.816   6
   1   4  14 1401.15 568.484   6
  -1  -4 -14 1639.25 709.487   9
   1   4  15 809.427 547.070   6
  -1  -4 -15-132.551 375.154   9
   1   4  16-260.979 447.669   6
  -1  -4 -16 97.3763 284.530   9
  -1  -4 -17 67.9890 268.190   9
   1   4  17 273.228 300.694   6
  -1  -4 -18 912.233 680.455   9
  -1  -4 -18 1825.67 942.076   7
   1   5 -22-336.689 412.367   9
   1   5 -22 12.4410 147.380   7
   1   5 -21 47.4600 188.264   7
   1   5 -20 13079.0 2333.42   7
   1   5 -19 550.454 385.164   2
   1   5 -19 630.989 525.557   7
   1   5 -18 572.078 424.975   7
   1   5 -18-222.541 247.823   2
   1   5 -18 908.380 515.313   4
   1   5 -17-176.114 275.081   4
   1   5 -17-202.498 159.751   7
   1   5 -16 875.137 341.722   1
   1   5 -16 628.555 430.295   7
   1   5 -16 866.902 447.909   4
   1   5 -15 483.227 312.665   4
   1   5 -15 238.619 226.436   7
   1   5 -15 51.4773 89.8825   1
   1   5 -14 1243.74 298.755   5
   1   5 -14 956.375 483.122   7
   1   5 -14 1265.41 520.681   4
   1   5 -14 1255.47 408.973   1
   1   5 -13 2809.50 451.582   6
   1   5 -13 2401.39 390.139   5
  -1  -5  13 3440.37 759.517   8
   1   5 -13 3090.33 640.363   1
   1   5 -13 2266.98 685.754   7
   1   5 -13 3290.89 797.808   4
  -1  -5  12 363.923 217.832   8
   1   5 -12 471.170 190.113   6
   1   5 -12 245.341 183.469   1
   1   5 -12 397.125 308.807   4
   1   5 -12 56.9198 203.843   7
   1   5 -11-157.135 216.249   7
   1   5 -11 156.052 104.730   6
   1   5 -11 13.2242 156.598   4
   1   5 -10 27073.8 1406.68   6
  -1  -5  10 26883.4 1985.85   8
   1   5 -10 27114.0 1939.69   4
   1   5 -10 27212.0 2124.30   7
   1   5  -9 2461.73 556.995   4
  -1  -5   9 2920.54 608.371   8
   1   5  -9 4253.62 783.884   7
   1   5  -9 3975.43 548.838   6
  -1  -5   8 13000.9 1199.74   4
   1   5  -8 12691.2 1268.24   7
  -1  -5   8 14264.5 1353.36   8
  -1  -5   7 33734.2 2015.67   8
   1   5  -7 30534.0 1807.44   7
  -1  -5   7 32776.8 1871.81   4
  -1  -5   6 3969.33 678.542   8
  -1  -5   6 3342.79 561.001   4
   1   5  -6 4053.22 596.305   7
   1   5  -5-14.2658 86.6624   7
  -1  -5   5-117.573 229.383   8
  -1  -5   5-202.251 123.821   7
  -1  -5   4 13150.6 1178.47   8
  -1  -5   4 12956.7 859.963   7
  -1  -5   3 7664.06 602.215   7
  -1  -5   3 8970.09 931.702   8
  -1  -5   2 3592.22 577.222   8
   1   5  -1-35.8500 105.432   8
  -1  -5   1-100.049 128.830   8
  -1  -5   0 2347.39 450.539   8
   1   5   0 3426.44 550.240   6
   1   5   0 3739.81 589.842   8
   1   5   1 2931.96 551.388   6
  -1  -5  -1 3088.61 494.579   8
   1   5   1 3523.97 553.610   8
   1   5   2 40832.6 2072.44   6
  -1  -5  -2 35671.3 1617.01   8
   1   5   2 33170.4 1675.67   8
   1   5   3 2077.68 490.390   6
   1   5   3 2211.97 431.217   8
   1   5   3 2536.85 473.308   2
  -1  -5  -3 1954.01 373.456   8
   1   5   4 1840.87 525.145   6
  -1  -5  -4 2610.14 407.029   8
   1   5   4 2285.49 467.532   2
   1   5   5 4170.66 615.147   2
  -1  -5  -5 4103.40 480.773   8
   1   5   5 3858.88 754.407   6
   1   5   6 3080.59 492.014   2
  -1  -5  -6 3343.49 417.374   8
   1   5   6 3783.40 804.870   6
   1   5   7 233.145 168.310   6
   1   5   7 415.932 168.460   2
  -1  -5  -7 388.648 131.580   8
   1   5   8-33.7619 90.3936   2
   1   5   8 51.9448 205.337   6
  -1  -5  -8 117.715 62.0498   8
   1   5   8 375.501 231.742   3
   1   5   9-0.24107 132.045   3
  -1  -5  -9 30.3334 31.3627   8
   1   5   9-17.4471 53.4715   2
   1   5   9-120.333 173.639   6
   1   5  10-10.4733 319.919   6
   1   5  11 35.4622 159.335   6
  -1  -5 -12 567.438 551.100   9
   1   5  12 270.259 310.214   6
   1   5  13 85.1990 206.397   6
  -1  -5 -13 421.141 420.827   9
   1   5  14 3035.18 993.343   6
   1   5  15 2853.30 941.522   6
   1   5  16-511.327 327.843   6
   1   5  17 2165.04 850.924   6
   1   6 -22 1770.15 971.016   7
   1   6 -21 271.775 381.597   7
   1   6 -20 1771.45 911.107   7
   1   6 -19-466.614 451.594   7
   1   6 -19 37.3440 147.370   2
   1   6 -18 223.736 309.063   7
   1   6 -17 1992.26 589.242   1
   1   6 -17 1106.30 588.984   7
   1   6 -17 2958.35 844.776   4
   1   6 -16-85.7480 385.182   7
   1   6 -16 46.6504 176.414   1
   1   6 -16-72.5542 290.860   4
   1   6 -15 2958.41 786.342   4
   1   6 -15 2464.38 631.394   1
   1   6 -15 3583.56 1010.17   7
  -1  -6  14 238.518 336.230   8
   1   6 -14-22.4081 168.137   1
   1   6 -14 326.103 319.666   7
   1   6 -14 94.4185 187.718   4
   1   6 -13 6142.40 963.862   1
  -1  -6  13 4534.64 909.016   8
   1   6 -13 3796.78 500.896   6
   1   6 -13 6493.69 1065.69   4
   1   6 -13 4300.48 1023.24   7
   1   6 -12-53.6212 160.928   4
   1   6 -12 72.0753 78.0163   6
   1   6 -12-120.268 286.847   7
  -1  -6  12 131.208 287.372   8
   1   6 -11 5068.52 1002.31   7
   1   6 -11 4615.52 582.201   6
  -1  -6  11 4115.42 841.550   8
   1   6 -11 4804.52 844.955   4
  -1  -6  10-55.0532 137.482   8
   1   6 -10-41.0098 102.505   7
   1   6 -10-15.2867 124.769   6
   1   6  -9 6546.04 967.542   7
  -1  -6   9 5711.67 946.251   8
  -1  -6   9 6135.02 863.568   4
  -1  -6   8 10002.8 1092.70   4
  -1  -6   8 10787.9 1248.70   8
   1   6  -8 9863.06 1118.54   7
  -1  -6   7 38751.5 2332.41   8
   1   6  -7 38626.2 2033.20   7
  -1  -6   7 38611.9 2113.57   4
   1   6  -6 5229.79 689.609   7
  -1  -6   6 5650.50 866.598   8
  -1  -6   6 6195.50 739.607   7
  -1  -6   6 6108.56 830.225   4
  -1  -6   5 388.026 231.438   8
  -1  -6   5 301.620 170.340   7
  -1  -6   4 6826.62 662.637   7
  -1  -6   4 7728.66 957.486   8
  -1  -6   3 437.879 298.662   8
  -1  -6   2 11167.5 1080.43   8
   1   6  -1 1082.07 324.670   6
   1   6  -1 963.763 338.997   8
  -1  -6   1 1281.96 334.089   8
  -1  -6   0 533.935 246.530   8
   1   6   0 871.804 326.425   8
   1   6   0 331.100 143.475   6
   1   6   1 40139.2 2169.19   6
   1   6   1 37025.9 1944.16   8
  -1  -6  -1 37361.9 1829.74   8
   1   6   2 4086.17 719.900   6
   1   6   2 3626.48 602.794   8
  -1  -6  -2 3183.66 515.772   8
  -1  -6  -3 12636.9 986.862   8
   1   6   3 15067.0 1441.06   6
   1   6   3 13780.7 1144.87   8
   1   6   4 2433.10 504.624   2
   1   6   4 2359.09 576.229   6
  -1  -6  -4 2257.31 401.469   8
   1   6   5 100.302 116.446   6
  -1  -6  -5 381.553 158.482   8
   1   6   5 99.5218 83.8166   2
  -1  -6  -6 2845.11 405.312   8
   1   6   6 2579.50 702.838   6
   1   6   6 2752.92 512.899   2
   1   6   7 1563.95 561.678   6
  -1  -6  -7 740.797 189.977   8
   1   6   7 879.111 274.616   2
   1   6   8 1198.08 302.508   2
   1   6   8 1514.45 560.913   6
  -1  -6  -8 1496.87 230.629   8
   1   6   9 254.183 389.595   6
   1   6  10 7071.64 1255.80   6
   1   6  11 289.354 342.597   6
   1   6  12 1224.91 598.689   6
   1   6  13 1689.50 708.401   6
   1   6  14 4278.70 1197.10   6
   1   6  15 227.543 172.938   6
   1   6  16-354.696 373.597   6
   1   6  17 746.005 600.687   6
   1   7 -22 954.784 699.020   7
   1   7 -21 880.397 670.223   7
   1   7 -20 1188.63 631.558   2
   1   7 -20 242.130 456.274   7
   1   7 -19-177.091 287.666   7
   1   7 -18 876.386 548.435   7
   1   7 -17-57.9839 234.286   7
   1   7 -17 19.3933 139.664   1
   1   7 -16-146.932 159.478   4
   1   7 -16-293.302 266.783   7
   1   7 -16-34.9399 167.886   1
   1   7 -15 199.027 216.237   1
  -1  -7  15 157.819 174.525   8
   1   7 -15 173.921 200.127   4
   1   7 -15 228.453 285.671   7
   1   7 -14 421.962 315.274   7
   1   7 -14 1065.42 507.821   1
  -1  -7  14 410.466 230.706   8
   1   7 -13 295.491 319.028   7
  -1  -7  13-954.394 440.168   8
   1   7 -13-407.197 293.033   1
   1   7 -12-84.6379 232.618   7
   1   7 -12 29.6204 68.6980   6
  -1  -7  12 70.5762 129.499   8
  -1  -7  11 1795.97 581.784   8
   1   7 -11 1715.62 372.771   6
   1   7 -11 1688.72 557.059   7
   1   7 -10 505.885 261.684   7
  -1  -7  10-142.558 246.263   8
  -1  -7  10-104.265 221.117   4
  -1  -7   9 783.041 310.042   4
  -1  -7   9 1698.17 520.559   8
   1   7  -9 989.283 365.850   7
  -1  -7   8 2588.42 581.853   4
  -1  -7   8 2182.55 551.948   8
   1   7  -8 2086.63 488.434   7
  -1  -7   7 4837.02 784.658   4
  -1  -7   7 4285.79 859.516   8
  -1  -7   7 4240.68 667.713   7
  -1  -7   6-39.0041 52.1135   7
  -1  -7   6-153.669 178.020   8
  -1  -7   5 1117.13 420.314   8
  -1  -7   5 1100.50 312.248   7
  -1  -7   4 4452.10 796.386   8
  -1  -7   4 4223.87 563.079   7
  -1  -7   3 1906.36 485.559   8
  -1  -7   2 3772.77 666.763   8
   1   7  -2 2944.70 559.939   6
   1   7  -1 40417.1 2122.82   6
  -1  -7   1 39245.6 2094.57   8
  -1  -7   0 54188.4 2397.58   8
   1   7   0 55058.5 2616.19   6
   1   7   1 383.680 228.012   6
   1   7   1 99.6805 169.008   8
  -1  -7  -1 260.366 134.116   8
  -1  -7  -2 11396.0 1039.96   8
   1   7   2 12633.0 1340.58   6
   1   7   2 11452.8 1146.53   8
   1   7   3 317.578 176.413   8
   1   7   3 809.363 359.200   6
  -1  -7  -3 627.257 230.986   8
   1   7   4 4049.33 652.644   8
   1   7   4 4132.20 703.098   2
  -1  -7  -4 3723.48 551.054   8
   1   7   4 4200.78 845.983   6
   1   7   5-39.1581 231.172   6
   1   7   5-50.2272 102.736   2
  -1  -7  -5 23.9108 72.7238   8
   1   7   6 2165.23 626.613   6
   1   7   6 1790.86 426.641   2
  -1  -7  -6 3026.45 445.373   8
   1   7   7-18.7089 73.1996   2
  -1  -7  -7 166.620 109.534   8
   1   7   7 188.596 263.850   6
   1   7   8 246.293 130.082   6
  -1  -7  -8 220.500 99.0061   8
   1   7   9 2116.81 696.970   6
   1   7  10 1801.73 655.663   6
   1   7  11-1037.09 534.809   6
   1   7  12-911.047 522.441   6
   1   7  13 223.487 346.598   6
   1   7  14 2180.26 911.803   6
   1   7  15 611.690 344.492   6
   1   7  16 4531.21 1322.75   6
   1   7  17 1232.86 759.018   6
   1   7  18 311.078 169.748   6
   1   8 -22-149.560 398.256   7
   1   8 -21-224.549 328.452   7
   1   8 -21 488.471 406.524   2
   1   8 -20-217.427 326.792   7
   1   8 -20 132.840 232.616   2
   1   8 -19 213.746 244.650   7
   1   8 -18 252.464 313.388   7
   1   8 -18 589.529 365.795   1
   1   8 -17 428.262 285.821   1
   1   8 -17-74.8299 248.499   7
   1   8 -16 4376.44 936.665   1
   1   8 -16 3554.60 1063.31   7
   1   8 -15 7096.94 1185.71   1
  -1  -8  15 6795.97 1280.33   8
   1   8 -15 8631.71 1510.43   7
   1   8 -14 3998.31 1017.13   7
   1   8 -14 2210.69 683.305   1
  -1  -8  14 2359.37 737.764   8
   1   8 -13 3438.31 870.671   7
  -1  -8  13 2451.33 712.332   8
   1   8 -12 1508.97 568.568   7
  -1  -8  12 1786.57 608.313   8
   1   8 -12 650.212 228.141   6
   1   8 -11 462.821 351.352   7
  -1  -8  11 5.87459 135.718   8
   1   8 -10 8121.91 1143.69   7
  -1  -8  10 10177.7 1388.45   8
  -1  -8   9 7887.49 1196.09   8
   1   8  -9 7929.14 1068.68   7
  -1  -8   9 6840.87 990.914   4
  -1  -8   8 147.134 91.4977   4
  -1  -8   8 139.445 262.895   8
  -1  -8   8 199.897 85.6916   5
  -1  -8   7 1101.70 362.777   7
  -1  -8   7 966.290 503.119   8
  -1  -8   6 16357.8 1626.83   8
  -1  -8   6 14252.0 1188.76   7
  -1  -8   5 123.919 219.007   8
  -1  -8   5 301.815 174.662   7
   1   8  -4 92.1135 85.0958   6
  -1  -8   4 66.4759 124.276   8
  -1  -8   3 6982.16 973.788   8
   1   8  -3 7008.10 897.660   6
  -1  -8   2 3917.85 692.682   8
   1   8  -2 2896.01 628.612   6
  -1  -8   1 34420.6 2072.98   8
   1   8  -1 36886.6 2193.86   6
  -1  -8   0 1099.18 335.546   8
   1   8   0 444.490 138.243   6
   1   8   1 25127.5 1958.14   6
  -1  -8  -1 26703.0 1746.78   8
  -1  -8  -2 21536.8 1529.27   8
   1   8   2 24217.4 1973.49   6
  -1  -8  -3 3706.67 619.080   8
   1   8   3 4036.82 837.191   6
  -1  -8  -4 10558.4 984.726   8
   1   8   4 9058.86 1044.37   8
   1   8   4 10065.8 1392.80   6
  -1  -8  -5-24.0431 92.0777   8
   1   8   5 207.457 192.440   6
   1   8   6 812.065 429.521   6
  -1  -8  -6 450.548 176.408   8
   1   8   7 1167.91 473.311   6
  -1  -8  -7 708.509 212.212   8
   1   8   8 463.530 361.829   6
   1   8   9 3544.60 969.490   6
   1   8  10 4273.81 1067.68   6
   1   8  11 522.030 411.710   6
   1   8  12 1695.20 771.551   6
   1   8  13 5166.31 1315.72   6
   1   8  14 608.482 565.157   6
   1   8  15 1522.37 768.736   6
   1   8  16-534.434 492.366   6
   1   8  17 984.191 839.268   6
   1   9 -22 493.596 537.881   7
   1   9 -21 233.924 344.067   7
   1   9 -21 1336.68 718.657   2
   1   9 -20-55.9793 193.417   7
   1   9 -19 554.799 594.524   7
   1   9 -18 11.4970 142.046   7
   1   9 -18-80.8761 160.007   1
   1   9 -17 345.916 477.500   7
   1   9 -17-639.289 392.810   1
   1   9 -16 5133.84 1222.55   7
   1   9 -16 5476.20 1122.49   1
  -1  -9  15 3651.48 972.403   8
   1   9 -15 3966.63 1090.36   7
   1   9 -15 3376.27 875.158   1
   1   9 -14 652.091 443.567   1
  -1  -9  14 1125.07 567.907   8
   1   9 -14 1305.40 635.376   7
   1   9 -13 1186.06 536.896   7
  -1  -9  13 574.041 425.906   8
   1   9 -12 7952.12 1268.82   7
  -1  -9  12 6113.72 1164.28   8
   1   9 -11 2948.41 743.209   7
  -1  -9  11 1712.88 607.266   8
  -1  -9  10 10332.3 1474.35   8
  -1  -9   9 1346.52 529.728   8
  -1  -9   8 66.3014 196.047   8
  -1  -9   7 167.873 146.335   7
  -1  -9   7 132.001 232.708   8
   1   9  -6 1458.74 409.784   6
  -1  -9   6 1686.04 592.111   8
  -1  -9   6 1465.09 395.895   7
   1   9  -5 4130.00 674.610   6
  -1  -9   5 4350.88 877.696   8
  -1  -9   5 3416.09 587.610   7
  -1  -9   4 678.983 332.622   8
   1   9  -4 847.270 342.715   6
  -1  -9   3 1458.22 537.838   8
   1   9  -3 1635.59 475.793   6
   1   9  -2 36652.6 2257.09   6
  -1  -9   2 37087.8 2336.63   8
   1   9  -1 17360.4 1602.84   6
  -1  -9   1 15830.0 1495.90   8
   1   9   0 1604.78 530.374   6
  -1  -9   0 1375.82 441.807   8
   1   9   1 10283.4 1327.60   6
  -1  -9  -1 11563.5 1212.28   8
  -1  -9  -2 7961.70 978.576   8
   1   9   2 6745.86 1095.25   6
   1   9   3 17966.4 1853.07   6
  -1  -9  -3 17770.9 1408.77   8
   1   9   4-132.862 319.479   6
  -1  -9  -4 162.772 71.5015   8
  -1  -9  -5 279.987 172.903   8
   1   9   5 735.945 473.395   6
  -1  -9  -6 8.01273 62.5091   8
   1   9   6 405.169 378.520   6
   1   9   7 1098.21 562.085   6
   1   9   8 1349.14 612.483   6
   1   9   9 4895.40 1153.54   6
   1   9  10 260.366 378.605   6
   1   9  11-65.9524 364.324   6
   1   9  12 1121.84 676.719   6
   1   9  13 723.376 568.260   6
   1   9  14-175.854 291.776   6
   1   9  15 1098.94 766.562   6
   1   9  16 315.156 477.730   6
   1  10 -22 1099.61 671.656   2
   1  10 -22-759.856 594.357   7
   1  10 -21 571.937 560.679   7
   1  10 -20-139.516 252.916   7
   1  10 -19-224.812 168.316   7
   1  10 -19 632.142 452.569   1
   1  10 -18-112.971 225.136   7
   1  10 -18-595.057 401.526   1
   1  10 -17 712.852 448.719   7
   1  10 -17 155.111 116.319   1
   1  10 -16 5181.55 1235.93   7
   1  10 -16 3737.50 963.238   1
  -1 -10  16 3033.11 914.018   8
   1  10 -15 298.255 350.869   1
  -1 -10  15-179.525 188.204   8
   1  10 -15 87.1222 120.035   7
  -1 -10  14 6906.23 1359.96   8
   1  10 -14 7448.14 1363.14   7
   1  10 -14 6825.19 1255.12   1
  -1 -10  13 1220.57 533.784   8
   1  10 -13 1891.94 651.177   7
   1  10 -12 9726.42 846.568   6
  -1 -10  12 11386.4 1672.66   8
   1  10 -11 1381.62 358.573   6
  -1 -10  11 1862.02 650.905   8
  -1 -10  10 725.986 383.672   8
   1  10 -10 340.126 203.075   6
  -1 -10   9 439.333 290.215   8
   1  10  -9-86.5960 123.302   6
  -1 -10   8 1007.76 430.992   8
   1  10  -8 1248.59 359.880   6
   1  10  -7 280.595 194.052   6
  -1 -10   7-163.006 265.161   8
  -1 -10   7 246.398 188.185   7
  -1 -10   6 4583.71 730.860   7
  -1 -10   6 5475.58 1021.19   8
   1  10  -6 5163.98 796.304   6
  -1 -10   5 27.8259 101.103   7
  -1 -10   5-10.4397 199.604   8
   1  10  -5-152.272 141.903   6
  -1 -10   4 256.382 230.789   8
   1  10  -4-62.0657 141.504   6
   1  10  -3 12357.2 1355.53   6
  -1 -10   3 14444.4 1561.85   8
  -1 -10   2 13840.0 1504.22   8
   1  10  -2 12499.9 1411.06   6
  -1 -10   1 1330.99 481.685   8
   1  10  -1 361.939 222.577   6
   1  10   0 393.969 280.841   6
  -1 -10   0 209.177 175.415   8
  -1 -10  -1 2118.26 562.394   8
   1  10   1 2728.88 711.654   6
   1  10   2 425.130 319.009   6
  -1 -10  -2-124.644 136.444   8
  -1 -10  -3 748.818 358.113   8
   1  10   3 606.681 379.763   6
  -1 -10  -4 2074.25 493.483   8
   1  10   4 1911.88 636.196   6
   1  10   5 1522.17 591.651   6
  -1 -10  -5 795.164 317.291   8
   1  10   6 956.188 541.319   6
  -1 -10  -6 641.367 239.768   8
   1  10   7-147.775 456.405   6
   1  10   8 6260.41 1333.20   6
   1  10   9-136.002 247.378   6
   1  10  10-398.368 287.960   6
   1  10  11-868.112 565.884   6
   1  10  12 29.3038 197.842   6
   1  10  13 228.995 187.327   6
   1  10  14-1.18165 148.099   6
   1  10  15 219.806 464.863   6
   1  11 -22-831.444 632.967   7
   1  11 -22 265.048 400.602   2
   1  11 -21-375.115 415.443   7
   1  11 -20 454.298 474.777   7
   1  11 -19-703.347 512.070   7
   1  11 -19-42.1137 152.192   1
   1  11 -18-124.426 235.829   7
   1  11 -18-140.582 297.337   1
   1  11 -17 456.002 363.445   1
   1  11 -17 359.397 351.050   7
  -1 -11  16 262.909 281.897   8
   1  11 -16 123.010 284.726   7
   1  11 -16 199.954 251.233   1
  -1 -11  15-258.040 341.927   8
   1  11 -15 214.282 191.153   1
  -1 -11  14 735.477 379.457   8
   1  11 -14 795.136 456.467   1
  -1 -11  13 4268.88 1091.00   8
   1  11 -12 240.343 184.275   6
  -1 -11  12 888.770 561.192   8
  -1 -11  11 6.76491 177.279   8
   1  11 -11 348.951 201.748   6
  -1 -11  10-78.6999 438.690   8
   1  11 -10 253.699 182.784   6
  -1 -11   9 1593.87 525.726   8
   1  11  -9 2094.55 494.706   6
  -1 -11   8 2380.50 718.399   8
   1  11  -8 2994.01 617.490   6
   1  11  -7 3641.74 693.698   6
  -1 -11   7 2208.63 674.148   8
  -1 -11   6 219.607 153.997   7
  -1 -11   6-48.4420 293.681   8
   1  11  -6 145.917 134.102   6
  -1 -11   5 7173.90 944.842   7
   1  11  -5 5736.46 925.994   6
  -1 -11   5 8395.63 1294.88   8
   1  11  -4 2091.75 620.074   6
  -1 -11   4 3443.62 857.473   8
   1  11  -3 1790.88 605.161   6
  -1 -11   3 951.047 398.767   8
   1  11  -2 9077.46 1276.01   6
  -1 -11   2 8992.81 1253.68   8
  -1 -11   1 3612.69 780.401   8
   1  11  -1 3787.42 850.154   6
   1  11   0-258.297 369.270   6
  -1 -11   0-256.918 299.373   8
   1  11   1 2034.76 625.341   6
  -1 -11  -1 1839.51 517.491   8
   1  11   2 439.380 332.497   6
  -1 -11  -2 731.014 383.532   8
  -1 -11  -3 823.204 351.270   8
   1  11   3 559.358 357.138   6
  -1 -11  -4 2157.71 521.593   8
   1  11   4 2608.80 870.897   6
   1  11   5 239.389 301.431   6
  -1 -11  -5 78.6703 66.1914   8
   1  11   6 277.094 422.644   6
   1  11   7 376.544 439.353   6
   1  11   8-13.9471 268.800   6
   1  11   9 472.719 440.313   6
   1  11  10 271.341 443.677   6
   1  11  11-2.12733 235.604   6
   1  11  12 1060.12 738.720   6
   1  11  13-240.371 354.185   6
   1  12 -21 24.6094 188.168   7
   1  12 -20 21.8307 150.426   7
   1  12 -19 278.215 397.548   1
   1  12 -18-318.778 333.580   1
   1  12 -17 797.895 424.455   1
  -1 -12  16-1436.40 684.213   8
   1  12 -16 347.465 319.192   1
   1  12 -15 4033.57 1102.78   1
  -1 -12  15 3029.85 1015.28   8
   1  12 -14-103.452 210.783   1
  -1 -12  14 564.691 386.982   8
  -1 -12  13 4449.45 1138.74   8
  -1 -12  12 1021.56 494.077   8
   1  12 -11 41.7759 117.690   6
  -1 -12  11 587.609 371.481   8
  -1 -12  10 2806.42 858.468   8
   1  12 -10 3063.55 611.131   6
   1  12  -9 1900.04 507.646   6
  -1 -12   9 1045.65 526.993   8
   1  12  -8 5620.06 883.336   6
  -1 -12   8 5048.07 1090.89   8
  -1 -12   7-13.9117 220.040   8
   1  12  -7 24.7121 172.392   6
   1  12  -6 2133.10 627.101   6
  -1 -12   6 1445.75 517.929   8
   1  12  -5 6101.30 998.668   6
  -1 -12   5 6709.77 1199.43   8
  -1 -12   4-141.963 362.142   8
   1  12  -4-265.467 325.233   6
   1  12  -3 701.955 340.121   6
  -1 -12   3 685.395 354.797   8
  -1 -12   2 1124.38 456.184   8
   1  12  -2 1118.29 456.358   6
  -1 -12   1 2179.80 630.046   8
   1  12  -1 2051.60 642.374   6
   1  12   0 10177.3 1515.36   6
  -1 -12   0 9138.98 1276.28   8
   1  12   1 1008.34 513.347   6
  -1 -12  -1 2063.66 600.442   8
   1  12   2 626.886 284.023   6
  -1 -12  -2 783.919 365.980   8
  -1 -12  -3 4010.16 778.342   8
   1  12   3 1900.97 680.858   6
  -1 -12  -4-0.38749 108.818   8
   1  12   4 588.914 585.870   6
   1  12   5 262.904 310.661   6
   1  12   6 17.7468 307.236   6
   1  12   7 1059.86 687.813   6
   1  12   8 55.6630 292.939   6
   1  12   9 1722.66 801.618   6
   1  12  10-195.767 219.851   6
   1  12  11 820.667 551.617   6
   1  12  12 442.245 587.887   6
   1  13 -20-111.266 227.434   1
   1  13 -19 230.975 393.762   1
   1  13 -18-80.2621 239.074   1
   1  13 -17 803.343 615.662   1
   1  13 -16 113.527 225.867   1
  -1 -13  16 196.127 276.307   8
   1  13 -15 166.236 342.409   1
  -1 -13  15 220.109 228.538   8
  -1 -13  14 406.757 390.756   8
   1  13 -14 1358.44 645.878   1
  -1 -13  13 7612.37 1535.60   8
  -1 -13  12 2984.35 883.321   8
  -1 -13  11 2210.93 784.540   8
   1  13 -11 1358.00 417.154   6
  -1 -13  10 891.369 455.406   8
   1  13 -10 321.940 202.294   6
   1  13  -9 447.357 256.572   6
  -1 -13   9 617.666 429.585   8
  -1 -13   8 555.286 436.770   8
   1  13  -8 112.478 237.368   6
  -1 -13   7 521.006 312.117   8
   1  13  -7 165.766 164.268   6
  -1 -13   6 265.235 144.214   8
   1  13  -6 13.7972 102.376   6
  -1 -13   5 779.993 411.371   8
   1  13  -5 310.401 141.119   6
  -1 -13   4 2102.82 689.147   8
   1  13  -4 3914.47 883.674   6
  -1 -13   3 254.114 218.542   8
   1  13  -3 50.2596 147.058   6
   1  13  -2 28.6637 233.724   6
  -1 -13   2-1.72615 333.646   8
  -1 -13   1 3461.17 846.544   8
   1  13  -1 3248.61 891.774   6
  -1 -13   0 3192.82 805.078   8
   1  13   0 2566.73 829.464   6
  -1 -13  -1 386.141 221.445   8
   1  13   1-33.3937 170.132   6
   1  13   2 261.385 555.068   6
  -1 -13  -2 318.705 306.417   8
  -1 -13  -3 4147.99 832.170   8
   1  13   3 4970.87 1186.97   6
   1  13   4 3222.76 932.241   6
   1  13   5 1275.57 565.398   6
   1  13   6 398.178 170.287   6
   1  13   7 1058.16 593.316   6
   1  13   8 1852.68 871.686   6
   1  13   9 515.933 355.940   6
   1  13  10-225.234 346.256   6
   1  14 -20 30.4186 156.538   1
   1  14 -19-64.3798 188.541   1
   1  14 -18 433.277 448.547   1
   1  14 -17-461.069 418.434   1
   1  14 -16-371.870 377.325   1
   1  14 -15 193.880 410.722   1
  -1 -14  15-783.326 539.540   8
  -1 -14  14 743.589 533.757   8
   1  14 -14 636.288 461.954   1
  -1 -14  13-348.286 338.833   8
  -1 -14  12-211.645 156.048   8
  -1 -14  11 310.658 302.568   8
   1  14 -10 255.487 235.503   6
  -1 -14  10 599.189 461.513   8
  -1 -14   9 819.347 504.765   8
   1  14  -9 434.115 264.243   6
   1  14  -8-164.298 183.255   6
  -1 -14   8 462.044 434.714   8
   1  14  -7 897.917 388.893   6
  -1 -14   7 926.330 579.190   8
   1  14  -6-386.781 229.471   6
  -1 -14   6-149.461 222.521   8
   1  14  -5 377.487 304.189   6
  -1 -14   5 1566.70 674.607   8
   1  14  -4 1188.55 475.197   6
  -1 -14   4 1377.26 549.359   8
   1  14  -3 4162.02 961.232   6
  -1 -14   3 3747.39 969.400   8
  -1 -14   2 5134.96 1084.85   8
   1  14  -2 3431.22 966.627   6
  -1 -14   1-78.5838 190.498   8
   1  14  -1 277.502 255.090   6
  -1 -14   0 233.650 174.065   8
   1  14   0 328.562 366.713   6
   1  14   1 106.912 362.342   6
  -1 -14  -1-92.2618 277.663   8
   1  14   2 6918.98 1441.33   6
  -1 -14  -2 4685.15 942.851   8
   1  14   3 2645.65 918.115   6
   1  14   4 208.656 272.850   6
   1  14   5 378.029 367.257   6
   1  14   6 1744.33 787.163   6
   1  14   7 2692.73 1078.59   6
   1  14   8 2485.37 1020.21   6
   1  14   9 265.211 618.510   6
   1  15 -20-262.962 342.847   1
   1  15 -19 325.503 376.225   1
   1  15 -18-582.234 488.975   1
   1  15 -17-56.5785 200.473   1
   1  15 -16-710.443 520.738   1
   1  15 -15 95.0721 318.386   1
  -1 -15  15 526.491 334.819   8
  -1 -15  14 240.662 471.357   8
   1  15 -14 481.589 430.478   1
  -1 -15  13 59.8339 281.625   8
   1  15 -13 121.127 303.551   1
  -1 -15  12 1451.16 815.053   8
  -1 -15  11 707.971 469.606   8
  -1 -15  10-227.649 473.826   8
   1  15 -10-82.6840 103.997   6
   1  15  -9 687.939 368.651   6
  -1 -15   9 408.477 360.937   8
  -1 -15   8-995.233 555.980   8
   1  15  -8 84.7157 219.076   6
  -1 -15   7 613.559 458.610   8
   1  15  -7 304.286 216.403   6
   1  15  -6 3624.93 928.217   6
  -1 -15   6 4053.02 1088.65   8
  -1 -15   5 237.448 273.883   8
   1  15  -5-6.49650 156.406   6
   1  15  -4 6310.78 1228.92   6
  -1 -15   4 5178.33 1159.11   8
  -1 -15   3 1948.21 695.845   8
   1  15  -3 1967.89 701.308   6
   1  15  -2 1801.28 738.051   6
  -1 -15   2 3041.36 850.754   8
  -1 -15   1 121.012 184.489   8
   1  15  -1-68.4948 378.304   6
  -1 -15   0 636.853 374.593   8
   1  15   0 1522.74 671.520   6
   1  15   1 1771.54 822.108   6
  -1 -15  -1 1295.85 528.122   8
   1  15   2 1956.78 717.514   6
   1  15   3-215.455 191.936   6
   1  15   4 770.143 529.375   6
   1  15   5 1884.21 780.279   6
   1  15   6 1656.96 798.548   6
   1  15   7 241.027 396.442   6
   1  16 -19 634.917 518.472   1
   1  16 -18-651.691 529.039   1
   1  16 -17 25.8956 158.191   1
   1  16 -16 307.607 393.697   1
   1  16 -15 120.842 211.031   1
  -1 -16  15-358.951 392.230   8
   1  16 -14 1832.46 928.309   1
  -1 -16  14 308.465 265.235   8
   1  16 -13 2953.19 1103.31   1
  -1 -16  13 2110.63 848.738   8
  -1 -16  12 1742.89 824.715   8
  -1 -16  11 685.678 425.519   8
  -1 -16  10 144.996 502.524   8
  -1 -16   9-66.1488 177.733   8
   1  16  -9-147.617 195.862   6
  -1 -16   8 58.0353 230.846   8
   1  16  -8 104.914 177.624   6
  -1 -16   7 163.845 365.361   8
   1  16  -7-331.687 345.695   6
  -1 -16   6 239.806 423.795   8
   1  16  -6 576.050 467.133   6
   1  16  -5 3047.30 947.542   6
  -1 -16   5 3916.93 1083.53   8
  -1 -16   4 4976.84 1167.57   8
   1  16  -4 5771.52 1257.44   6
  -1 -16   3 43.7380 162.350   8
   1  16  -3 433.727 514.897   6
   1  16  -2 155.645 410.497   6
  -1 -16   2-641.570 421.161   8
  -1 -16   1-226.769 116.956   8
   1  16  -1-46.8454 294.060   6
  -1 -16   0 155.203 276.169   8
   1  16   0-413.574 384.037   6
   1  16   1 29.5112 324.313   6
   1  16   2 46.8928 362.554   6
   1  16   3 2355.53 956.826   6
   1  16   4-151.403 374.996   6
   1  16   5 258.083 404.269   6
   1  17 -16 178.923 147.755   1
   1  17 -15 407.984 441.466   1
  -1 -17  14 992.113 749.911   8
   1  17 -14 1148.83 812.728   1
  -1 -17  13 1674.26 849.943   8
   1  17 -13 863.658 574.748   1
  -1 -17  12 393.131 401.644   8
   1  17 -12 202.076 325.299   1
  -1 -17  11 560.893 539.279   8
  -1 -17  10 626.932 423.569   8
  -1 -17   9-44.7430 294.254   8
  -1 -17   8 187.083 285.066   8
   1  17  -8 61.5714 178.566   6
  -1 -17   7 882.689 611.651   8
   1  17  -7 103.870 235.650   6
   1  17  -6 1355.71 617.762   6
  -1 -17   6 718.384 400.042   8
  -1 -17   5 394.906 289.375   8
   1  17  -5 763.625 468.533   6
  -1 -17   4 434.736 433.145   8
   1  17  -4 330.218 274.337   6
  -1 -17   3 2134.83 795.923   8
   1  17  -3 1673.09 700.737   6
  -1 -17   2 200.756 247.028   8
   1  17  -2 204.959 441.857   6
  -1 -17   1-53.9626 162.972   8
   1  17  -1 308.801 205.015   6
   1  17   0 724.349 573.799   6
   1  17   1 536.948 401.936   6
   1  17   2 564.672 620.899   6
   1  17   3 675.500 631.665   6
   1  18 -13 228.261 341.438   1
   1  18 -12 588.490 551.080   1
  -1 -18  12 519.716 573.320   8
  -1 -18  11-83.8199 244.649   8
   1  18 -11 554.873 560.221   1
   1  18 -10 1464.63 938.149   1
  -1 -18  10-7.50377 330.045   8
  -1 -18   9 1823.85 875.256   8
  -1 -18   8-791.329 553.929   8
   1  18  -8-221.696 263.021   6
  -1 -18   7 5602.21 1456.62   8
   1  18  -7 3941.07 1062.60   6
  -1 -18   6 1911.86 835.375   8
   1  18  -6 2276.25 818.180   6
   1  18  -5 330.935 295.421   6
  -1 -18   5 395.468 348.015   8
   1  18  -4 1631.50 727.840   6
  -1 -18   4 602.392 553.601   8
   1  18  -3-92.6494 227.449   6
  -1 -18   3-241.951 300.366   8
  -1 -18   2 234.705 316.367   8
   1  18  -2 505.642 444.907   6
   1  18  -1 83.6325 291.688   6
   1  18   0 1420.06 840.562   6
   1  18   1-443.536 454.281   6
   1  18   1-141.544 243.893   1
  -1 -19  10 2190.02 894.855   8
  -1 -19   9-376.704 415.536   8
  -1 -19   8 4856.35 1395.17   8
   1  19  -8 4277.55 1374.59   1
   1  19  -7-551.520 433.982   6
  -1 -19   7 254.465 374.516   8
   1  19  -7 960.882 856.103   1
  -1 -19   6-309.718 365.500   8
   1  19  -6 31.6612 184.833   1
   1  19  -5 370.559 276.181   6
  -1 -19   5 512.182 496.539   8
   1  19  -5 496.293 592.841   1
   1  19  -4-472.540 429.096   6
   1  19  -4 170.885 356.782   1
   1  19  -3 473.294 532.617   6
   1  19  -3 89.6147 301.326   1
   1  19  -2-329.711 387.783   6
   1  19  -2-130.189 245.075   1
   1  19  -1-80.9755 214.168   1
   1  19   0 1.09615 162.537   1
   1  20  -6 1646.96 843.044   6
   1  20  -5-369.112 402.109   6
   1  20  -4 1426.91 846.781   6
  -2  20  -2 1.22834 222.389   1
  -2  20  -3 1221.68 769.670   6
  -2  20  -4 865.120 727.986   6
  -2  19   0-29.9484 169.803   1
  -2  19   0-218.266 351.256   6
  -2  19  -1 513.944 502.555   6
  -2  19  -1-32.5320 167.622   1
  -2  19  -2 4264.59 1379.54   6
  -2  19  -2 3029.70 1150.88   1
  -2  19  -3 2337.99 993.093   6
  -2  19  -3 471.011 441.986   1
  -2  19  -4 660.617 558.490   6
  -2  19  -4-199.182 409.494   1
  -2  19  -5-168.875 295.796   1
  -2  19  -5 53.8518 166.797   6
  -2  19  -6 1.19185 459.305   1
  -2  19  -7 418.269 521.772   1
  -2  19  -8 600.184 426.177   1
  -2  19  -9 58.8010 118.379   1
  -2  18   2 2431.56 1130.30   6
  -2  18   1-186.190 317.377   6
  -2  18   1 374.612 476.597   1
  -2  18   0 668.638 601.766   6
  -2  18   0-297.284 341.715   1
  -2  18  -1 3191.70 1208.68   6
  -2  18  -1 2490.27 1020.71   1
  -2  18  -2-14.9014 159.006   6
  -2  18  -2-1.04634 286.543   1
  -2  18  -3 2959.70 1095.09   6
  -2  18  -3 915.961 600.859   1
  -2  18  -4 2093.91 857.347   6
  -2  18  -4 261.574 339.454   1
  -2  18  -5 51.5080 164.223   6
  -2  18  -5 430.239 433.705   1
  -2  18  -6-53.5176 274.087   6
  -2  18  -6 606.238 524.451   1
  -2  18  -7 893.850 679.678   1
  -2  18  -8-389.269 413.794   1
  -2  18  -9 550.905 479.343   1
  -2  18 -10 297.330 375.692   1
  -2  18 -11 402.435 572.218   1
  -2  18 -12 1007.03 722.261   1
  -2  18 -13 1177.64 700.607   1
  -2  17   4 560.018 724.508   6
  -2  17   3 3267.47 1196.32   6
  -2  17   2 299.527 590.756   6
  -2  17   2 57.0094 171.831   1
  -2  17   1-353.761 408.684   6
  -2  17   1-247.127 252.572   1
  -2  17   0 442.266 355.473   6
  -2  17   0 191.530 286.999   1
  -2  17  -1-206.036 360.047   1
  -2  17  -1 887.251 534.211   6
  -2  17  -2 1421.74 719.456   6
  -2  17  -2 2268.05 912.380   1
  -2  17  -3 190.422 280.377   6
  -2  17  -3 0.97766 251.581   1
  -2  17  -4 1545.11 686.650   6
  -2  17  -4 1471.14 730.241   1
  -2  17  -5 365.976 422.496   6
  -2  17  -5 34.0680 182.606   1
  -2  17  -6 1853.15 676.274   6
  -2  17  -6 2767.99 995.822   1
  -2  17  -7-315.606 363.990   1
  -2  17  -7 202.990 266.929   6
  -2  17  -8 284.880 326.542   1
  -2  17  -9 610.525 439.635   1
  -2  17 -10 249.064 444.337   1
  -2  17 -11 560.102 432.417   1
  -2  17 -12 105.206 349.878   1
  -2  17 -13 895.166 671.936   1
  -2  17 -14-218.419 343.955   1
  -2  17 -15-357.614 423.744   1
  -2  17 -16 81.0872 146.935   1
  -2  16   5 211.141 452.422   6
  -2  16   4 3065.27 1217.63   6
  -2  16   3 4875.59 1180.87   1
  -2  16   3 486.292 653.590   6
  -2  16   2-102.950 196.700   1
  -2  16   2 33.3259 282.009   6
  -2  16   1 809.553 527.573   6
  -2  16   1 1461.68 659.320   1
  -2  16   0-96.2250 295.926   6
  -2  16   0-29.4383 148.827   1
  -2  16  -1 501.112 540.788   6
  -2  16  -1-253.000 296.827   1
  -2  16  -2-81.1184 465.676   6
  -2  16  -2 453.007 445.051   1
  -2  16  -3 2217.50 800.791   6
  -2  16  -3 3310.20 1106.66   1
  -2  16  -4 77.9068 403.861   6
  -2  16  -4 133.164 189.759   1
  -2  16  -5 3078.21 904.937   6
  -2  16  -5 4003.74 1156.58   1
  -2  16  -6 680.927 376.649   6
  -2  16  -6-110.130 248.374   1
  -2  16  -7 1029.95 512.790   6
  -2  16  -7 1365.62 652.479   1
  -2  16  -8 593.216 415.631   6
  -2  16  -8 549.089 448.650   1
  -2  16  -9 2282.36 997.352   1
  -2  16 -10 2616.14 956.069   1
  -2  16 -11 364.726 462.768   1
  -2  16 -12-779.467 563.831   1
  -2  16 -13 1619.90 778.805   1
  -2  16 -14-395.474 426.729   1
  -2  16 -15 372.309 538.436   1
  -2  16 -16 466.910 515.548   2
  -2  16 -16 214.519 396.417   1
  -2  16 -17 522.339 550.477   1
  -2  16 -18-173.081 310.386   1
  -2  15   7-676.782 584.163   6
  -2  15   6 1105.47 652.089   6
  -2  15   5 1433.78 758.550   6
  -2  15   4 4532.85 1351.87   6
  -2  15   3-52.3440 157.466   1
  -2  15   3-129.558 278.012   6
  -2  15   2 2132.26 816.083   1
  -2  15   2 1049.89 661.141   6
  -2  15   1 81.3196 160.668   6
  -2  15   1 744.370 519.969   1
  -2  15   0 121.129 159.042   6
  -2  15   0 562.914 427.554   1
  -2  15  -1-311.614 375.368   1
  -2  15  -1-170.679 359.612   6
  -2  15  -2 1415.69 667.933   1
  -2  15  -2 1548.30 700.530   6
  -2  15  -3-229.028 303.992   1
  -2  15  -3-170.336 302.559   6
  -2  15  -4 5697.30 1331.68   1
  -2  15  -4 6507.24 1271.74   6
  -2  15  -5-167.170 292.857   6
  -2  15  -5-374.501 430.998   1
  -2  15  -6 670.079 486.795   1
  -2  15  -6 85.5095 144.022   6
  -2  15  -7 2332.81 718.404   6
  -2  15  -7 2346.45 838.738   1
  -2  15  -8-315.326 429.005   1
  -2  15  -8 517.250 400.888   6
  -2  15  -9 3783.08 1107.08   1
  -2  15 -10 1804.73 802.124   1
  -2  15 -11 1915.58 870.273   1
  -2  15 -12 887.154 461.217   1
  -2  15 -13 837.914 823.121   1
  -2  15 -14 791.498 584.033   1
  -2  15 -15 2408.10 1000.51   1
  -2  15 -16 1133.68 732.720   1
  -2  15 -16 3571.77 1233.28   2
  -2  15 -17 21.6317 323.794   1
  -2  15 -17 411.174 519.386   2
  -2  15 -18 1403.31 813.181   1
  -2  15 -18 2250.01 1087.44   2
  -2  14   9-143.045 304.696   6
  -2  14   8 1284.31 721.192   6
  -2  14   7 910.382 677.801   6
  -2  14   6 3596.71 1283.06   6
  -2  14   5 2503.82 960.965   6
  -2  14   4 62.5061 148.748   1
  -2  14   4-585.971 477.846   6
  -2  14   3-59.5511 430.319   6
  -2  14   3 443.552 384.146   1
  -2  14   2 532.540 306.540   6
  -2  14   2 1667.81 631.703   1
  -2  14   1-435.010 438.545   1
  -2  14   1 184.310 165.623   6
  -2  14   0-198.827 299.002   6
  -2  14   0 302.322 395.065   1
  -2  14  -1-141.861 346.443   1
  -2  14  -1-63.8821 138.038   6
  -2  14  -2 191.598 409.642   6
  -2  14  -2-165.244 307.779   1
  -2  14  -3 3526.37 945.970   1
  -2  14  -3 2672.28 878.365   6
  -2  14  -4 2264.14 868.947   1
  -2  14  -4 2231.56 706.306   6
  -2  14  -5 4152.84 1010.64   6
  -2  14  -5 3908.05 1058.34   1
  -2  14  -6 14863.6 1771.78   6
  -2  14  -6 12097.7 1857.60   1
  -2  14  -7 316.187 549.332   1
  -2  14  -7 775.146 408.056   6
  -2  14  -8 4307.31 892.469   6
  -2  14  -8 4192.55 1114.22   1
  -2  14  -9 43.2284 195.678   6
  -2  14  -9 1469.16 646.646   1
  -2  14 -10-176.890 334.898   1
  -2  14 -11-327.512 386.668   1
  -2  14 -12 2406.72 877.312   1
  -2  14 -13-84.1338 443.165   1
  -2  14 -14 65.4621 397.778   1
  -2  14 -15 2940.55 1055.64   1
  -2  14 -16 711.614 615.336   2
  -2  14 -16 568.265 507.741   1
  -2  14 -17 4949.97 1459.10   2
  -2  14 -17 6384.54 1604.14   1
  -2  14 -18-577.210 486.732   1
  -2  14 -18-322.462 411.207   2
  -2  14 -19-390.411 449.767   2
  -2  13  10 344.190 394.116   6
  -2  13   9 2640.23 1103.43   6
  -2  13   8 1260.64 655.851   6
  -2  13   7 1078.75 573.669   6
  -2  13   6 695.437 555.500   6
  -2  13   5 1749.83 759.638   6
  -2  13   5 1167.35 518.024   1
  -2  13   4 4374.90 1162.83   6
  -2  13   4 5802.40 1130.65   1
  -2  13   3 567.084 336.594   1
  -2  13   3 1867.47 777.869   6
  -2  13   2 1495.59 666.530   6
  -2  13   2 802.235 439.726   1
  -2  13   1 520.871 193.638   6
  -2  13   1 285.419 198.567   1
  -2  13   0 1870.64 790.294   6
  -2  13   0 1639.72 676.640   1
  -2  13  -1 3511.01 941.295   1
  -2  13  -1 1228.10 543.042   6
  -2  13  -2 3533.18 895.815   6
  -2  13  -2 3837.37 979.481   1
  -2  13  -3 1047.31 560.324   1
  -2  13  -3 982.118 482.766   6
  -2  13  -4 42.5656 142.973   6
  -2  13  -4-52.0076 358.156   1
  -2  13  -5 28130.3 2713.05   1
  -2  13  -5 30792.6 2458.55   6
  -2  13  -6 1720.39 610.618   6
  -2  13  -6 1688.81 659.646   1
  -2  13  -7-230.438 271.891   1
  -2  13  -7-155.256 236.664   6
  -2  13  -8 563.886 388.103   1
  -2  13  -8 493.414 269.728   6
  -2  13  -9 1191.29 422.263   6
  -2  13  -9 391.188 385.611   1
  -2  13 -10-83.7769 176.770   1
  -2  13 -11 148.284 465.069   1
  -2  13 -12 4111.89 1115.88   1
  -2  13 -13 431.087 406.759   1
  -2  13 -14 431.315 385.115   1
  -2  13 -15-89.1923 217.055   1
  -2  13 -16 3357.60 1151.16   2
  -2  13 -16 3137.29 1093.04   1
  -2  13 -17-253.207 324.906   1
  -2  13 -17 955.499 720.184   2
  -2  13 -18-171.012 210.326   2
  -2  13 -19-898.700 638.206   2
  -2  13 -20-206.459 344.549   2
  -2  12  12 3205.20 1244.17   6
  -2  12  11-370.911 432.520   6
  -2  12  10 2478.30 1049.02   6
  -2  12   9 4331.80 1312.63   6
  -2  12   8 3262.09 1110.04   6
  -2  12   7 1739.50 827.028   6
  -2  12   6 254.813 424.406   6
  -2  12   5 1312.95 675.691   6
  -2  12   5 1369.00 504.681   1
  -2  12   4 1954.63 793.500   6
  -2  12   4 1727.92 589.559   1
  -2  12   3 392.175 312.347   1
  -2  12   3 715.503 529.184   6
  -2  12   2 1564.98 620.031   6
  -2  12   2 2148.36 679.089   1
  -2  12   1-83.8341 205.281   6
  -2  12   1-219.403 247.327   1
  -2  12   0 3503.65 922.462   6
  -2  12   0 4306.90 981.639   1
  -2  12  -1-95.2479 183.064   6
  -2  12  -1 792.894 495.251   1
  -2  12  -2 1882.25 654.628   1
  -2  12  -2 1672.64 562.940   6
  -2  12  -3 2214.63 746.187   1
  -2  12  -3 2067.57 641.844   6
  -2  12  -4 5769.72 1034.92   6
  -2  12  -4 7686.97 1338.48   1
  -2  12  -5 6466.87 1240.76   1
  -2  12  -5 5396.06 968.297   6
  -2  12  -6 1501.02 472.933   6
  -2  12  -6 1232.85 577.992   1
  -2  12  -7 3893.66 755.545   6
  -2  12  -7 3826.75 1022.76   1
  -2  12  -8 394.820 285.191   6
  -2  12  -8-42.8688 280.731   1
  -2  12  -9 2022.60 497.873   6
  -2  12  -9 1926.84 730.533   1
  -2  12 -10 1344.67 385.956   6
  -2  12 -10 590.903 450.993   1
  -2  12 -11 452.255 484.476   1
  -2  12 -12 3202.01 949.890   1
  -2  12 -13 1651.61 680.824   1
  -2  12 -14 1872.75 680.061   1
  -2  12 -15 147.747 431.122   2
  -2  12 -15-240.817 297.419   1
  -2  12 -16 789.611 539.767   2
  -2  12 -16 9.91683 280.971   1
  -2  12 -17 63.0394 210.928   2
  -2  12 -18-101.027 252.379   2
  -2  12 -19 224.399 335.463   2
  -2  12 -20 1777.95 963.712   2
  -2  12 -21 86.6269 250.225   2
  -2  11  13 3060.47 1224.73   6
  -2  11  12-247.747 407.851   6
  -2  11  11 1903.44 932.627   6
  -2  11  10 4001.83 1253.18   6
  -2  11   9 354.077 445.651   6
  -2  11   8 272.419 186.945   6
  -2  11   7 2739.93 986.673   6
  -2  11   6 240.147 216.850   1
  -2  11   6 1407.26 732.090   6
  -2  11   5 3777.27 822.146   1
  -2  11   5 2226.15 863.945   6
  -2  11   4-138.455 354.831   6
  -2  11   4-13.8879 113.519   1
  -2  11   4 50.1996 160.487   2
  -2  11   3-36.9189 123.589   1
  -2  11   3 274.473 349.216   6
  -2  11   2 272.842 316.267   6
  -2  11   2-70.7516 175.609   1
  -2  11   1 7455.26 1321.61   6
  -2  11   1 5769.43 1044.13   1
  -2  11   0-4.82853 127.261   1
  -2  11   0-258.909 377.328   6
  -2  11  -1 818.818 370.648   6
  -2  11  -1 1762.46 633.237   1
  -2  11  -2 379.487 336.364   6
  -2  11  -2 701.788 425.997   1
  -2  11  -3 4256.65 867.491   6
  -2  11  -3 5186.51 1082.39   1
  -2  11  -4 10609.3 1324.34   6
  -2  11  -4 10536.3 1520.17   1
  -2  11  -5 260.802 262.802   1
  -2  11  -5 390.331 290.511   6
  -2  11  -6-125.255 156.120   6
  -2  11  -6 212.415 475.150   1
  -2  11  -7 4129.63 740.959   6
  -2  11  -7 3866.38 914.964   1
  -2  11  -8 892.011 321.426   1
  -2  11  -8 922.854 340.044   6
  -2  11  -9 217.505 183.527   6
  -2  11  -9-58.6928 189.096   1
  -2  11 -10 1482.04 701.385   1
  -2  11 -10 1091.21 301.298   6
  -2  11 -11 154.637 304.082   1
  -2  11 -12 69.1537 276.886   1
  -2  11 -13-712.560 460.240   1
  -2  11 -14 4481.76 1128.03   1
  -2  11 -15 861.141 582.550   2
  -2  11 -15 837.053 511.206   1
  -2  11 -16 346.955 487.405   2
  -2  11 -16-132.177 209.508   1
  -2  11 -17 450.187 363.160   2
  -2  11 -18 371.910 349.231   2
  -2  11 -19 1408.45 749.643   2
  -2  11 -20 70.0634 332.781   2
  -2  11 -21 189.763 390.549   2
  -2  11 -22-818.645 625.134   2
  -2  10  15 2218.07 1118.11   6
  -2  10  14 571.487 595.913   6
  -2  10  13 118.759 244.597   6
  -2  10  12 1442.10 763.937   6
  -2  10  11 3399.00 1157.73   6
  -2  10  10 777.034 467.484   6
  -2  10   9-457.523 419.317   6
  -2  10   8 1996.61 774.868   6
  -2  10   7 152.117 155.428   1
  -2  10   7 440.154 420.988   6
  -2  10   6 7.11316 66.6888   1
  -2  10   6-228.821 167.788   6
  -2  10   5-110.188 360.695   6
  -2  10   5-102.887 162.318   2
  -2  10   5 159.052 131.941   1
  -2  10   4 505.171 312.483   6
  -2  10   4 272.724 177.000   2
  -2  10   4 317.669 177.111   1
  -2  10   3 10152.1 1548.01   6
  -2  10   3 7617.17 1130.35   1
  -2  10   2 182.608 195.278   1
  -2  10   2 244.665 414.425   6
  -2  10   1 2634.33 778.694   6
  -2  10   1 1848.44 574.108   1
  -2  10   0 1194.90 530.780   6
  -2  10   0 1466.04 474.938   1
  -2  10  -1 478.687 337.995   1
  -2  10  -1 842.743 373.230   6
  -2  10  -2 1153.13 447.252   6
  -2  10  -2 2037.65 446.598   9
  -2  10  -2 1775.86 618.079   1
  -2  10  -3 9836.34 1253.48   6
  -2  10  -3 10887.7 1464.77   1
  -2  10  -4-33.0587 117.680   6
  -2  10  -4 394.577 314.263   1
  -2  10  -5 2122.16 526.279   6
  -2  10  -5 1761.39 548.161   1
  -2  10  -6 1866.16 491.213   6
  -2  10  -6 2458.56 722.668   1
  -2  10  -7 5773.92 803.031   6
  -2  10  -7 6203.31 1152.79   1
  -2  10  -8 257.356 197.773   6
  -2  10  -8 593.460 377.864   1
  -2  10  -9 6737.79 730.705   6
  -2  10  -9 8448.40 1371.90   1
  -2  10 -10 32.4897 58.1237   6
  -2  10 -10 242.450 323.542   1
  -2  10 -11 13546.3 1800.00   1
  -2  10 -12 1331.97 562.247   1
  -2  10 -13 1239.65 602.123   1
  -2  10 -14 807.874 524.201   2
  -2  10 -14 1148.68 606.379   1
  -2  10 -15 343.859 264.710   1
  -2  10 -15 504.049 398.802   2
  -2  10 -16 608.924 502.360   2
  -2  10 -17-10.4303 240.559   2
  -2  10 -18 978.253 589.521   7
  -2  10 -18 812.521 571.220   2
  -2  10 -19 934.612 693.073   7
  -2  10 -19 1700.33 800.284   2
  -2  10 -20 161.305 282.905   2
  -2  10 -20 342.412 458.973   7
  -2  10 -21 8.08807 170.625   7
  -2  10 -21 433.044 555.362   2
  -2  10 -22-3.62093 446.772   2
  -2   9  16 429.108 546.816   6
  -2   9  15 553.213 434.315   6
  -2   9  14 3194.61 1228.95   6
  -2   9  13 2791.61 1088.94   6
  -2   9  12 790.055 519.942   6
  -2   9  11 1139.37 641.458   6
  -2   9  10 412.571 559.863   6
  -2   9   9 19108.0 2479.41   6
  -2   9   8 447.214 394.573   6
  -2   9   7 245.299 238.908   6
  -2   9   6 310.994 386.866   6
  -2   9   6 341.444 208.081   1
  -2   9   5 4744.18 605.091   2
  -2   9   5 6221.41 933.116   1
  -2   9   5 4244.28 1079.56   6
  -2   9   4 875.747 289.761   6
  -2   9   4 877.315 386.825   1
  -2   9   4 853.997 292.003   2
  -2   9   4 941.156 294.287   8
  -2   9   3 6377.90 1159.85   6
  -2   9   3 6813.68 996.721   1
  -2   9   2 3921.11 884.922   6
  -2   9   2 2105.30 567.330   1
  -2   9   1 2075.46 582.461   1
  -2   9   1 1545.15 530.784   6
  -2   9   0 1128.36 377.795   6
  -2   9   0 1635.23 521.291   1
  -2   9  -1 3090.00 728.982   1
  -2   9  -1 1743.96 535.177   6
  -2   9  -1 2423.42 486.290   9
  -2   9  -2-19.0823 125.688   1
  -2   9  -2-189.165 188.327   6
  -2   9  -2 131.386 150.956   9
  -2   9  -3 612.497 408.886   1
  -2   9  -3 799.737 405.678   6
  -2   9  -4 7405.38 950.074   6
  -2   9  -4 8653.13 1224.89   1
  -2   9  -5 1463.94 433.348   6
  -2   9  -5 1271.52 515.527   1
  -2   9  -6 22244.5 1518.21   6
  -2   9  -6 24014.8 2145.19   1
  -2   9  -7 3737.84 584.123   6
  -2   9  -7 4224.21 868.325   1
   2  -9   8 15840.5 751.632   4
  -2   9  -8 16890.5 1132.13   6
  -2   9  -8 18245.8 1913.32   1
  -2   9  -9 1108.34 254.521   6
  -2   9  -9 1532.30 501.358   1
  -2   9 -10 12910.0 1670.38   1
   2  -9  11 191.530 184.827   5
  -2   9 -11 1009.68 543.547   1
  -2   9 -12 228.938 318.738   1
  -2   9 -13 802.125 517.835   2
  -2   9 -13 962.886 450.664   1
  -2   9 -14 301.688 361.637   2
  -2   9 -14-121.055 216.293   1
  -2   9 -15-99.2958 241.871   2
  -2   9 -15 954.119 629.376   7
  -2   9 -16 1905.23 722.848   2
  -2   9 -16 2296.94 932.377   7
  -2   9 -17 1456.48 653.070   2
  -2   9 -17-91.1983 228.628   7
  -2   9 -18 691.357 457.106   2
  -2   9 -18 1739.10 831.343   7
  -2   9 -19 2238.39 976.516   7
  -2   9 -19 1231.77 571.144   9
  -2   9 -19 2699.03 1014.47   2
  -2   9 -20-831.222 575.084   2
  -2   9 -20-505.187 498.356   7
  -2   9 -20 126.585 297.167   9
  -2   9 -21 138.662 406.141   7
  -2   9 -21 187.671 312.083   2
  -2   9 -22 1.15997 300.680   2
  -2   8  17 1.35374 791.129   6
  -2   8  16 126.191 280.088   6
   2  -8 -16 360.236 531.630   9
   2  -8 -15 259.029 175.882   9
  -2   8  15-95.6674 240.892   6
  -2   8  14 1261.22 750.463   6
   2  -8 -14 669.822 512.564   9
   2  -8 -13 963.397 645.130   9
  -2   8  13 322.090 417.165   6
  -2   8  12 1407.26 755.473   6
   2  -8 -12 374.169 251.348   9
   2  -8 -11 723.474 527.647   9
  -2   8  11 610.664 452.592   6
   2  -8 -10 196.758 276.908   9
  -2   8  10 118.227 274.565   6
   2  -8  -9 450.432 290.853   9
  -2   8   9 1149.40 684.897   6
  -2   8   8 3953.71 1028.00   6
   2  -8  -8 4443.65 1039.74   9
  -2   8   7 468.051 419.808   6
   2  -8  -7 1213.54 484.550   9
  -2   8   6 19399.7 2158.35   6
  -2   8   6 14064.8 786.802   2
  -2   8   6 16403.4 1370.09   1
  -2   8   5 1404.71 298.976   2
  -2   8   5 1015.01 365.112   1
  -2   8   5 1621.10 323.699   8
  -2   8   5 1535.99 604.119   6
  -2   8   4 45321.6 1879.30   2
  -2   8   4 45164.4 3070.04   6
  -2   8   4 42089.7 1814.38   8
  -2   8   4 44731.1 2375.83   1
  -2   8   3 46.7530 102.267   1
  -2   8   3-155.045 262.796   6
  -2   8   3-5.85270 88.0168   8
  -2   8   2 13725.4 1562.90   6
  -2   8   2 12125.8 1278.42   1
  -2   8   2 11713.2 1067.11   8
  -2   8   1 8278.01 1162.22   1
  -2   8   1 7230.45 1149.41   6
  -2   8   0 134.898 168.457   6
  -2   8   0 173.367 143.978   9
  -2   8   0-31.4569 153.504   1
  -2   8  -1 19.4269 84.2236   9
  -2   8  -1-306.709 334.427   1
  -2   8  -1-228.682 126.043   6
  -2   8  -2 9259.94 1098.99   6
  -2   8  -2 9302.18 1180.96   1
  -2   8  -2 9370.03 817.476   9
  -2   8  -3 7058.86 912.555   6
  -2   8  -3 8650.52 1159.27   1
  -2   8  -4 8208.87 933.105   6
  -2   8  -4 8601.23 1194.59   1
  -2   8  -5 4822.68 696.227   6
   2  -8   5 4158.97 571.101   6
  -2   8  -5 5763.90 966.585   1
  -2   8  -6 1203.99 330.288   6
  -2   8  -6 1299.09 489.664   1
  -2   8  -7 6189.00 665.912   6
  -2   8  -7 7594.88 1171.19   1
  -2   8  -8 2795.54 745.778   1
  -2   8  -8 2639.81 389.515   6
  -2   8  -9 3699.55 851.122   1
  -2   8 -10 4963.87 1012.29   1
   2  -8  10 4692.09 709.839   5
   2  -8  11 3425.90 591.229   5
  -2   8 -11 3239.48 794.817   1
  -2   8 -12 183.672 244.214   7
  -2   8 -12 24.3898 280.680   2
  -2   8 -12 294.595 212.700   1
  -2   8 -13-14.5908 250.976   2
  -2   8 -13 223.732 295.644   1
  -2   8 -13 296.635 404.658   7
  -2   8 -14-45.7697 198.961   7
  -2   8 -14 47.5234 193.343   2
  -2   8 -15 2275.68 770.423   2
  -2   8 -15 3059.84 1010.70   7
  -2   8 -16 3226.25 1085.14   7
  -2   8 -16 3470.72 1032.96   2
  -2   8 -17-21.5133 227.531   2
  -2   8 -17 338.206 538.681   7
  -2   8 -18 2282.15 845.092   2
  -2   8 -18 2666.45 1034.99   7
  -2   8 -18 2047.55 781.145   9
  -2   8 -19 1428.79 759.202   7
  -2   8 -19 3383.58 1141.42   2
  -2   8 -19 1999.13 786.611   9
  -2   8 -20 1407.40 812.836   7
  -2   8 -20 823.813 477.341   2
  -2   8 -20 616.930 481.594   9
  -2   8 -21 991.416 833.387   7
  -2   8 -21-545.644 445.437   9
  -2   8 -21 303.007 364.837   2
  -2   7  18 137.930 176.616   6
  -2   7  17 267.319 331.665   6
   2  -7 -16 25.8063 197.272   9
  -2   7  16-180.135 322.969   6
  -2   7  15 228.133 417.713   6
   2  -7 -15 1174.25 746.227   9
  -2   7  14 239.977 371.750   6
   2  -7 -14 25.3173 220.831   9
  -2   7  13 207.541 229.801   6
   2  -7 -13 620.812 469.283   9
  -2   7  12-459.357 408.073   6
   2  -7 -12 409.830 344.439   9
   2  -7 -11 3557.40 1046.69   9
  -2   7  11 2463.98 849.660   6
   2  -7 -10 6630.41 1346.60   9
  -2   7  10 5247.77 1310.60   6
  -2   7   9 551.493 683.887   6
   2  -7  -9 17.4491 264.106   9
  -2   7   8 11533.2 1707.02   6
   2  -7  -8 11211.5 1584.28   9
  -2   7   7 7715.81 1354.38   6
   2  -7  -7 6729.17 1167.81   9
   2  -7  -6 7973.39 1210.09   9
  -2   7   6 9818.65 1471.76   6
  -2   7   6 6760.49 501.267   8
  -2   7   5 6020.85 1097.64   6
  -2   7   5 5839.58 549.191   2
  -2   7   5 6030.04 801.389   1
  -2   7   5 6376.69 583.098   8
  -2   7   4 711.426 387.497   6
  -2   7   4 425.666 174.754   8
  -2   7   4 488.520 174.364   2
  -2   7   4 559.185 277.661   1
  -2   7   3 181.392 197.958   6
  -2   7   3 410.693 253.370   1
  -2   7   3 563.170 217.841   8
  -2   7   3 227.902 129.534   2
  -2   7   2 136.773 205.922   1
  -2   7   2 34.3286 61.0933   8
  -2   7   2-267.604 299.898   6
  -2   7   1 3595.02 653.522   1
  -2   7   1 3578.27 740.626   6
  -2   7   1 3514.77 582.446   9
  -2   7   1 2971.78 523.171   8
  -2   7   0 80.5842 180.421   1
  -2   7   0 31.9407 96.7849   9
  -2   7   0-180.266 182.566   6
  -2   7  -1 59440.7 2713.38   6
  -2   7  -1 60271.5 2842.99   1
  -2   7  -1 55841.3 1933.45   9
  -2   7  -2 1304.65 390.625   6
  -2   7  -2 1153.91 259.428   9
  -2   7  -2 1717.69 467.277   1
  -2   7  -3 32737.1 1829.14   6
  -2   7  -3 35274.4 2238.10   1
   2  -7   3 33664.6 1686.14   6
   2  -7   4 8427.58 786.389   6
  -2   7  -4 7857.26 847.420   6
  -2   7  -4 9879.00 1208.27   1
  -2   7  -5 7396.28 1063.29   1
  -2   7  -5 6368.33 721.735   6
   2  -7   5 6992.02 661.123   6
   2  -7   6 2687.90 366.082   6
  -2   7  -6 3162.81 463.687   6
  -2   7  -6 3172.40 702.016   1
  -2   7  -7 6099.66 995.393   1
  -2   7  -7 4495.47 496.934   6
  -2   7  -8 935.244 344.670   1
   2  -7   9 74.3279 61.3993   5
  -2   7  -9 334.626 246.064   1
  -2   7 -10-117.367 291.529   1
   2  -7  10 73.3348 120.708   5
  -2   7 -10 295.725 327.922   7
   2  -7  11-4.55721 118.049   5
  -2   7 -11 38.0455 247.496   2
  -2   7 -11-40.8511 199.264   7
  -2   7 -11 371.976 269.035   1
  -2   7 -12 2177.02 692.088   2
  -2   7 -12 1562.61 601.055   7
  -2   7 -13 5069.67 1092.27   2
  -2   7 -13 5118.82 1155.01   7
  -2   7 -14-626.749 502.236   7
  -2   7 -14 381.341 303.285   2
  -2   7 -15 2457.40 897.047   7
  -2   7 -15 2430.77 843.208   2
  -2   7 -16 140.186 339.573   7
  -2   7 -16 956.279 588.980   2
  -2   7 -17 4512.53 1162.35   2
  -2   7 -17 4061.26 1333.07   7
  -2   7 -17 3555.05 980.094   9
  -2   7 -18-70.9403 283.450   2
  -2   7 -18 1068.76 596.979   9
  -2   7 -18 422.126 425.022   7
  -2   7 -19-231.250 301.526   2
  -2   7 -19 504.172 410.643   9
  -2   7 -20 183.154 225.321   2
  -2   7 -20-166.056 222.643   7
  -2   7 -21-401.977 455.849   7
  -2   7 -21 223.782 298.414   9
  -2   7 -21 456.459 412.817   2
  -2   7 -22 469.554 446.050   9
  -2   6  19 381.802 480.580   6
  -2   6  18 431.138 387.665   6
  -2   6  17-937.124 643.456   6
   2  -6 -17 341.701 402.924   9
   2  -6 -16 128.826 323.490   9
  -2   6  16 163.658 292.858   6
  -2   6  15 292.531 454.978   6
   2  -6 -15 1042.64 685.772   9
  -2   6  14 912.099 669.491   6
   2  -6 -14 495.332 483.236   9
   2  -6 -13 1003.75 630.705   9
  -2   6  13 726.456 567.376   6
  -2   6  12 2243.40 816.689   6
   2  -6 -12 1591.14 701.443   9
  -2   6  11 8080.49 1505.89   6
   2  -6 -11 8750.13 1543.45   9
   2  -6 -10 357.086 378.376   9
  -2   6  10 332.240 242.771   6
   2  -6  -9 22943.2 2280.88   9
  -2   6   9 19779.8 2226.32   6
  -2   6   8 13185.2 1774.29   6
   2  -6  -8 12392.8 1603.75   9
  -2   6   7 699.262 579.934   6
   2  -6  -7 268.126 173.354   9
  -2   6   6 16990.6 651.124   8
  -2   6   6 23587.0 2162.79   6
  -2   6   5 3546.48 376.045   2
  -2   6   5 4545.31 917.826   6
  -2   6   5 3419.83 380.424   8
  -2   6   4 1369.29 363.398   1
  -2   6   4 1031.71 378.918   6
  -2   6   4 1384.63 284.982   2
   2  -6  -4 1786.49 512.860   9
  -2   6   4 1260.86 259.013   8
  -2   6   3 4603.17 668.330   1
  -2   6   3 4106.97 815.774   6
  -2   6   3 4547.18 539.098   2
  -2   6   3 4259.83 523.525   8
   2  -6  -3 4440.84 722.873   9
  -2   6   2 137.993 255.577   6
  -2   6   2-166.922 212.480   1
  -2   6   2 61.9535 155.979   2
   2  -6  -2-49.4428 135.519   9
  -2   6   2-75.4748 102.444   8
  -2   6   1 9183.94 1103.83   6
  -2   6   1 8970.11 847.325   8
  -2   6   1 10027.9 1045.44   1
  -2   6   0 5983.08 640.808   9
  -2   6   0 5222.24 778.055   6
  -2   6   0 5890.49 716.840   8
  -2   6   0 5906.33 809.051   1
  -2   6  -1 563.819 259.382   6
  -2   6  -1 738.369 256.129   8
  -2   6  -1 783.899 209.696   9
  -2   6  -1 1187.93 403.640   1
   2  -6   1 1316.39 349.012   6
   2  -6   2 1703.92 367.912   6
  -2   6  -2 1639.37 408.272   6
  -2   6  -2 1314.26 421.462   1
  -2   6  -2 1150.61 222.444   9
   2  -6   3 27009.3 1380.23   6
  -2   6  -3 26535.0 1504.53   6
  -2   6  -3 28419.4 1900.70   1
   2  -6   4 2094.93 355.275   6
  -2   6  -4 2589.69 652.926   1
  -2   6  -4 2741.22 471.329   6
  -2   6  -5 18664.5 1098.57   6
   2  -6   5 19477.8 976.295   6
  -2   6  -5 19095.9 1660.06   1
  -2   6  -6 12206.1 1316.35   1
   2  -6   6 10812.6 622.964   6
  -2   6  -6 11546.0 785.058   6
  -2   6  -7 939.873 395.630   1
  -2   6  -8 1328.13 466.316   1
   2  -6   8 1043.57 319.650   5
  -2   6  -9 7007.44 1212.75   7
  -2   6  -9 9344.67 1317.57   2
   2  -6   9 7054.30 856.488   5
  -2   6  -9 8089.47 1142.73   1
   2  -6  10 45.0978 104.638   5
  -2   6 -10 1.55107 245.857   2
  -2   6 -10-64.3238 292.160   1
  -2   6 -11 727.260 450.941   7
  -2   6 -11 310.602 317.730   2
  -2   6 -12 398.203 403.725   7
  -2   6 -12-182.844 123.103   2
  -2   6 -12 169.819 98.8750   4
  -2   6 -13 1439.14 609.393   7
  -2   6 -13 1287.45 303.746   4
  -2   6 -13 1747.35 661.329   2
  -2   6 -14 1134.34 352.822   4
  -2   6 -14 1150.56 508.112   2
  -2   6 -14 1679.22 712.842   7
  -2   6 -15 234.302 408.954   7
  -2   6 -15 592.978 353.874   2
  -2   6 -16 5067.89 1310.82   7
  -2   6 -16 4246.24 1069.74   2
  -2   6 -16 3662.26 923.268   9
  -2   6 -17 1650.95 771.476   7
  -2   6 -17 681.698 321.438   9
  -2   6 -17 1351.96 663.184   2
  -2   6 -18 940.535 582.386   9
  -2   6 -18 592.302 422.200   2
  -2   6 -18 1359.66 665.471   7
  -2   6 -19-68.7949 343.837   2
  -2   6 -19 5.94223 337.687   7
  -2   6 -19-271.136 311.886   9
  -2   6 -20 255.323 561.840   7
  -2   6 -20 762.229 528.852   9
  -2   6 -20-581.485 454.503   2
  -2   6 -21-774.831 638.766   7
  -2   6 -21-1.01617 282.500   9
  -2   6 -22-351.700 390.546   9
  -2   5  19-534.876 507.631   6
  -2   5  18 747.354 682.678   6
   2  -5 -18 827.542 656.205   9
  -2   5  17-15.4040 176.632   6
   2  -5 -17-784.097 581.005   9
   2  -5 -16 422.804 304.585   9
  -2   5  16 1269.83 792.877   6
  -2   5  15 96.7956 224.775   6
   2  -5 -15 696.283 556.125   9
  -2   5  14 2151.41 826.439   6
   2  -5 -14 3654.30 1147.36   9
   2  -5 -13 3829.46 1126.26   9
  -2   5  13 3267.45 975.290   6
  -2   5  12 2917.36 888.692   6
   2  -5 -12 3858.95 1060.19   9
  -2   5  11 6294.26 1320.26   6
   2  -5 -11 6625.62 1324.61   9
  -2   5  10 38032.0 3074.18   6
   2  -5 -10 40928.6 3125.34   9
  -2   5   9 16346.7 1928.93   6
   2  -5  -9 17506.8 1957.77   9
  -2   5   8 1503.54 549.787   6
   2  -5  -8 1676.38 571.488   9
  -2   5   7 14667.6 1701.80   6
   2  -5  -7 14708.8 1628.23   9
  -2   5   6 664.943 426.427   6
  -2   5   5 1743.99 548.381   6
  -2   5   5 1744.41 241.018   8
  -2   5   4 5811.77 501.395   8
  -2   5   4 5773.82 937.612   6
  -2   5   4 4621.83 446.903   2
   2  -5  -4 5534.82 814.157   9
  -2   5   3 2305.21 437.590   1
  -2   5   3 3168.87 411.529   8
  -2   5   3 2646.13 597.661   6
  -2   5   3 2747.58 386.720   2
   2  -5  -3 2027.92 444.005   9
  -2   5   2 15449.6 1402.84   6
  -2   5   2 14571.9 1142.02   1
  -2   5   2 14301.2 949.023   2
   2  -5  -2 13052.1 1064.37   9
  -2   5   2 13738.2 919.464   8
   2  -5  -1 2922.24 461.232   9
  -2   5   1 3630.93 584.793   1
  -2   5   1 3464.51 623.479   6
  -2   5   1 4204.76 550.613   2
  -2   5   1 3813.30 516.547   8
  -2   5   0 790.057 247.504   1
  -2   5   0 457.510 196.281   6
  -2   5   0 696.885 234.506   8
  -2   5   0 970.967 288.825   2
   2  -5   1 6138.21 702.325   6
  -2   5  -1 5920.52 777.395   1
  -2   5  -1 5319.49 693.656   2
  -2   5  -1 5425.94 454.589   9
  -2   5  -1 6194.57 767.272   6
  -2   5  -2 28701.4 1538.13   6
  -2   5  -2 26974.2 1710.15   1
  -2   5  -2 27185.1 832.739   9
   2  -5   2 30072.4 1447.55   6
  -2   5  -3 31372.5 1889.47   1
  -2   5  -3 29298.0 1470.94   6
   2  -5   3 30842.2 1354.10   6
   2  -5   4 1384.78 264.000   6
  -2   5  -4 1167.75 267.641   6
  -2   5  -4 1749.87 485.114   1
  -2   5  -5 39030.0 1417.75   6
   2  -5   5 38466.4 1178.50   6
  -2   5  -5 41484.4 2259.57   1
  -2   5  -6-58.4318 129.545   1
  -2   5  -6 313.303 221.438   2
   2  -5   6 140.322 65.1429   6
  -2   5  -7 174.430 299.814   2
  -2   5  -7 241.244 195.776   1
   2  -5   7 11.6761 100.334   5
  -2   5  -8 460.628 317.197   2
  -2   5  -8 325.613 189.462   1
   2  -5   8 459.041 214.273   5
  -2   5  -9 179.721 191.840   2
   2  -5   9 55.2788 83.0013   5
  -2   5 -10 2963.11 388.215   4
  -2   5 -10 2728.95 819.335   7
  -2   5 -10 3631.09 792.583   2
  -2   5 -11-32.4731 175.331   7
  -2   5 -11 53.8307 189.133   2
  -2   5 -11-71.0429 100.028   4
  -2   5 -12 7357.06 1247.40   2
  -2   5 -12 3801.81 991.368   7
  -2   5 -12 5167.57 685.267   4
  -2   5 -13 1895.57 687.162   7
  -2   5 -13 2078.23 460.097   4
  -2   5 -13 2670.78 742.369   2
  -2   5 -14 2216.69 508.828   4
  -2   5 -14 2951.04 956.333   7
  -2   5 -14 2885.75 792.000   2
  -2   5 -14 2016.96 657.757   9
  -2   5 -15 7070.03 1496.86   7
  -2   5 -15 5322.69 1107.91   2
  -2   5 -15 7373.94 1047.05   4
  -2   5 -15 7417.75 1309.79   9
  -2   5 -16 2927.21 978.959   7
  -2   5 -16 3138.30 941.695   2
  -2   5 -16 3528.36 971.056   9
  -2   5 -17-2.06033 273.480   7
  -2   5 -17-109.032 337.782   9
  -2   5 -17 210.228 334.486   2
  -2   5 -18 648.060 448.460   7
  -2   5 -18 10.3891 136.845   2
  -2   5 -18 813.025 485.372   9
  -2   5 -19-221.361 357.871   2
  -2   5 -19-426.216 458.250   7
  -2   5 -19 219.428 271.308   9
  -2   5 -20 67.0426 194.859   9
  -2   5 -20 333.502 453.880   7
  -2   5 -21 82.6047 305.832   9
  -2   5 -21 1001.78 714.783   7
  -2   5 -22 166.365 230.898   9
  -2   4  18 411.328 386.558   6
   2  -4 -18-222.554 333.071   9
  -2   4  17 1651.19 749.848   6
   2  -4 -17 3575.22 1218.54   9
  -2   4  16 1875.71 824.480   6
   2  -4 -16 709.429 617.899   9
  -2   4  15 202.349 139.026   6
   2  -4 -15 142.170 224.346   9
  -2   4  14-133.701 341.938   6
   2  -4 -14 646.914 522.713   9
   2  -4 -13 796.995 494.757   9
  -2   4  13 1277.36 604.858   6
   2  -4 -12 2805.72 877.494   9
  -2   4  12 2671.37 863.498   6
   2  -4 -11-254.305 384.222   9
  -2   4  11 89.7855 206.987   6
  -2   4  10 25577.1 2399.79   6
   2  -4 -10 23820.2 2331.61   9
  -2   4   9 353.775 181.811   6
   2  -4  -9-54.4732 133.702   9
   2  -4  -8 7404.10 1192.60   9
  -2   4   8 9544.99 1353.01   6
  -2   4   7 4172.66 869.171   6
  -2   4   6 545.035 304.542   6
  -2   4   5 2852.44 673.636   6
   2  -4  -5 3098.90 627.979   9
  -2   4   5 2985.92 296.170   8
   2  -4  -4 351.616 198.815   9
  -2   4   4 261.113 105.726   2
  -2   4   4 26.4105 149.236   6
   2  -4  -3 1026.45 326.221   9
  -2   4   3 786.708 185.122   2
   2  -4  -3 417.668 165.456   1
  -2   4   3 566.790 276.514   6
   2  -4  -2 4721.38 582.979   9
  -2   4   2 6011.24 831.328   6
  -2   4   2 4754.53 507.586   2
   2  -4  -2 5853.80 632.894   1
  -2   4   1 27906.2 1694.57   6
  -2   4   1 27302.3 1313.57   2
   2  -4  -1 26825.5 1398.44   1
   2  -4  -1 28149.4 1253.44   9
  -2   4   0 99068.7 2996.45   6
  -2   4   0 93184.6 2818.06   1
   2  -4   0 92813.1 1891.24   9
  -2   4   0 95521.1 2603.50   2
  -2   4  -1 1965.43 456.008   1
  -2   4  -1 1885.56 402.642   6
   2  -4   1 1446.56 320.566   6
  -2   4  -1 1670.68 357.128   2
   2  -4   2 58885.0 1916.85   6
  -2   4  -2 59617.4 2057.61   6
  -2   4  -2 62310.3 2340.94   2
  -2   4  -2 58025.4 2337.13   1
  -2   4  -3 249.218 176.271   1
  -2   4  -3 198.652 133.611   6
   2  -4   3 170.837 118.753   6
  -2   4  -3 110.644 165.182   2
  -2   4  -4 4957.13 506.548   6
  -2   4  -4 4798.85 735.778   2
  -2   4  -4 5781.48 775.641   1
   2  -4   4 5033.93 451.102   6
   2  -4   4 4543.19 729.823   7
   2  -4   5 913.273 334.798   7
   2  -4   5 414.991 107.594   6
  -2   4  -5 236.337 181.797   2
  -2   4  -6 3401.54 691.010   2
   2  -4   6 2738.82 523.370   5
  -2   4  -7 4799.74 859.927   2
   2  -4   7 3912.88 619.301   5
   2  -4   8 90.1291 151.564   5
  -2   4  -8 95.7866 203.550   2
  -2   4  -9 5050.69 885.924   2
  -2   4 -10 24607.3 2072.86   2
  -2   4 -11 147.996 268.130   2
  -2   4 -11-305.397 224.924   7
   2  -4  12 4706.86 413.795   6
  -2   4 -12 6627.00 1124.64   2
  -2   4 -12 6882.20 1330.11   7
  -2   4 -12 7376.87 1150.08   9
   2  -4  13-105.062 73.6201   6
  -2   4 -13 247.015 181.350   9
  -2   4 -13 158.673 293.263   2
  -2   4 -13-209.200 385.458   7
  -2   4 -14 21592.0 2170.44   9
  -2   4 -14 23231.8 2278.85   2
  -2   4 -14 19973.6 2485.08   7
  -2   4 -15 6392.43 1435.66   7
  -2   4 -15 6003.44 1202.80   9
  -2   4 -15 6231.69 1222.77   2
  -2   4 -16 295.872 326.891   9
  -2   4 -16 58.1009 137.362   2
  -2   4 -16-120.650 276.845   7
  -2   4 -17 560.045 347.773   9
  -2   4 -17 218.346 258.177   2
  -2   4 -17-301.886 369.395   7
  -2   4 -18 594.812 461.171   9
  -2   4 -18 1033.66 563.314   2
  -2   4 -18-204.190 332.430   7
  -2   4 -19 354.739 579.498   7
  -2   4 -19 238.505 305.044   9
  -2   4 -20 730.513 501.078   7
  -2   4 -20-122.290 297.600   9
  -2   4 -21 1526.73 764.969   7
  -2   4 -21 56.0375 192.546   9
  -2   4 -22 736.164 481.150   9
   2  -3 -19-292.580 401.044   9
  -2   3  18-340.782 372.035   6
   2  -3 -18 31.0615 162.618   9
   2  -3 -17 539.238 462.341   9
  -2   3  17 48.4259 257.830   6
  -2   3  16 1796.76 788.036   6
   2  -3 -16 2720.86 965.518   9
  -2   3  15 501.272 386.728   6
   2  -3 -15-1382.51 685.094   9
  -2   3  14-46.1134 289.716   6
   2  -3 -14 63.9529 270.001   9
  -2   3  13 2240.83 839.759   6
   2  -3 -13 1270.86 649.686   9
  -2   3  12-11.4468 232.716   6
   2  -3 -12 139.922 162.986   9
  -2   3  11 512.220 323.133   6
   2  -3 -11 351.687 191.898   9
   2  -3 -10 1770.58 665.616   9
  -2   3  10 1333.33 632.195   6
  -2   3   9 12790.2 1636.49   6
  -2   3   8 313.316 141.305   6
  -2   3   7 2650.01 692.149   6
  -2   3   7 1343.42 219.752   3
  -2   3   6 731.400 384.146   6
  -2   3   6 828.475 192.924   3
  -2   3   6 877.596 158.504   8
   2  -3  -5 1709.92 266.270   1
  -2   3   5 1431.50 238.796   8
  -2   3   5 2014.27 530.071   6
  -2   3   4 4254.51 368.785   2
   2  -3  -4 4395.90 460.058   1
  -2   3   4 5048.64 786.365   6
  -2   3   3 193.659 166.594   6
   2  -3  -3 137.056 80.8652   2
   2  -3  -3 132.106 104.717   1
  -2   3   3 35.7844 35.6641   2
   2  -3  -2 33578.1 1417.96   1
  -2   3   2 33410.8 1855.78   6
  -2   3   2 32926.4 1276.66   2
   2  -3  -2 32614.9 1213.74   2
   2  -3  -1 277846. 3853.44   2
  -2   3   1 268708. 4929.27   6
  -2   3   1 275427. 3947.27   2
  -2   3   0 251214. 4505.55   6
  -2   3   0 250850. 4044.12   2
  -2   3  -1-169.819 105.499   6
  -2   3  -1 166.140 129.486   2
  -2   3  -2 70018.9 2090.15   6
   2  -3   2 69260.6 1984.77   6
   2  -3   2 70856.3 1739.26   4
  -2   3  -2 74192.8 2433.20   2
  -2   3  -3 18332.1 1283.25   2
   2  -3   3 17601.3 929.138   6
   2  -3   3 19776.2 1372.64   7
   2  -3   3 18715.2 722.642   4
   2  -3   4 258.845 177.013   7
   2  -3   4 285.122 102.942   6
  -2   3  -4 477.531 248.910   2
  -2   3  -4 121.947 85.9092   9
   2  -3   5 5776.70 738.813   5
   2  -3   5 6161.51 856.836   7
   2  -3   5 5361.14 698.036   1
  -2   3  -5 5793.96 798.286   2
  -2   3  -5 5070.83 538.917   9
   2  -3   5 4735.13 414.721   6
   2  -3   6 6625.28 793.214   1
  -2   3  -6 7969.55 764.951   9
  -2   3  -6 7085.77 914.523   2
   2  -3   6 6970.80 822.090   5
   2  -3   7 27684.6 790.402   6
   2  -3   7 29078.0 1689.38   1
  -2   3  -7 32006.7 2012.62   2
   2  -3   7 30717.8 1764.16   5
  -2   3  -7 31057.6 1682.04   9
  -2   3  -8 391.898 259.883   2
  -2   3  -8 204.785 192.775   9
   2  -3   8 136.957 66.1218   6
   2  -3   9 29628.3 1049.19   6
  -2   3  -9 29080.7 1943.14   9
  -2   3  -9 29426.7 2093.64   2
   2  -3  10 4843.63 477.485   6
  -2   3 -10 4587.74 811.522   9
  -2   3 -10 5473.63 885.604   5
  -2   3 -10 6129.51 1013.05   2
   2  -3  11 15588.8 949.456   6
  -2   3 -11 14510.6 1550.30   9
  -2   3 -11 16080.8 1595.61   5
  -2   3 -11 15890.5 1648.18   2
  -2   3 -12 2020.10 737.390   7
   2  -3  12 3504.62 486.991   6
  -2   3 -12 3946.26 847.133   5
  -2   3 -12 3988.82 895.638   2
  -2   3 -12 1923.53 612.553   9
  -2   3 -13 2201.06 608.763   2
  -2   3 -13 2745.50 719.274   5
  -2   3 -13 2169.57 720.402   7
  -2   3 -13 1929.23 615.780   9
   2  -3  13 2115.04 412.175   6
  -2   3 -14 1095.50 546.706   9
  -2   3 -14 644.775 355.339   2
   2  -3  14 870.082 298.205   6
  -2   3 -14 922.197 388.284   5
  -2   3 -14 1149.00 492.615   7
  -2   3 -15 2329.67 732.291   2
  -2   3 -15 2180.01 660.670   5
  -2   3 -15 1244.54 594.238   7
  -2   3 -15 1083.43 459.979   9
  -2   3 -16 1818.51 699.695   9
  -2   3 -16 1663.53 782.491   2
  -2   3 -16 623.316 565.202   7
  -2   3 -16 1008.30 475.663   5
  -2   3 -17 40.6916 126.121   5
  -2   3 -17-125.635 250.138   2
  -2   3 -17 467.674 511.918   7
  -2   3 -17 460.197 363.505   9
  -2   3 -18 1488.56 815.885   7
  -2   3 -18 1462.31 619.034   2
  -2   3 -18 1913.66 775.992   9
  -2   3 -19 578.450 449.754   9
  -2   3 -19-11.1035 475.427   7
  -2   3 -20 164.699 251.784   9
  -2   3 -20-78.3069 227.267   7
  -2   3 -21-1.11569 161.939   9
   2  -2 -19-80.2272 311.052   9
   2  -2 -18 134.944 172.121   9
  -2   2  18-948.300 585.172   6
  -2   2  17 1615.26 712.700   6
   2  -2 -17 1508.91 786.768   9
   2  -2 -16 4.82875 419.561   9
  -2   2  16 400.516 501.642   6
  -2   2  15 1230.55 646.239   6
   2  -2 -15 510.542 444.282   9
  -2   2  14-16.7813 257.188   6
   2  -2 -14 98.7162 387.694   9
  -2   2  13-46.0482 231.707   6
   2  -2 -13-47.5161 320.204   9
  -2   2  12 934.311 518.359   6
  -2   2  11 6714.90 1174.55   6
  -2   2  10 650.218 380.879   6
  -2   2   9-189.378 283.245   6
  -2   2   9 37.4774 35.4166   8
  -2   2   8 598.388 364.638   6
  -2   2   8 1010.83 174.667   8
  -2   2   7 4553.74 833.728   6
  -2   2   7 5477.62 423.526   8
  -2   2   6 775.987 165.019   8
  -2   2   6 739.180 414.113   6
   2  -2  -6 687.668 146.376   1
  -2   2   5 15630.5 1402.64   6
  -2   2   5 14893.1 866.655   3
  -2   2   5 13899.2 774.891   8
   2  -2  -5 13282.0 642.299   2
   2  -2  -4 2642.08 306.418   2
  -2   2   4 3198.90 431.450   3
  -2   2   4 3038.03 602.523   6
  -2   2   3 11659.0 1084.72   6
  -2   2   3 10888.5 673.289   2
   2  -2  -3 10759.9 657.234   2
  -2   2   2 88900.8 2847.58   6
   2  -2  -2 81638.8 1958.75   2
  -2   2   2 90280.5 2080.34   2
  -2   2   1 585807. 5697.22   2
  -2   2   1 588757. 6968.24   6
  -2   2   0 61395.0 1955.82   2
  -2   2   0 60190.1 2098.54   6
  -2   2  -1 2467.62 400.381   6
   2  -2   1 2592.38 367.993   4
  -2   2  -1 2776.13 444.071   2
   2  -2   2 15793.1 945.730   6
  -2   2  -2 16380.5 1131.06   2
  -2   2  -2 16799.1 825.956   4
  -2   2  -3 74682.8 2548.18   2
   2  -2   3 75463.7 2577.32   7
  -2   2  -4 60995.7 2425.97   2
   2  -2   4 63791.2 2544.15   7
  -2   2  -4 66809.2 1792.60   9
   2  -2   4 65191.2 2356.16   5
  -2   2  -5 17702.9 1348.43   2
   2  -2   5 16194.3 1167.35   1
   2  -2   5 17286.7 1404.75   7
   2  -2   5 15888.9 1217.74   5
  -2   2  -5 15958.8 1029.76   9
   2  -2   6 23932.0 1537.71   5
  -2   2  -6 23986.8 1579.85   5
  -2   2  -6 21358.5 1549.99   2
   2  -2   6 21025.5 1351.56   1
  -2   2  -6 24000.7 1428.67   9
  -2   2  -7 6812.12 884.746   5
  -2   2  -7 6250.97 896.026   2
  -2   2  -7 5847.99 776.214   9
   2  -2   7 6969.94 525.024   6
   2  -2   7 5966.52 734.359   1
  -2   2  -8 9665.91 1144.45   5
   2  -2   8 9152.08 651.867   6
  -2   2  -8 10064.0 1100.82   9
  -2   2  -8 9343.79 1110.73   2
   2  -2   8 8652.46 892.447   1
   2  -2   9 480.431 222.815   1
  -2   2  -9 117.701 133.241   5
   2  -2   9 630.154 183.502   6
  -2   2  -9 590.186 267.148   2
  -2   2  -9 951.714 372.099   9
  -2   2 -10 449.765 313.373   9
  -2   2 -10 360.101 212.965   5
   2  -2  10 393.575 155.365   6
  -2   2 -10 700.016 293.396   2
   2  -2  10 650.825 252.895   1
  -2   2 -11 1903.24 587.546   9
   2  -2  11 2333.39 422.613   6
  -2   2 -11 2704.60 686.512   5
  -2   2 -11 3074.94 713.053   2
  -2   2 -12 1528.75 649.005   7
   2  -2  12 1133.33 315.297   6
  -2   2 -12 344.781 280.417   5
  -2   2 -12 750.907 425.782   9
  -2   2 -12 1374.44 498.749   2
  -2   2 -13 7067.83 1176.79   5
   2  -2  13 5687.16 776.076   6
  -2   2 -13 6915.45 1381.20   7
  -2   2 -13 6363.54 1120.36   2
  -2   2 -13 7112.50 1266.34   9
   2  -2  14 290.331 167.730   6
  -2   2 -14 749.701 318.548   3
  -2   2 -14 872.252 363.253   7
  -2   2 -14-36.1812 237.502   5
  -2   2 -14 1110.87 519.279   2
  -2   2 -14 635.074 377.802   9
  -2   2 -15 218.028 237.873   2
  -2   2 -15 290.968 464.408   7
  -2   2 -15 100.628 233.427   5
  -2   2 -15 254.419 224.300   9
  -2   2 -16 959.023 687.647   7
  -2   2 -16 115.695 212.454   2
  -2   2 -16 503.642 437.920   5
  -2   2 -16-154.865 294.381   9
  -2   2 -17 491.090 507.523   7
  -2   2 -17 450.104 334.452   5
  -2   2 -17 1072.89 531.925   2
  -2   2 -17 21.2703 283.057   9
  -2   2 -18-39.6037 161.441   5
  -2   2 -18 315.090 433.996   9
  -2   2 -18-83.6191 258.864   7
  -2   2 -19 66.7182 205.020   9
  -2   2 -19 106.462 270.403   7
  -2   2 -20 541.982 572.231   9
  -2   2 -20-43.1778 211.222   7
  -2   2 -21-295.101 375.505   9
   2  -1 -20 1469.73 925.170   9
   2  -1 -19-264.277 368.958   9
  -2   1  18 155.007 158.551   6
   2  -1 -18 2180.50 915.021   9
   2  -1 -17 785.485 548.523   9
  -2   1  17 414.714 332.522   6
  -2   1  16 819.308 442.904   6
   2  -1 -16 630.702 488.541   9
  -2   1  15 988.661 566.790   6
   2  -1 -15 1221.74 574.585   9
  -2   1  14-135.414 143.968   6
   2  -1 -13-130.366 95.1542   2
  -2   1  13 105.631 205.959   6
  -2   1  12 158.672 174.887   6
   2  -1 -12-25.3419 55.6111   8
   2  -1 -12 103.489 91.1239   2
  -2   1  11 5349.43 1026.76   6
   2  -1 -11 4131.24 555.581   8
   2  -1 -11 3808.38 459.380   2
  -2   1  10 459.082 373.227   6
  -2   1  10 585.912 178.589   8
   2  -1 -10 381.737 178.795   8
   2  -1  -9 2071.80 376.564   8
  -2   1   9 2392.00 345.366   8
  -2   1   9 2209.38 601.183   6
  -2   1   8 40869.7 2488.75   6
   2  -1  -8 35494.9 1516.11   8
  -2   1   8 37593.4 1359.69   8
  -2   1   7 32144.5 1254.78   8
  -2   1   7 33166.0 2154.55   6
  -2   1   6 56110.9 2664.58   6
   2  -1  -6 52456.6 1594.39   2
  -2   1   6 53146.1 1628.80   8
  -2   1   5 12373.9 1214.11   6
   2  -1  -5 11215.1 719.768   2
  -2   1   5 11484.1 772.436   8
   2  -1  -4 38855.1 1358.24   2
  -2   1   4 40353.8 2062.96   6
  -2   1   4 39158.5 1471.98   3
  -2   1   4 39140.0 1456.33   8
  -2   1   3 236.286 113.773   6
  -2   1   3 359.477 148.087   2
   2  -1  -3 127.779 53.9283   2
  -2   1   3 281.028 142.834   3
  -2   1   2 11815.2 986.308   6
  -2   1   2 13144.8 824.047   2
   2  -1  -2 12078.5 805.166   2
  -2   1   2 12073.3 880.465   3
  -2   1   1 72842.3 2396.15   6
  -2   1   1 76079.4 2071.67   2
   2  -1  -1 75223.2 2316.89   4
  -2   1   1 73253.5 2234.24   3
  -2   1   0 898.440 236.584   2
   2  -1   0 1026.75 261.570   4
  -2   1  -1 7012.69 692.640   2
  -2   1  -2 951.745 263.178   2
   2  -1   2 798.608 259.864   7
   2  -1   3 210195. 3179.11   9
   2  -1   3 212221. 4173.89   5
  -2   1  -3 219221. 4233.53   2
   2  -1   3 207098. 4136.83   7
   2  -1   4 1435.08 397.768   5
  -2   1  -4 1446.68 378.148   2
   2  -1   4 1060.01 263.566   9
   2  -1   4 1129.15 314.489   7
  -2   1  -4 1334.56 291.650   9
  -2   1  -5 3193.39 496.867   9
   2  -1   5 3191.44 596.482   7
  -2   1  -5 3089.61 564.705   2
   2  -1   5 3035.75 528.032   2
  -2   1  -5 2314.58 482.481   5
  -2   1  -6 837.888 282.810   9
   2  -1   6 1250.74 350.797   2
  -2   1  -6 2021.42 478.843   5
  -2   1  -6 1914.15 463.330   2
  -2   1  -7 2373.53 526.870   5
   2  -1   7 2249.86 493.262   2
   2  -1   7 1637.10 300.580   6
  -2   1  -7 2174.59 516.002   2
  -2   1  -7 2310.25 551.115   9
   2  -1   8 223.375 148.641   1
  -2   1  -8 321.522 272.881   2
   2  -1   8-6.40304 46.8559   6
  -2   1  -8 309.542 240.325   5
  -2   1  -8-88.8432 103.766   9
   2  -1   9 720.566 255.085   1
  -2   1  -9 831.079 377.780   5
  -2   1  -9 945.287 416.896   2
   2  -1   9 1080.24 305.037   6
  -2   1  -9 542.973 286.461   9
  -2   1 -10 602.856 288.135   2
  -2   1 -10 706.808 357.960   9
  -2   1 -10 902.541 356.935   3
   2  -1  10 977.018 297.302   1
  -2   1 -10 552.950 243.044   5
   2  -1  10 688.423 222.974   6
   2  -1  11 2353.09 484.668   6
  -2   1 -11 2267.40 534.489   3
   2  -1  11 1812.37 410.123   1
  -2   1 -11 1380.50 497.429   9
  -2   1 -11 1622.63 539.262   5
  -2   1 -11 2016.67 575.569   2
  -2   1 -11 2350.26 743.957   7
  -2   1 -12 902.977 350.963   3
  -2   1 -12 651.863 345.500   2
  -2   1 -12 506.883 369.283   5
   2  -1  12 1099.36 310.288   6
  -2   1 -12 1409.65 631.776   7
  -2   1 -12 517.361 318.183   9
  -2   1 -13 2602.46 809.233   9
  -2   1 -13 2788.61 610.153   3
   2  -1  13 2443.51 542.796   6
  -2   1 -13 3180.38 832.625   5
  -2   1 -13 2620.97 868.362   7
  -2   1 -13 1944.70 596.626   2
  -2   1 -14 862.994 358.207   3
  -2   1 -14 1170.99 577.070   9
   2  -1  14 926.431 344.623   6
  -2   1 -14 956.427 413.647   2
  -2   1 -14 786.059 515.549   7
  -2   1 -14 1263.57 541.653   5
  -2   1 -15-99.6225 283.309   9
   2  -1  15 247.471 204.227   6
  -2   1 -15-152.137 261.747   2
  -2   1 -15 243.183 287.884   5
  -2   1 -15 72.9121 271.734   7
  -2   1 -16-80.3871 231.328   2
  -2   1 -16 91.3233 292.934   7
  -2   1 -16 39.6551 145.405   5
  -2   1 -16-440.110 384.798   9
  -2   1 -17-412.943 356.006   5
  -2   1 -17 109.006 191.572   9
  -2   1 -17 104.486 300.363   7
  -2   1 -18 2.88258 170.142   9
  -2   1 -18-613.726 444.427   5
  -2   1 -18 194.101 384.400   7
  -2   1 -19 2349.33 1098.50   7
  -2   1 -19 2260.63 900.305   9
  -2   1 -20 939.129 691.245   9
  -2   1 -20 961.373 865.367   7
  -2   1 -21 788.348 616.161   9
   2   0 -22 230.857 703.652   4
   2   0 -21 3760.40 1364.83   4
   2   0 -20-930.963 663.333   4
   2   0 -20 673.598 513.794   9
   2   0 -19 1870.02 864.671   9
   2   0 -18 968.012 677.581   9
   2   0 -17 1153.19 602.764   9
  -2   0  17 1923.93 748.719   6
  -2   0  16-134.623 293.511   6
  -2   0  15 34.5500 297.111   6
   2   0 -14 169.719 171.028   2
  -2   0  14-2.57334 199.572   6
   2   0 -13 123.842 95.3639   2
  -2   0  13-155.958 137.628   6
   2   0 -12 2951.24 541.993   8
  -2   0  12 3291.08 821.382   6
  -2   0  11 3079.74 750.313   6
   2   0 -11 2702.08 506.031   8
  -2   0  11 2914.49 471.486   8
  -2   0  10 2312.41 601.639   6
  -2   0  10 2070.33 389.258   8
   2   0 -10 2241.55 445.518   8
   2   0 -10 2087.72 233.615   1
   2   0 -10 2475.47 308.848   3
   2   0  -9 20279.9 983.650   3
  -2   0   9 21866.6 1847.76   6
  -2   0   9 22724.8 1249.03   8
   2   0  -9 20173.8 1316.30   8
   2   0  -8 40.9045 55.7666   3
  -2   0   8 322.498 185.554   8
   2   0  -8-14.9296 69.8018   8
  -2   0   8 281.334 258.872   6
   2   0  -7 17357.0 989.338   3
  -2   0   7 18058.5 1057.84   8
  -2   0   7 20408.9 1657.92   6
   2   0  -7 16124.4 1110.02   8
  -2   0   6 1187.04 284.362   8
   2   0  -6 1046.09 237.467   3
   2   0  -6 1515.05 408.081   6
   2   0  -6 1124.41 294.168   8
  -2   0   6 609.301 312.121   6
   2   0  -5 13768.6 978.476   8
   2   0  -5 13283.9 901.401   3
  -2   0   5 11624.5 1128.01   6
   2   0  -5 13316.3 1138.77   6
  -2   0   5 13185.5 904.646   8
   2   0  -4 55002.2 1853.71   3
   2   0  -4 52615.8 1878.55   8
  -2   0   4 53740.0 2307.84   6
  -2   0   4 53002.9 1834.85   8
   2   0  -4 52896.0 2371.18   4
  -2   0   3 5999.49 632.905   8
   2   0  -3 6758.15 637.260   2
   2   0  -3 6359.60 646.692   3
   2   0  -3 5803.08 735.974   4
  -2   0   3 4847.57 658.942   6
  -2   0   2 25450.6 1226.10   2
   2   0  -2 25577.4 1445.53   4
  -2   0   1 201.693 162.956   3
  -2   0   1-57.1999 149.566   2
   2   0  -1 219.207 176.075   4
  -2   0   0 2025.32 388.683   3
  -2   0   0 2172.86 381.928   2
  -2   0  -1 169453. 3596.85   3
   2   0   1 164974. 3451.19   5
  -2   0  -1 169010. 3534.05   2
   2   0   1 170796. 2978.94   7
  -2   0  -2 23581.4 1342.08   2
  -2   0  -2 20801.4 1290.24   3
   2   0   2 20997.3 1295.67   5
   2   0   2 21354.0 1166.79   7
  -2   0  -3 94994.1 2834.28   3
   2   0   3 97351.5 2923.21   5
   2   0   3 99095.8 2502.89   9
  -2   0  -3 94533.9 2814.45   2
   2   0   3 96916.8 2765.96   7
  -2   0  -4 119.376 83.4097   3
  -2   0  -4 226.053 181.945   2
   2   0   4 148.901 132.088   2
   2   0   4 140.194 148.325   9
  -2   0  -5 2814.03 519.720   9
  -2   0  -5 3476.38 593.523   3
  -2   0  -5 2836.28 532.431   2
   2   0   5 2762.54 501.627   2
   2   0   5 3132.59 549.998   9
   2   0   6 2843.09 434.687   6
   2   0   6 2511.59 487.086   2
  -2   0  -6 2603.48 583.196   5
  -2   0  -6 2778.83 523.796   3
  -2   0  -6 2627.98 548.510   2
  -2   0  -6 2788.61 557.138   9
  -2   0  -7 6485.44 897.884   9
   2   0   7 6857.86 710.811   6
  -2   0  -7 7583.03 886.693   3
   2   0   7 6543.65 822.828   2
  -2   0  -7 6706.72 988.455   5
  -2   0  -7 6667.11 880.135   2
   2   0   8 11387.5 965.807   6
  -2   0  -8 12993.5 1411.67   5
  -2   0  -8 10038.3 1041.26   3
  -2   0  -8 12479.7 1343.20   9
   2   0   8 10014.2 1033.81   2
  -2   0  -8 10965.5 1179.89   2
   2   0   9 1637.85 391.082   6
  -2   0  -9 1253.59 362.938   3
  -2   0  -9 1604.78 466.322   2
   2   0   9 1615.09 366.546   1
  -2   0  -9 2118.62 588.326   9
  -2   0  -9 1256.90 459.157   5
   2   0  10-61.0877 47.5004   1
  -2   0 -10-58.7519 72.2158   3
  -2   0 -10 126.678 140.978   2
   2   0  10-115.527 132.596   6
  -2   0 -10 121.625 128.977   9
  -2   0 -10 74.8039 148.686   5
  -2   0 -11 1201.70 506.663   5
  -2   0 -11 1074.75 359.727   3
   2   0  11 793.868 367.648   6
   2   0  11 624.287 238.124   1
  -2   0 -11 1393.00 563.632   9
  -2   0 -11 1101.13 411.584   2
  -2   0 -11 940.562 448.436   7
  -2   0 -12 1994.74 592.169   2
  -2   0 -12 1246.46 506.219   5
   2   0  12 1959.05 516.830   6
  -2   0 -12 620.202 387.580   7
  -2   0 -12 1041.51 357.851   3
  -2   0 -12 1632.05 586.345   9
   2   0  13 11914.3 1326.62   6
  -2   0 -13 10915.6 1421.96   2
  -2   0 -13 10640.5 1654.82   5
  -2   0 -13 11932.7 1845.43   7
  -2   0 -13 13006.8 1776.46   9
  -2   0 -14-101.009 149.413   2
   2   0  14 426.340 267.416   6
  -2   0 -14 42.3774 191.354   7
  -2   0 -14-141.498 235.889   9
  -2   0 -14-180.309 232.182   5
   2   0  15 1612.11 494.470   6
  -2   0 -15 780.747 350.168   2
  -2   0 -15 1029.60 602.870   5
  -2   0 -15 1060.59 668.856   7
  -2   0 -15 1183.02 626.167   9
  -2   0 -16 2192.17 758.204   5
  -2   0 -16 1908.95 794.442   9
  -2   0 -16 2888.58 1014.91   7
  -2   0 -17-52.0191 110.921   5
  -2   0 -17-35.2882 348.254   9
  -2   0 -17 3.33378 392.250   7
  -2   0 -18 1229.44 746.238   9
  -2   0 -18 1714.75 789.186   5
  -2   0 -18 1216.27 717.145   7
  -2   0 -19-3.89070 371.049   7
  -2   0 -19-70.3709 213.909   9
  -2   0 -19 0.98929 207.225   5
  -2   0 -20 970.615 620.743   9
  -2   0 -20 103.500 429.923   7
   2   1 -21 1514.88 726.613   4
   2   1 -21 123.504 510.032   7
   2   1 -20 1561.92 861.884   4
   2   1 -20 1030.18 664.364   7
   2   1 -20 34.5263 182.533   9
   2   1 -19 519.205 251.844   4
   2   1 -19 453.512 468.489   9
   2   1 -18-877.101 583.892   4
  -2  -1  17 1124.03 551.518   6
  -2  -1  16 517.853 387.998   6
  -2  -1  15-218.072 134.882   6
   2   1 -15 76.9878 112.437   2
  -2  -1  14 77.6627 182.288   6
  -2  -1  13 7448.55 1230.88   6
  -2  -1  13 6880.87 854.641   8
  -2  -1  12 289.071 190.324   8
  -2  -1  12 437.879 223.977   6
   2   1 -12 77.3602 68.7199   1
   2   1 -11 8626.34 993.813   8
  -2  -1  11 9295.78 945.923   8
  -2  -1  11 8456.22 1229.32   6
  -2  -1  10 21053.3 1377.75   8
  -2  -1  10 19286.0 1750.63   6
   2   1 -10 18159.3 1401.42   8
   2   1  -9 6757.67 834.911   8
  -2  -1   9 7116.52 780.868   8
  -2  -1   9 5745.55 910.607   6
  -2  -1   8 101527. 3704.63   6
  -2  -1   8 100375. 2837.75   8
   2   1  -8 96823.9 3037.74   8
   2   1  -7 7969.83 1089.67   4
  -2  -1   7 8508.95 1027.71   6
   2   1  -7 8687.67 961.527   6
   2   1  -7 9727.75 938.511   8
  -2  -1   7 10276.1 902.249   8
   2   1  -6 573.837 251.120   6
  -2  -1   6 599.471 282.708   6
   2   1  -6 461.129 242.933   4
  -2  -1   6 399.200 197.307   8
   2   1  -6 301.322 157.392   8
   2   1  -5 2938.28 590.250   4
  -2  -1   5 3082.93 480.107   8
   2   1  -5 3058.87 535.062   6
   2   1  -5 3229.16 520.929   8
  -2  -1   4 67771.4 2224.05   8
   2   1  -4 69022.6 2312.06   8
   2   1  -4 63996.4 2574.12   4
  -2  -1   3 106586. 2763.54   8
   2   1  -3 98294.9 3008.06   4
  -2  -1   2 26419.0 1378.09   8
   2   1  -2 27042.5 1497.38   4
  -2  -1   1 17556.4 1145.48   8
   2   1   0 100688. 1850.12   7
  -2  -1   0 103914. 2741.41   2
   2   1   0 102000. 2640.10   5
   2   1   1 4154.14 570.336   5
   2   1   1 3900.23 425.129   7
  -2  -1  -1 4244.20 577.118   2
  -2  -1  -2 26254.2 1460.04   2
   2   1   2 24771.1 1240.37   7
  -2  -1  -3 4441.14 620.660   2
   2   1   3 4893.72 656.174   3
   2   1   3 4231.36 572.470   9
  -2  -1  -4 29694.4 1678.37   2
   2   1   4 29547.9 1614.68   2
  -2  -1  -4 29112.7 1629.60   3
   2   1   4 33016.1 1735.00   9
   2   1   4 29763.5 1666.01   3
  -2  -1  -5 1858.76 432.116   2
   2   1   5 1910.72 450.441   9
   2   1   5 1891.51 420.193   2
  -2  -1  -5 2159.84 471.186   3
   2   1   6 29563.2 1684.34   2
  -2  -1  -6 30685.8 1808.51   2
  -2  -1  -6 27599.5 1636.15   3
   2   1   6 29914.6 1545.34   6
  -2  -1  -7 2278.18 531.204   2
   2   1   7 2280.87 457.906   6
   2   1   7 2345.73 503.609   2
  -2  -1  -8 125.656 98.7015   2
   2   1   8 59.8985 109.305   2
   2   1   8 48.5115 71.9499   6
  -2  -1  -8 503.960 354.258   9
   2   1   9 1845.38 448.350   6
  -2  -1  -9 1721.33 478.094   2
  -2  -1  -9 1443.91 529.551   9
  -2  -1  -9 2064.88 627.539   7
  -2  -1 -10 2786.18 656.031   2
  -2  -1 -10 2023.88 607.505   9
  -2  -1 -10 2372.79 785.799   7
   2   1  10 2679.80 569.965   6
  -2  -1 -11 1093.19 520.654   9
  -2  -1 -11 1494.53 461.585   2
   2   1  11 909.070 261.921   1
  -2  -1 -11 1599.39 603.209   7
   2   1  11 1142.63 366.045   6
   2   1  12-149.065 182.244   6
  -2  -1 -12-195.883 368.011   9
  -2  -1 -12-244.900 212.900   2
  -2  -1 -12-55.5146 194.663   7
  -2  -1 -13 1772.56 702.072   9
  -2  -1 -13 1255.74 495.164   2
   2   1  13 1079.14 443.601   6
  -2  -1 -13 324.503 332.151   5
  -2  -1 -13 874.463 575.813   7
   2   1  14 15745.2 1683.45   6
  -2  -1 -14 18818.6 2277.36   9
  -2  -1 -14 17140.8 2197.08   5
  -2  -1 -14 14497.0 1612.72   2
  -2  -1 -14 16406.8 2295.34   7
   2   1  15 1740.59 587.887   6
  -2  -1 -15 1518.29 698.012   5
  -2  -1 -15 3106.18 1020.93   9
  -2  -1 -15 1616.61 726.653   7
   2   1  16-57.8324 143.984   6
  -2  -1 -16 323.835 289.534   5
  -2  -1 -16 148.087 327.226   7
  -2  -1 -17 382.555 394.507   9
  -2  -1 -17-671.678 485.332   5
  -2  -1 -17-583.665 504.153   7
  -2  -1 -18-13.6617 532.253   9
  -2  -1 -18-0.99593 396.316   5
  -2  -1 -18 245.748 296.798   7
  -2  -1 -19-377.997 408.267   9
  -2  -1 -19 16.9839 280.059   5
  -2  -1 -19-30.5068 200.319   7
  -2  -1 -20-624.940 534.726   9
   2   2 -21 279.005 555.836   9
   2   2 -21-238.888 372.443   4
   2   2 -21 755.049 708.213   7
   2   2 -20 184.979 219.436   4
   2   2 -20 108.921 266.194   7
   2   2 -20 211.090 395.527   9
   2   2 -19 189.899 443.717   4
   2   2 -19-433.630 445.344   7
   2   2 -18 1854.97 814.664   4
   2   2 -17 161.518 324.634   4
   2   2 -16 1139.67 434.652   2
   2   2 -16 1944.95 720.135   4
  -2  -2  15 108.611 163.375   6
   2   2 -15 149.912 202.800   4
   2   2 -14 4386.11 1068.77   4
   2   2 -14 4000.88 508.533   1
  -2  -2  14 4412.19 763.635   8
  -2  -2  14 4593.32 977.907   6
   2   2 -13 527.930 194.508   1
  -2  -2  13-53.7802 202.073   6
   2   2 -13 983.187 493.893   4
  -2  -2  13 417.716 232.469   8
  -2  -2  12 10861.1 1370.87   6
  -2  -2  12 11942.9 1180.89   8
   2   2 -12 13886.6 1774.79   4
   2   2 -11 5714.84 1074.30   4
  -2  -2  11 3831.49 794.494   6
  -2  -2  11 4676.90 710.550   8
   2   2 -10 1342.42 508.565   4
  -2  -2  10 2155.55 480.077   8
   2   2  -9 23569.4 1630.74   6
  -2  -2   9 25916.2 1610.59   8
   2   2  -9 25423.4 2105.75   4
  -2  -2   8 11611.8 1061.21   8
   2   2  -8 11868.7 1132.57   6
   2   2  -8 12079.3 1148.30   8
   2   2  -8 11532.8 1347.40   4
   2   2  -7 525.812 253.709   6
   2   2  -7 720.442 325.096   4
  -2  -2   7 299.360 181.769   8
   2   2  -7 537.710 225.246   8
   2   2  -6 11041.4 1057.43   6
   2   2  -6 12299.2 1100.19   8
  -2  -2   6 10614.3 963.216   8
   2   2  -6 9749.36 1106.26   4
   2   2  -5 3389.03 588.645   6
   2   2  -5 2246.42 458.091   8
  -2  -2   5 2631.69 483.243   8
   2   2  -5 2821.91 572.124   4
   2   2  -4 7299.87 860.885   4
  -2  -2   4 7003.65 767.911   8
  -2  -2   3 70155.6 2404.63   8
  -2  -2   2 8174.80 822.566   8
   2   2  -2 7321.82 650.000   5
   2   2  -1 2428.60 407.022   5
  -2  -2   1 2252.22 441.345   8
  -2  -2   0 26938.8 1499.07   8
   2   2   0 27003.2 850.495   7
  -2  -2   0 26001.9 828.866   7
  -2  -2  -1 43747.1 1929.10   2
  -2  -2  -1 41613.5 1863.19   8
  -2  -2  -1 41833.4 1351.57   7
  -2  -2  -2 1684.92 397.159   2
  -2  -2  -2 1702.10 320.704   7
  -2  -2  -3 14515.9 1145.78   2
   2   2   3 13724.7 1151.38   3
   2   2   3 13833.4 1122.33   2
   2   2   4 208.039 120.328   9
   2   2   4 538.345 229.977   3
  -2  -2  -4 247.331 147.657   2
   2   2   4 298.788 167.590   2
   2   2   5 34546.1 1768.01   6
  -2  -2  -5 35414.9 1908.91   2
   2   2   5 32154.7 1769.66   2
   2   2   5 38600.8 1966.89   3
   2   2   6 4120.28 649.763   3
   2   2   6 4417.99 649.892   6
  -2  -2  -6 3661.58 639.586   2
   2   2   6 3229.09 567.080   2
   2   2   7 1978.89 447.216   2
  -2  -2  -7 2129.56 495.950   2
   2   2   7 1903.01 447.977   6
   2   2   8 964.005 330.063   6
  -2  -2  -8 794.340 285.151   2
   2   2   8 652.148 257.431   2
   2   2   9-22.6040 164.862   2
  -2  -2  -9 66.8458 186.656   2
   2   2   9 164.351 164.612   6
  -2  -2  -9 46.0594 217.825   9
  -2  -2 -10 6045.44 1122.45   9
  -2  -2 -10 7409.76 1018.49   2
   2   2  10 5680.02 893.336   6
  -2  -2 -11 1634.94 641.017   9
   2   2  11 2195.46 576.890   6
  -2  -2 -11 1211.45 410.855   2
  -2  -2 -12 921.361 341.540   2
  -2  -2 -12 1458.22 581.776   9
   2   2  12 1124.22 432.450   6
  -2  -2 -12 423.978 344.065   7
   2   2  13 7248.84 1152.24   6
  -2  -2 -13 5103.40 902.417   2
  -2  -2 -13 6310.74 1370.67   7
  -2  -2 -13 4004.97 1069.83   9
  -2  -2 -14 3150.66 1066.55   7
   2   2  14 3268.98 830.898   6
  -2  -2 -14 3749.14 1017.06   9
  -2  -2 -15 719.842 566.372   9
   2   2  15 61.0686 253.769   6
  -2  -2 -15 686.755 520.119   5
  -2  -2 -15-696.406 519.378   7
  -2  -2 -16 514.477 288.356   9
  -2  -2 -16 200.854 283.892   5
   2   2  16 618.271 374.404   6
  -2  -2 -16 701.459 605.059   7
  -2  -2 -17 1178.83 657.719   5
  -2  -2 -17 390.760 427.432   9
  -2  -2 -17-343.562 414.681   7
  -2  -2 -18 482.685 477.911   5
  -2  -2 -18 62.7765 352.812   9
  -2  -2 -18-233.589 361.425   7
  -2  -2 -19-835.923 589.583   5
  -2  -2 -19 1403.68 856.813   9
  -2  -2 -19 1083.39 770.327   7
   2   3 -21-897.567 664.873   7
   2   3 -20 393.639 415.370   4
   2   3 -20 36.5246 287.734   7
   2   3 -19-313.248 240.861   7
   2   3 -19 351.423 450.583   4
   2   3 -18 540.006 489.835   4
   2   3 -18-226.688 319.478   7
   2   3 -17-50.3160 173.469   4
   2   3 -17 77.4213 187.446   2
   2   3 -17-523.152 469.852   7
   2   3 -16-159.582 262.689   4
   2   3 -15 191.901 159.570   4
   2   3 -15-54.1638 77.4344   1
   2   3 -14 969.481 304.972   1
   2   3 -14 509.072 119.694   4
  -2  -3  14 896.161 344.611   8
  -2  -3  13 6759.61 961.682   8
   2   3 -13 7318.57 1302.71   4
   2   3 -13 7530.56 824.239   1
   2   3 -12 1262.14 487.037   4
  -2  -3  12 1635.98 466.148   8
  -2  -3  11 639.989 310.718   8
   2   3 -11 62.1151 113.905   4
   2   3 -10 11333.5 1142.89   6
  -2  -3  10 13173.6 1276.10   8
   2   3 -10 13919.7 1605.26   4
   2   3  -9 17300.8 1386.71   6
  -2  -3   9 19969.9 1516.71   8
   2   3  -9 20239.0 1804.22   4
   2   3  -8 5968.12 801.955   6
  -2  -3   8 6151.70 821.443   8
   2   3  -8 5611.67 896.741   4
   2   3  -7 37234.3 2245.35   4
   2   3  -7 33930.1 1903.74   6
  -2  -3   7 39553.3 2046.29   8
   2   3  -6 12521.3 1172.36   8
   2   3  -6 11681.3 1205.62   4
  -2  -3   6 10896.3 1048.69   8
  -2  -3   6 13982.5 1308.01   4
  -2  -3   5 78.8329 96.4825   8
  -2  -3   5 54.5456 180.548   4
   2   3  -5-13.9998 112.058   4
   2   3  -4 17290.1 884.584   5
  -2  -3   4 19468.8 1371.57   8
   2   3  -3 231.332 134.366   5
  -2  -3   3 301.418 156.230   8
  -2  -3   2 5823.77 607.113   5
  -2  -3   2 5450.17 705.820   8
  -2  -3   1 77426.9 2635.45   8
  -2  -3   0 5500.46 388.503   7
  -2  -3   0 6298.20 752.864   8
  -2  -3  -1 25978.4 1500.15   8
   2   3   2 1251.26 353.094   2
  -2  -3  -2 973.131 309.113   8
  -2  -3  -3 11658.7 1018.76   8
   2   3   3 10210.9 1014.03   2
   2   3   4 7266.64 857.838   2
  -2  -3  -4 6902.33 834.056   2
  -2  -3  -4 6155.37 758.246   8
   2   3   5 30847.0 1849.86   3
  -2  -3  -5 30937.2 1798.02   2
   2   3   5 29829.6 1749.47   2
   2   3   5 30909.2 1820.36   6
   2   3   6 6276.27 852.573   3
   2   3   6 5883.94 811.042   6
  -2  -3  -6 4683.10 728.551   2
   2   3   6 5059.48 737.841   2
   2   3   7 100.466 131.058   3
   2   3   7 53.5216 95.2703   2
  -2  -3  -7 15.3916 71.9570   2
   2   3   7 40.9580 105.459   6
  -2  -3  -8 4014.46 696.485   2
   2   3   8 3685.23 619.361   2
   2   3   8 3625.69 698.006   6
   2   3   9 170.005 137.481   6
  -2  -3  -9-38.2566 140.146   2
   2   3   9 52.5384 90.1692   2
  -2  -3 -10 555.770 286.891   2
   2   3  10 581.562 287.720   6
  -2  -3 -10-230.089 322.725   9
  -2  -3 -11 1303.17 525.993   9
  -2  -3 -11 1523.62 457.096   2
   2   3  11 2630.65 653.640   6
  -2  -3 -12 6913.15 1404.39   9
   2   3  12 6895.31 1148.09   6
  -2  -3 -12 6369.78 951.198   2
   2   3  13 11021.9 1526.21   6
  -2  -3 -13 11077.7 1806.51   9
  -2  -3 -13 11586.5 1315.23   2
   2   3  14 1000.45 441.701   6
  -2  -3 -14 1614.09 692.857   9
  -2  -3 -14 19.8445 227.087   7
  -2  -3 -15 411.932 178.257   7
  -2  -3 -15 429.984 510.581   9
   2   3  15-95.2432 254.592   6
  -2  -3 -16 130.744 241.577   9
   2   3  16-19.5707 188.315   6
  -2  -3 -16-910.308 584.212   5
  -2  -3 -16-279.448 457.010   7
  -2  -3 -17 2651.56 1016.42   5
  -2  -3 -17 1476.42 680.514   7
  -2  -3 -18-261.193 345.687   5
  -2  -3 -18 331.109 548.240   7
  -2  -3 -19 328.440 400.319   5
  -2  -3 -20 186.830 336.774   5
   2   4 -21 215.346 254.464   7
   2   4 -20 130.743 260.543   7
   2   4 -19 263.644 470.725   7
   2   4 -19 165.443 390.977   4
   2   4 -18 123.519 299.254   4
   2   4 -18-298.363 493.977   7
   2   4 -17 2518.72 901.784   4
   2   4 -17 1334.20 724.475   7
   2   4 -16 2757.98 901.781   4
   2   4 -16 1051.68 552.183   7
   2   4 -15 359.064 260.213   4
   2   4 -15-46.8014 73.3340   1
   2   4 -15-170.869 245.118   7
  -2  -4  15-103.119 246.135   8
   2   4 -14 875.958 513.399   7
  -2  -4  14 1537.52 502.041   8
   2   4 -14 1553.34 409.022   1
   2   4 -14 1558.66 618.362   4
  -2  -4  13 310.492 198.323   8
   2   4 -13 224.252 149.641   4
   2   4 -12 5042.83 1018.39   4
  -2  -4  12 4452.79 824.077   8
  -2  -4  11 1896.01 491.466   8
   2   4 -11 2138.42 659.715   4
   2   4 -10 6933.11 886.136   6
  -2  -4  10 7534.38 1003.50   8
   2   4 -10 6889.05 1089.27   4
   2   4  -9 8973.91 1198.45   4
  -2  -4   9 9953.74 1122.95   8
   2   4  -9 7894.78 938.278   6
   2   4  -8 12839.9 1193.90   6
  -2  -4   8 13083.1 1290.64   8
   2   4  -8 14106.7 1434.78   4
  -2  -4   7 242.864 180.316   4
  -2  -4   7 208.496 182.220   8
   2   4  -7 594.263 328.673   4
   2   4  -6 3807.60 335.186   5
  -2  -4   6 5183.06 831.830   4
  -2  -4   6 4017.23 694.348   8
   2   4  -6 4492.94 616.815   7
  -2  -4   5 595.696 312.942   8
  -2  -4   5 1271.01 429.126   4
   2   4  -5 937.771 244.720   7
   2   4  -4 46525.7 1365.27   7
  -2  -4   4 52292.6 2366.45   8
  -2  -4   3 5705.34 772.280   8
  -2  -4   3 5747.38 603.275   5
  -2  -4   2 41692.8 1774.64   5
  -2  -4   2 41590.4 2056.21   8
  -2  -4   1-123.644 164.886   8
   2   4   0 24783.8 1607.15   8
  -2  -4   0 23947.1 1542.71   8
   2   4   1 13286.8 1169.14   8
  -2  -4  -1 14604.0 1197.80   8
   2   4   1 13191.3 1199.59   2
   2   4   2 830.429 308.027   2
  -2  -4  -2 1015.66 330.150   8
   2   4   3 919.047 325.215   2
  -2  -4  -3 951.130 337.902   8
  -2  -4  -4 626.319 268.150   8
   2   4   4 459.625 241.175   6
   2   4   4 234.862 163.657   2
   2   4   5 1399.57 403.489   2
   2   4   5 1256.88 403.628   6
  -2  -4  -5 1306.55 378.849   8
   2   4   6 157.999 209.055   3
   2   4   6 42.8358 178.827   6
   2   4   6-114.745 147.564   2
  -2  -4  -6-37.6887 102.491   8
  -2  -4  -7 9142.99 921.835   8
   2   4   7 8565.35 1133.57   6
   2   4   7 8847.64 1040.55   3
   2   4   7 7987.92 935.986   2
   2   4   8 343.820 213.246   2
   2   4   8-66.7422 163.005   3
   2   4   8 97.0897 183.841   6
  -2  -4  -8 167.947 168.456   8
  -2  -4  -9 1771.97 458.533   2
   2   4   9 912.267 383.678   6
   2   4   9 1351.95 391.659   2
  -2  -4  -9 1140.18 313.911   8
  -2  -4 -10 454.843 206.281   8
  -2  -4 -10 616.952 289.062   2
   2   4  10 585.751 334.164   6
   2   4  11 4475.17 933.011   6
  -2  -4 -11 5099.66 656.073   8
   2   4  12 12867.0 1643.67   6
   2   4  13 1616.28 618.831   6
   2   4  14-473.807 354.087   6
   2   4  15 1515.09 613.380   6
  -2  -4 -15 1449.60 776.013   7
  -2  -4 -16 176.077 457.689   7
   2   4  16 1266.54 545.747   6
   2   4  17 251.604 254.959   6
  -2  -4 -17 32.3052 184.274   7
  -2  -4 -18-611.247 529.400   5
  -2  -4 -18-548.571 538.250   7
  -2  -4 -19-602.098 541.903   5
   2   5 -22 121.706 622.535   7
   2   5 -21 783.317 684.837   7
   2   5 -20 516.062 544.167   7
   2   5 -19 1450.39 688.834   4
   2   5 -19 1732.61 830.981   7
   2   5 -18 77.0615 358.414   7
   2   5 -18 850.659 488.665   4
   2   5 -17 1487.66 735.872   4
   2   5 -17 2080.80 863.884   7
   2   5 -16 19.7759 80.6324   1
   2   5 -16 254.787 364.588   7
   2   5 -16-21.2618 301.865   4
  -2  -5  16 321.370 304.917   8
   2   5 -15 9899.12 1596.59   4
   2   5 -15 8540.18 1497.45   7
  -2  -5  15 8023.49 1231.77   8
   2   5 -15 10022.8 1171.97   1
   2   5 -14 951.348 495.910   4
   2   5 -14 360.595 134.702   5
  -2  -5  14 31.1231 153.832   8
   2   5 -14 857.218 483.132   7
   2   5 -13 802.807 191.316   5
   2   5 -13 504.568 380.123   4
  -2  -5  13 456.653 255.001   8
   2   5 -13 1145.62 499.963   7
   2   5 -12 641.398 136.638   5
  -2  -5  12 696.202 341.339   8
   2   5 -12 831.775 403.212   4
   2   5 -12 578.366 323.566   7
   2   5 -11-54.7758 74.0576   6
  -2  -5  11 183.937 255.288   8
   2   5 -11-45.5731 136.469   4
   2   5 -11-78.2688 171.944   7
   2   5 -10 104.918 133.552   6
  -2  -5  10-168.512 250.786   8
   2   5 -10 75.5171 217.416   4
   2   5 -10 19.7346 197.645   7
   2   5  -9 10104.4 1098.93   6
  -2  -5   9 11440.9 1296.81   8
   2   5  -9 12743.0 1411.00   4
   2   5  -9 10516.5 1210.48   7
  -2  -5   8 6149.42 930.337   8
   2   5  -8 4864.02 762.643   7
   2   5  -7 2014.60 451.226   7
  -2  -5   7 2202.57 565.359   8
  -2  -5   6 26919.7 1842.41   8
   2   5  -6 23627.5 1340.11   7
  -2  -5   6 25613.2 1867.03   4
  -2  -5   5 1102.13 402.821   8
   2   5  -5 1551.35 310.256   7
  -2  -5   5 1285.35 446.504   4
  -2  -5   4 664.081 206.159   5
  -2  -5   4 829.753 325.944   8
  -2  -5   3 48991.5 2371.53   8
  -2  -5   3 49910.2 1936.75   5
  -2  -5   2 25045.1 1675.55   8
  -2  -5   1 8034.29 921.569   8
  -2  -5   0 253.602 112.199   8
   2   5   0 68.9792 115.829   8
   2   5   1 6057.85 837.705   8
  -2  -5  -1 5641.37 767.133   8
   2   5   2 12653.9 1189.60   8
  -2  -5  -2 12054.1 1124.30   8
   2   5   2 12702.3 1250.01   2
   2   5   3 52148.0 2522.50   6
  -2  -5  -3 47510.7 2179.08   8
   2   5   3 45128.3 2334.60   2
   2   5   4 1275.96 396.550   2
   2   5   4 1700.35 475.902   6
  -2  -5  -4 1371.40 373.839   8
   2   5   5 87.6903 162.769   6
   2   5   5 271.194 214.500   2
  -2  -5  -5 166.072 156.557   8
   2   5   6 9183.52 1196.75   6
   2   5   6 7836.43 968.473   2
  -2  -5  -6 9692.87 956.875   8
   2   5   7 186.731 94.9692   6
   2   5   7 473.615 258.466   2
  -2  -5  -7 278.898 210.869   8
   2   5   7 528.180 308.040   3
   2   5   8 1860.17 594.992   6
   2   5   8 1253.20 390.825   3
   2   5   8 1105.09 346.548   2
  -2  -5  -8 1163.46 308.785   8
   2   5   9 851.632 452.390   6
  -2  -5  -9 527.652 206.102   8
   2   5  10 3519.88 847.592   6
  -2  -5 -10 2189.40 396.448   8
   2   5  11 5430.53 1072.09   6
   2   5  12 686.104 341.307   6
   2   5  13-238.337 301.829   6
   2   5  14 206.282 232.137   6
   2   5  15 704.535 509.553   6
  -2  -5 -16 1043.75 705.187   7
   2   5  16 476.116 407.134   6
   2   5  17 12.1109 224.581   6
  -2  -5 -17 603.866 586.590   7
  -2  -5 -18 380.961 433.677   5
   2   6 -22 274.484 255.240   7
   2   6 -21-428.623 455.545   7
   2   6 -20 670.323 469.982   7
   2   6 -19 729.999 526.725   7
   2   6 -18 62.6087 197.269   4
   2   6 -18 190.884 283.462   7
   2   6 -17 537.548 427.791   7
   2   6 -17-226.735 270.139   4
  -2  -6  16 2637.79 732.626   8
   2   6 -16 2005.80 568.684   1
   2   6 -16 1748.39 671.497   7
   2   6 -16 2922.75 878.308   4
  -2  -6  15 1285.64 538.668   8
   2   6 -15 1213.72 565.012   7
   2   6 -15 1665.61 520.201   1
   2   6 -15 1380.40 604.685   4
   2   6 -14 1367.76 632.958   7
  -2  -6  14 1001.89 411.425   8
   2   6 -14 1405.43 555.488   4
   2   6 -13 1887.39 632.879   7
  -2  -6  13 1934.39 625.459   8
   2   6 -13 2092.85 663.157   4
   2   6 -12-179.509 150.390   6
  -2  -6  12 38.1526 156.503   8
   2   6 -12 276.729 316.748   7
   2   6 -12 134.241 226.709   4
   2   6 -11 2997.17 719.853   7
  -2  -6  11 2274.94 623.808   8
   2   6 -11 2999.18 606.967   6
   2   6 -10 2605.21 645.302   7
  -2  -6  10 2958.63 733.446   8
   2   6 -10 2134.22 517.057   6
  -2  -6   9 2045.27 568.840   8
   2   6  -9 1977.82 514.549   7
   2   6  -8 1522.10 395.636   7
  -2  -6   8 1706.80 539.141   8
  -2  -6   7 904.688 382.621   8
   2   6  -7 1401.90 364.489   7
  -2  -6   6 13778.7 1404.86   8
   2   6  -6 12293.0 940.787   7
  -2  -6   5 1042.34 254.971   5
  -2  -6   5 1080.58 465.079   8
  -2  -6   4 10122.8 628.240   7
  -2  -6   4 12347.9 1286.65   8
  -2  -6   3 80007.3 3243.47   8
  -2  -6   3 75531.4 1534.58   7
  -2  -6   2 1076.81 350.565   8
  -2  -6   1 1309.35 361.969   8
  -2  -6   0 438.001 232.269   8
  -2  -6  -1 10498.2 1110.14   8
   2   6   2 172.837 260.602   6
  -2  -6  -2 100.421 154.191   8
   2   6   2 100.177 79.9866   8
   2   6   3 23544.0 1816.64   6
  -2  -6  -3 18484.0 1413.92   8
   2   6   4 483.868 263.233   6
  -2  -6  -4 218.563 99.8906   8
   2   6   5 2399.43 624.566   6
  -2  -6  -5 2227.95 472.042   8
   2   6   6 563.418 403.537   6
  -2  -6  -6 232.566 132.027   8
  -2  -6  -7 58.4322 50.2574   8
   2   6   7-1.97394 196.454   6
  -2  -6  -8 3034.93 502.608   8
   2   6   8 3469.44 825.795   6
  -2  -6  -9 14.4322 85.9064   8
   2   6   9-94.4035 268.154   6
   2   6  10 1169.79 529.819   6
   2   6  11-6.51351 322.077   6
   2   6  12 518.911 375.627   6
   2   6  13 1127.33 566.236   6
   2   6  14 211.417 128.222   6
   2   6  15-146.755 313.021   6
   2   6  16-603.421 469.331   6
  -2  -6 -16-397.826 437.191   7
   2   6  17 58.9099 182.963   6
  -2  -6 -17 683.860 682.521   7
   2   7 -22 256.409 365.186   7
   2   7 -21 645.307 540.963   7
   2   7 -20-115.946 257.126   7
   2   7 -19 76.8744 438.071   7
   2   7 -18-616.899 477.050   7
   2   7 -17 3583.33 1064.77   7
   2   7 -17 4178.40 876.595   1
  -2  -7  17 3905.78 972.540   8
   2   7 -17 2318.56 796.319   4
  -2  -7  16 269.879 239.463   8
   2   7 -16 54.4753 177.643   7
   2   7 -16 687.237 373.332   1
   2   7 -16 97.9599 252.541   4
   2   7 -15 164.723 170.421   7
  -2  -7  15 946.630 457.138   8
  -2  -7  14 1533.48 571.429   8
   2   7 -14 1498.37 614.583   7
   2   7 -13 2415.24 686.852   7
  -2  -7  13 1817.77 621.064   8
   2   7 -12 846.150 460.950   7
  -2  -7  12 315.659 259.811   8
   2   7 -11 184.178 56.3550   6
  -2  -7  11 984.589 422.704   8
   2   7 -11 384.702 193.353   7
   2   7 -10 4147.92 787.414   7
  -2  -7  10 2496.23 698.979   8
   2   7  -9 571.820 296.237   7
  -2  -7   9 1018.15 478.528   8
  -2  -7   8 5980.80 1011.62   8
   2   7  -8 5289.36 755.034   7
   2   7  -7 345.707 201.369   7
  -2  -7   7 478.168 327.529   8
  -2  -7   6 8153.26 1131.61   8
  -2  -7   6 7835.40 700.457   5
  -2  -7   5 10814.1 777.254   7
  -2  -7   5 12087.6 1356.18   8
  -2  -7   4 42496.5 2505.95   8
  -2  -7   4 38700.7 1345.03   7
  -2  -7   3 1466.09 251.084   7
  -2  -7   3 2262.37 565.445   8
  -2  -7   2 1124.48 392.016   8
  -2  -7   1 143.470 182.282   8
  -2  -7   0 3743.39 717.237   8
   2   7   1 3399.04 696.753   6
  -2  -7  -1 4093.15 713.603   8
   2   7   2 3831.89 756.598   6
  -2  -7  -2 2678.07 562.416   8
   2   7   3 6096.12 1003.03   6
  -2  -7  -3 5438.90 799.839   8
  -2  -7  -4 532.838 242.908   8
   2   7   4 763.912 380.204   6
   2   7   5 1584.04 507.652   6
  -2  -7  -5 1409.90 377.453   8
   2   7   6 402.096 317.668   6
  -2  -7  -6 607.448 257.181   8
   2   7   7 110.778 246.908   6
  -2  -7  -7 130.284 132.443   8
  -2  -7  -8-45.6051 69.5837   8
   2   7   8 474.600 175.132   6
   2   7   9-143.882 226.378   6
   2   7  10 1927.95 679.941   6
   2   7  11 36.7097 199.147   6
   2   7  12 2489.71 872.949   6
   2   7  13 432.567 354.345   6
   2   7  14-77.5757 201.037   6
   2   7  15-428.505 401.866   6
   2   7  16 585.328 478.349   6
   2   7  17-258.063 344.687   6
   2   8 -22-264.825 364.567   7
   2   8 -21 841.050 664.696   7
   2   8 -20 20.9632 154.453   7
   2   8 -19 855.857 507.343   7
   2   8 -18-234.484 325.063   7
  -2  -8  17 188.379 360.290   8
   2   8 -17 105.238 189.353   1
   2   8 -16 116.359 266.552   7
   2   8 -16-329.799 269.561   1
  -2  -8  16-54.4655 162.417   8
   2   8 -15 378.043 382.024   7
  -2  -8  15-358.244 354.608   8
   2   8 -14 23.8594 258.389   7
  -2  -8  14 535.508 367.308   8
  -2  -8  13 6626.82 1216.91   8
   2   8 -13 6719.33 1201.69   7
   2   8 -12 2229.17 655.539   7
  -2  -8  12 2993.01 813.999   8
  -2  -8  11 4487.51 938.114   8
   2   8 -11 3591.63 782.536   7
   2   8 -10 11.6115 137.027   7
  -2  -8  10 4.28684 346.459   8
   2   8  -9 12.1045 114.832   7
  -2  -8   9 320.820 300.083   8
  -2  -8   8 20.8644 163.503   8
  -2  -8   7 753.546 366.176   8
  -2  -8   7 479.509 184.771   5
  -2  -8   6 3544.28 793.818   8
  -2  -8   6 3831.06 543.990   5
  -2  -8   6 3782.06 522.587   7
  -2  -8   5-13.5296 50.9924   7
  -2  -8   5-259.164 376.281   8
  -2  -8   4 10604.6 1324.06   8
  -2  -8   4 9636.85 731.422   7
  -2  -8   3 4666.90 872.088   8
  -2  -8   2 4993.42 849.544   8
  -2  -8   1 7302.85 1034.37   8
  -2  -8   0 9564.98 1147.66   8
   2   8   0 9398.40 1203.32   6
   2   8   1 799.573 365.726   6
  -2  -8  -1 1549.44 487.755   8
   2   8   2 371.762 246.897   6
  -2  -8  -2 346.650 253.395   8
   2   8   3 3872.41 860.193   6
  -2  -8  -3 3326.38 635.130   8
  -2  -8  -4 425.805 219.188   8
   2   8   4 527.599 335.276   6
   2   8   5 79.0354 274.947   6
  -2  -8  -5 202.005 189.826   8
  -2  -8  -6 269.906 147.830   8
   2   8   6 612.457 457.821   6
   2   8   7-171.730 304.334   6
  -2  -8  -7 7.15258 72.3138   8
   2   8   8 490.851 334.651   6
   2   8   9 4236.20 1024.98   6
   2   8  10 719.655 540.485   6
   2   8  11 603.972 371.498   6
   2   8  12 57.9543 254.995   6
   2   8  13 87.9371 221.373   6
   2   8  14 14.8410 321.673   6
   2   8  15 121.094 248.152   6
   2   8  16 1039.85 730.777   6
   2   8  17 947.393 713.337   6
   2   9 -22 128.261 274.644   7
   2   9 -21 544.327 501.469   7
   2   9 -20 85.4784 212.592   7
   2   9 -19-94.9358 205.715   7
  -2  -9  18 55.5906 169.706   8
   2   9 -18-0.92005 100.368   7
   2   9 -18 17.5588 185.821   1
   2   9 -17 481.145 394.979   7
  -2  -9  17-206.043 379.861   8
   2   9 -17 613.021 384.303   1
   2   9 -16-135.418 178.387   1
  -2  -9  16 101.529 444.296   8
   2   9 -16-874.784 501.840   7
  -2  -9  15-140.861 370.017   8
   2   9 -15 795.887 425.169   7
  -2  -9  14 13605.7 1848.27   8
   2   9 -14 14420.3 1813.70   7
   2   9 -13 885.326 458.163   7
  -2  -9  13-144.769 342.101   8
   2   9 -12 2159.68 624.633   7
  -2  -9  12 2752.67 803.566   8
   2   9 -11 637.417 306.729   7
  -2  -9  11 692.007 451.357   8
  -2  -9  10 172.032 175.562   8
  -2  -9   9 1371.99 580.361   8
  -2  -9   8 3167.29 431.295   5
  -2  -9   8 4236.83 962.714   8
  -2  -9   7-37.0918 138.383   8
  -2  -9   7 241.801 166.866   5
  -2  -9   6 1065.04 425.316   8
  -2  -9   6 1049.71 285.925   7
  -2  -9   5 1025.65 480.566   8
  -2  -9   5 621.814 204.813   7
  -2  -9   4 1558.28 323.079   7
  -2  -9   4 1317.10 443.114   8
  -2  -9   3 4653.82 895.007   8
  -2  -9   2 5223.24 913.527   8
   2   9  -2 4079.95 766.910   6
  -2  -9   1 4667.69 850.561   8
   2   9  -1 6697.55 1030.38   6
  -2  -9   0 5445.19 912.983   8
   2   9   0 6602.89 1070.52   6
   2   9   1 115.190 118.931   6
  -2  -9  -1 155.455 201.979   8
   2   9   2 8003.96 1220.74   6
  -2  -9  -2 6171.26 924.023   8
   2   9   3 224.468 208.806   6
  -2  -9  -3 654.983 301.562   8
   2   9   4 158.943 204.441   6
  -2  -9  -4 28.6225 200.725   8
   2   9   5 1546.21 641.814   6
  -2  -9  -5 1776.80 486.768   8
  -2  -9  -6 573.057 265.980   8
   2   9   6-123.355 213.130   6
   2   9   7 53.5394 360.625   6
  -2  -9  -7 729.515 279.654   8
   2   9   8 10069.0 1621.90   6
   2   9   9-938.307 519.785   6
   2   9  10 3131.48 939.551   6
   2   9  11 385.727 266.889   6
   2   9  12 559.885 453.439   6
   2   9  13 701.983 424.509   6
   2   9  14 211.458 308.065   6
   2   9  15 63.0293 216.949   6
   2   9  16 1670.29 960.635   6
   2  10 -22-483.574 477.217   7
   2  10 -21-283.874 356.374   7
   2  10 -20 1455.83 731.323   7
   2  10 -19-126.930 235.011   7
   2  10 -18-422.141 339.147   1
   2  10 -18-556.102 434.008   7
  -2 -10  18-371.966 350.842   8
   2  10 -17 690.820 438.091   7
  -2 -10  17 458.258 434.946   8
   2  10 -17 23.1260 194.243   1
  -2 -10  16 83.7419 249.609   8
   2  10 -16 10.6388 180.242   7
   2  10 -15 321.022 362.427   7
  -2 -10  15 357.144 453.108   8
   2  10 -14 4271.45 976.233   7
  -2 -10  14 2613.02 785.009   8
   2  10 -13 5715.30 1079.95   7
  -2 -10  13 6054.60 1256.98   8
  -2 -10  12 267.010 276.609   8
  -2 -10  11 208.214 295.501   8
  -2 -10  10-108.610 254.485   8
  -2 -10   9 445.403 405.449   8
  -2 -10   9 465.914 161.335   5
  -2 -10   8 3330.02 516.454   5
  -2 -10   8 2767.22 782.481   8
  -2 -10   7 2064.19 645.165   8
  -2 -10   7 1486.02 374.534   7
  -2 -10   6 4094.86 909.519   8
  -2 -10   6 3645.36 556.175   7
  -2 -10   5 279.438 150.762   7
  -2 -10   5 611.272 417.790   8
  -2 -10   4 20.0039 72.5316   7
   2  10  -4 170.943 106.382   6
  -2 -10   3 3899.41 856.561   8
   2  10  -3 2874.90 683.246   6
  -2 -10   2 6231.04 1043.97   8
   2  10  -2 5848.56 1012.94   6
  -2 -10   1 2304.35 644.211   8
   2  10  -1 3597.72 820.143   6
  -2 -10   0 142.464 183.137   8
   2  10   0 99.2422 151.479   6
  -2 -10  -1 3052.13 694.273   8
   2  10   1 3666.00 907.270   6
  -2 -10  -2 171.381 191.925   8
   2  10   2 381.268 409.562   6
  -2 -10  -3-88.6485 165.783   8
   2  10   3 144.328 258.171   6
  -2 -10  -4 402.829 222.269   8
   2  10   4 219.277 230.922   6
  -2 -10  -5-60.5219 215.500   8
   2  10   5 175.326 307.154   6
   2  10   6 302.592 173.599   6
  -2 -10  -6 316.200 156.586   8
   2  10   7 5415.36 1234.98   6
   2  10   8 1409.18 633.955   6
   2  10   9 2515.28 860.682   6
   2  10  10 67.7425 315.385   6
   2  10  11-444.591 512.454   6
   2  10  12-173.858 285.181   6
   2  10  13 492.513 387.410   6
   2  10  14-623.498 528.047   6
   2  11 -20-121.735 252.980   7
   2  11 -19 684.263 601.161   7
   2  11 -19-171.789 237.770   1
   2  11 -18-233.955 288.760   7
   2  11 -18 358.179 478.565   1
  -2 -11  18 365.032 360.005   8
   2  11 -17 415.093 385.237   1
  -2 -11  17 698.310 507.256   8
   2  11 -17 404.911 427.027   7
  -2 -11  16 2280.87 823.202   8
   2  11 -16 1889.04 752.895   7
   2  11 -15 791.574 455.586   7
  -2 -11  15 383.943 372.681   8
  -2 -11  14 48.8087 350.110   8
  -2 -11  13 1659.84 721.403   8
  -2 -11  12-207.570 370.604   8
  -2 -11  11-251.408 229.090   8
  -2 -11  10 365.546 425.243   8
  -2 -11   9 949.762 269.427   5
  -2 -11   9 793.444 440.088   8
  -2 -11   8 3942.62 990.342   8
  -2 -11   8 2688.65 517.569   5
  -2 -11   7 14119.4 1812.57   8
  -2 -11   7 13267.6 1148.78   7
  -2 -11   6 3119.82 541.700   7
  -2 -11   6 3870.72 946.170   8
   2  11  -6 4048.76 795.817   6
   2  11  -5 344.850 324.318   6
  -2 -11   5 311.064 183.509   7
  -2 -11   5 261.125 289.049   8
  -2 -11   4 4640.68 1009.41   8
   2  11  -4 4718.83 901.684   6
  -2 -11   3 2178.68 680.977   8
   2  11  -3 1837.63 584.564   6
  -2 -11   2 2096.36 621.778   8
   2  11  -2 2876.51 744.139   6
   2  11  -1 3079.72 776.439   6
  -2 -11   1 3094.68 753.244   8
   2  11   0 8103.26 1314.63   6
  -2 -11   0 7399.06 1165.56   8
  -2 -11  -1 5255.06 948.008   8
   2  11   1 7174.80 1251.16   6
  -2 -11  -2 9448.75 1264.56   8
   2  11   2 8077.54 1352.07   6
   2  11   3-7.26647 256.367   6
  -2 -11  -3 53.2054 97.1940   8
  -2 -11  -4 1493.71 474.562   8
   2  11   4 2151.25 733.049   6
  -2 -11  -5 709.615 307.224   8
   2  11   5 1575.23 623.866   6
   2  11   6 617.607 420.508   6
   2  11   7 517.891 514.333   6
   2  11   8 1151.83 611.340   6
   2  11   9 1282.67 631.930   6
   2  11  10 1911.62 841.864   6
   2  11  11 141.702 361.388   6
   2  11  12 65.1770 240.294   6
   2  11  13 141.327 180.966   6
   2  12 -19 545.150 390.929   1
   2  12 -18-216.020 279.052   1
  -2 -12  18-380.939 383.321   8
  -2 -12  17 3367.98 1087.78   8
   2  12 -17 4239.62 1112.32   1
  -2 -12  16 1156.34 631.063   8
  -2 -12  15-269.294 415.424   8
  -2 -12  14 1473.43 666.375   8
  -2 -12  13 738.669 509.107   8
   2  12 -12 29.1039 132.438   6
  -2 -12  12-495.364 411.882   8
   2  12 -11 377.211 210.791   6
  -2 -12  11 885.176 550.967   8
   2  12 -10 4468.41 803.149   6
  -2 -12  10 5634.51 1267.95   8
   2  12  -9 1566.86 491.662   6
  -2 -12   9 1413.42 674.445   8
   2  12  -8 22911.1 1912.17   6
  -2 -12   8 24105.6 2454.33   8
   2  12  -7 1045.27 441.225   6
  -2 -12   7 538.233 368.224   8
  -2 -12   6 8625.73 1460.51   8
   2  12  -6 6552.07 1067.30   6
   2  12  -5 1719.96 585.156   6
  -2 -12   5 1615.41 625.185   8
  -2 -12   4 8444.16 1373.73   8
   2  12  -4 9885.42 1388.99   6
   2  12  -3 1896.06 623.670   6
  -2 -12   3 605.313 387.711   8
   2  12  -2 727.694 628.039   6
  -2 -12   2 219.069 253.346   8
   2  12  -1 294.402 211.097   6
  -2 -12   1 396.497 263.078   8
  -2 -12   0 7796.81 1224.81   8
   2  12   0 6838.19 1239.36   6
   2  12   1 7611.14 1312.31   6
  -2 -12  -1 5147.91 969.676   8
   2  12   2 389.106 203.301   6
  -2 -12  -2 655.055 336.940   8
  -2 -12  -3-43.6916 176.549   8
   2  12   3 270.012 236.782   6
  -2 -12  -4-64.6255 148.293   8
   2  12   4 273.558 549.289   6
   2  12   5-199.210 238.431   6
   2  12   6 2636.09 917.224   6
   2  12   7 350.328 395.062   6
   2  12   8 4279.17 1238.18   6
   2  12   9 533.394 541.937   6
   2  12  10 106.657 244.332   6
   2  12  11 601.810 704.413   6
   2  13 -20 83.5964 201.997   1
   2  13 -19 131.040 304.551   1
   2  13 -18 1380.79 718.918   1
  -2 -13  18 1951.30 884.176   8
  -2 -13  17-957.737 594.688   8
   2  13 -17 397.421 423.363   1
  -2 -13  16 16.2019 147.090   8
  -2 -13  15 1337.62 711.751   8
  -2 -13  14 886.943 528.232   8
  -2 -13  13 2766.96 873.298   8
  -2 -13  12 1809.44 758.786   8
   2  13 -11 541.641 307.531   6
  -2 -13  11 199.638 295.461   8
   2  13 -10 1825.83 538.020   6
  -2 -13  10 1565.71 667.759   8
   2  13  -9 2349.30 635.573   6
  -2 -13   9 1479.44 717.664   8
  -2 -13   8 993.364 550.150   8
   2  13  -8-69.6569 155.477   6
  -2 -13   7 1137.37 513.164   8
   2  13  -7 1428.03 531.114   6
  -2 -13   6 857.019 479.823   8
   2  13  -6 111.840 150.414   6
   2  13  -5 741.222 384.231   6
  -2 -13   5 1246.17 530.572   8
  -2 -13   4 6141.50 1213.43   8
   2  13  -4 5723.21 1110.31   6
  -2 -13   3 315.688 398.451   8
   2  13  -3-65.8974 259.646   6
   2  13  -2 4304.48 985.639   6
  -2 -13   2 3667.30 899.817   8
   2  13  -1 110.625 286.227   6
  -2 -13   1-360.606 348.998   8
  -2 -13   0 84.1064 255.585   8
   2  13   0-788.470 459.837   6
  -2 -13  -1 127.864 132.207   8
   2  13   1-316.302 410.891   6
   2  13   2 386.744 320.274   6
  -2 -13  -2 16.8814 154.900   8
   2  13   3 293.881 296.688   6
  -2 -13  -3 175.918 147.862   8
   2  13   4-16.8927 334.675   6
   2  13   5 1304.63 775.577   6
   2  13   6 854.011 582.654   6
   2  13   7 2198.07 889.990   6
   2  13   8-6.23766 149.932   6
   2  13   9 693.673 410.098   6
   2  13  10-525.006 487.000   6
   2  14 -20-165.054 263.828   1
   2  14 -19 264.338 499.483   1
   2  14 -18 0.99541 223.382   1
  -2 -14  18-656.439 516.226   8
   2  14 -17-18.5369 136.448   1
  -2 -14  17 106.220 239.733   8
  -2 -14  16 481.812 461.887   8
  -2 -14  15 523.200 435.168   8
  -2 -14  14 835.780 585.569   8
  -2 -14  13 488.098 466.711   8
  -2 -14  12 501.586 421.561   8
  -2 -14  11 892.335 574.699   8
   2  14 -11-170.143 181.466   6
  -2 -14  10-360.380 522.715   8
   2  14 -10 138.566 231.846   6
  -2 -14   9-217.088 424.437   8
   2  14  -9 396.463 323.426   6
   2  14  -8 1525.64 552.018   6
  -2 -14   8 963.530 655.953   8
  -2 -14   7 649.153 533.420   8
   2  14  -7 465.186 284.621   6
   2  14  -6 2975.79 804.130   6
  -2 -14   6 3149.19 941.681   8
  -2 -14   5 982.646 510.122   8
   2  14  -5 364.289 184.198   6
   2  14  -4 85.0757 160.103   6
  -2 -14   4-339.256 316.136   8
   2  14  -3-259.955 350.860   6
  -2 -14   3 39.5261 174.474   8
   2  14  -2 5555.17 1179.64   6
  -2 -14   2 5167.60 1092.00   8
   2  14  -1 493.120 479.598   6
  -2 -14   1-198.906 199.006   8
   2  14   0 183.228 327.865   6
  -2 -14   0 67.2941 148.005   8
   2  14   1 4396.94 1142.75   6
  -2 -14  -1 1963.11 657.377   8
   2  14   2 205.418 154.383   6
  -2 -14  -2 44.3365 212.820   8
   2  14   3 187.740 345.743   6
   2  14   4 1102.14 813.601   6
   2  14   5-314.292 259.181   6
   2  14   6 2237.41 881.555   6
   2  14   7 367.550 393.967   6
   2  14   8 1233.06 699.128   6
   2  15 -20 243.583 481.867   1
   2  15 -19 493.548 639.095   1
   2  15 -18-64.3031 204.388   1
  -2 -15  18 865.803 646.949   8
  -2 -15  17-601.539 504.346   8
   2  15 -17 94.5796 345.592   1
  -2 -15  16 384.406 404.392   8
   2  15 -16-86.6304 235.060   1
  -2 -15  15 256.976 368.615   8
  -2 -15  14 562.091 490.507   8
  -2 -15  13 1722.02 783.247   8
  -2 -15  12 521.238 427.367   8
  -2 -15  11 664.239 497.875   8
  -2 -15  10 747.189 565.705   8
   2  15 -10-46.7396 93.7901   6
   2  15  -9 230.338 172.035   6
  -2 -15   9 52.0573 175.569   8
   2  15  -8 495.630 242.393   6
  -2 -15   8 1226.70 572.677   8
  -2 -15   7 444.855 405.859   8
   2  15  -7 411.664 253.008   6
  -2 -15   6-396.693 284.881   8
   2  15  -6-212.260 243.187   6
   2  15  -5 258.947 203.050   6
  -2 -15   5 117.345 269.990   8
   2  15  -4 110.244 162.218   6
  -2 -15   4-29.4408 204.838   8
  -2 -15   3 2112.83 777.759   8
   2  15  -3 2006.70 745.169   6
   2  15  -2 3819.03 1021.26   6
  -2 -15   2 3763.26 990.768   8
  -2 -15   1 116.978 174.652   8
   2  15  -1 801.071 591.857   6
  -2 -15   0 170.962 275.443   8
   2  15   0-113.682 237.510   6
   2  15   1 527.876 486.928   6
  -2 -15  -1 979.517 492.237   8
   2  15   2 403.013 516.565   6
   2  15   3 824.762 682.661   6
   2  15   4-42.6580 290.037   6
   2  15   5 277.547 421.597   6
   2  15   6-468.508 451.201   6
   2  16 -19 349.340 403.702   1
   2  16 -18-1.15471 308.977   1
   2  16 -17 197.805 399.161   1
  -2 -16  16-569.694 498.984   8
   2  16 -16 579.168 455.983   1
  -2 -16  15 66.7336 491.559   8
  -2 -16  14 1423.41 755.947   8
  -2 -16  13-8.34130 275.347   8
  -2 -16  12 947.230 472.203   8
  -2 -16  11 271.142 274.614   8
   2  16 -10 1026.16 438.860   6
  -2 -16  10 925.280 598.295   8
   2  16  -9 13.1309 131.957   6
  -2 -16   9-1.85428 191.562   8
  -2 -16   8-130.712 138.438   8
   2  16  -8-333.781 294.703   6
   2  16  -7 162.005 117.199   6
  -2 -16   7 752.144 541.520   8
  -2 -16   6 1061.22 612.035   8
   2  16  -6 89.3797 154.890   6
   2  16  -5 535.686 341.536   6
  -2 -16   5 1907.56 734.438   8
   2  16  -4 62.2346 281.182   6
  -2 -16   4 92.8613 280.494   8
   2  16  -3 4683.33 1154.23   6
  -2 -16   3 2580.74 856.293   8
   2  16  -2 1206.25 563.923   6
  -2 -16   2 748.959 466.347   8
   2  16  -1 282.935 404.375   6
  -2 -16   1 262.950 283.347   8
  -2 -16   0 2704.98 852.249   8
   2  16   0 2223.09 890.355   6
   2  16   1-279.826 388.704   6
   2  16   2 1368.60 615.277   6
   2  16   3 293.903 355.073   6
   2  16   4 1116.09 586.302   6
   2  17 -16-209.684 324.808   1
   2  17 -15 813.764 677.289   1
  -2 -17  14-819.269 601.956   8
  -2 -17  13 910.765 681.582   8
  -2 -17  12 847.082 611.437   8
  -2 -17  11 573.830 549.230   8
  -2 -17  10 1541.34 786.189   8
  -2 -17   9 233.222 365.089   8
   2  17  -9 342.550 257.519   6
   2  17  -8 322.140 276.996   6
  -2 -17   8 141.898 153.135   8
   2  17  -7 153.018 391.625   6
  -2 -17   7 639.747 612.384   8
  -2 -17   6 635.866 497.074   8
   2  17  -6 833.380 457.575   6
  -2 -17   5 165.310 282.718   8
   2  17  -5 595.301 548.885   6
  -2 -17   4 4265.82 1147.10   8
   2  17  -4 4904.17 1249.32   6
   2  17  -3 826.230 440.893   6
  -2 -17   3 356.021 354.108   8
  -2 -17   2 2093.21 757.721   8
   2  17  -2 438.008 487.414   6
  -2 -17   1 322.268 277.577   8
   2  17  -1-279.965 294.870   6
   2  17   0-12.1701 168.452   6
   2  17   1-231.803 443.372   6
   2  17   2 2304.95 906.547   6
  -2 -18  12 335.171 454.736   8
  -2 -18  11 106.327 190.998   8
  -2 -18  10-55.5697 197.379   8
  -2 -18   9 513.845 465.873   8
  -2 -18   8 550.944 403.149   8
   2  18  -8-210.745 269.095   6
  -2 -18   7 1861.66 808.445   8
   2  18  -7 2635.92 885.347   6
  -2 -18   6 940.922 629.502   8
   2  18  -6 1890.54 821.949   6
  -2 -18   5 2738.12 1012.01   8
   2  18  -5 3609.54 1116.17   6
  -2 -18   4 438.583 440.989   8
   2  18  -4 172.459 285.790   6
  -2 -18   3 275.801 320.032   8
   2  18  -3 333.199 413.644   6
   2  18  -2 244.453 471.685   6
  -2 -18   2 738.392 542.380   8
   2  18  -1-9.55723 142.140   6
   2  18   0 625.599 647.308   6
  -2 -19   9 639.484 451.276   8
  -2 -19   8 2444.92 995.893   8
  -2 -19   7 436.169 438.519   8
   2  19  -7 56.2387 280.454   6
   2  19  -6 4119.06 1211.47   6
  -2 -19   6 2593.28 1018.34   8
   2  19  -5 181.198 363.534   6
  -2 -19   5 424.459 450.289   8
   2  19  -4 405.608 356.953   6
  -2 -19   4 854.771 637.011   8
   2  19  -3 360.315 418.327   6
  -2 -19   3 570.019 526.834   8
   2  19  -2-708.692 545.932   6
   2  20  -6-623.671 494.121   6
  -2 -20   6 586.732 503.426   8
  -2 -20   5-1.08504 520.347   8
   2  20  -5 428.024 558.156   6
  -3  20  -3-1.24399 345.332   6
  -3  20  -4-334.745 406.539   6
  -3  20  -6 1224.45 707.645   2
  -3  20  -7 4022.38 1356.33   2
  -3  20  -8 1687.06 925.852   2
  -3  19   0 673.758 633.509   1
  -3  19  -1 1538.00 860.644   1
  -3  19  -1 1468.25 811.468   6
  -3  19  -2 290.784 358.820   1
  -3  19  -2-1359.35 779.193   6
  -3  19  -3 2107.49 1004.21   1
  -3  19  -3 2535.95 1047.11   6
  -3  19  -4-193.187 321.679   1
  -3  19  -4-353.025 393.060   6
  -3  19  -4 384.114 394.344   2
  -3  19  -5 688.295 700.671   1
  -3  19  -5-312.644 374.409   6
  -3  19  -5-269.161 338.917   2
  -3  19  -6 125.062 354.723   1
  -3  19  -6-716.362 543.171   2
  -3  19  -7 375.812 411.882   2
  -3  19  -7 55.2939 228.051   1
  -3  19  -8 140.315 289.244   2
  -3  19  -8 250.068 147.977   1
  -3  19  -9 1195.07 803.166   2
  -3  19 -10-396.155 449.178   2
  -3  19 -11 323.272 710.014   2
  -3  18   1 514.734 585.212   6
  -3  18   1 493.534 497.300   1
  -3  18   0 829.932 630.646   6
  -3  18   0 812.213 582.119   1
  -3  18  -1-49.3817 189.384   1
  -3  18  -1 1352.26 767.229   6
  -3  18  -2 1554.82 865.485   1
  -3  18  -2 3479.63 1177.33   6
  -3  18  -3 1407.73 806.619   6
  -3  18  -3 955.592 574.179   2
  -3  18  -3 2255.01 970.864   1
  -3  18  -4 136.299 272.774   2
  -3  18  -4 702.821 557.036   1
  -3  18  -4 454.414 440.816   6
  -3  18  -5 706.474 598.106   2
  -3  18  -5 434.987 470.525   1
  -3  18  -5 648.788 468.568   6
  -3  18  -6 220.222 372.357   1
  -3  18  -6 420.961 409.216   6
  -3  18  -6-558.756 466.809   2
  -3  18  -7 842.085 575.063   2
  -3  18  -7 652.305 535.409   1
  -3  18  -8 412.685 423.472   2
  -3  18  -8-621.085 528.018   1
  -3  18  -9 245.595 566.347   2
  -3  18  -9 971.231 635.316   1
  -3  18 -10-938.468 642.572   2
  -3  18 -10-349.372 419.281   1
  -3  18 -11 942.444 748.392   1
  -3  18 -11 452.526 446.777   2
  -3  18 -12 391.842 434.091   1
  -3  18 -12 1234.27 719.374   2
  -3  18 -13-201.029 343.744   2
  -3  17   3 58.9851 244.149   6
  -3  17   2-115.877 494.442   6
  -3  17   2 48.4911 158.357   1
  -3  17   1 744.896 697.040   6
  -3  17   1 434.540 409.525   1
  -3  17   0 636.439 501.347   1
  -3  17   0 521.149 475.259   6
  -3  17  -1 1139.09 703.372   6
  -3  17  -1-467.094 422.987   1
  -3  17  -2 2335.23 966.040   1
  -3  17  -2 1344.03 646.880   2
  -3  17  -2 2556.80 1012.29   6
  -3  17  -3 416.787 343.409   2
  -3  17  -3 196.393 422.912   1
  -3  17  -3 47.1889 211.322   6
  -3  17  -4 2070.06 830.422   6
  -3  17  -4 697.195 508.661   2
  -3  17  -4 1137.62 645.121   1
  -3  17  -5 505.665 533.124   2
  -3  17  -5 393.350 364.882   6
  -3  17  -5-612.813 495.979   1
  -3  17  -6 1543.06 644.343   6
  -3  17  -6 884.796 641.494   1
  -3  17  -7 176.604 410.114   1
  -3  17  -8 949.733 655.280   1
  -3  17  -9-264.571 356.081   1
  -3  17 -10-165.902 290.399   2
  -3  17 -10-408.501 425.229   1
  -3  17 -11 228.745 164.885   2
  -3  17 -11-516.268 409.825   1
  -3  17 -12-609.180 532.125   2
  -3  17 -12-1083.52 695.072   1
  -3  17 -13 875.294 791.573   2
  -3  17 -13-83.2745 243.871   1
  -3  17 -14 205.401 340.539   2
  -3  17 -14 1056.48 736.254   1
  -3  17 -15 746.151 570.457   1
  -3  16   5-84.4494 484.418   6
  -3  16   4 605.178 475.467   6
  -3  16   3 363.357 403.807   6
  -3  16   3 404.048 420.931   1
  -3  16   2 1122.74 592.346   1
  -3  16   2-261.943 363.668   6
  -3  16   1 577.621 416.793   1
  -3  16   1 637.610 550.758   6
  -3  16   0-0.90512 201.274   1
  -3  16   0-18.3274 156.479   6
  -3  16  -1 1889.01 808.173   1
  -3  16  -1 3040.95 1039.43   6
  -3  16  -1 2117.93 769.960   2
  -3  16  -2 1044.02 613.637   6
  -3  16  -2 1725.11 764.539   1
  -3  16  -2 2257.54 802.027   2
  -3  16  -3 3510.76 1002.20   2
  -3  16  -3 3959.71 1146.14   6
  -3  16  -3 1943.04 835.950   1
  -3  16  -4-219.481 324.429   6
  -3  16  -4 135.176 156.194   1
  -3  16  -5 193.059 234.687   6
  -3  16  -5 327.017 228.257   1
  -3  16  -6 540.646 402.203   6
  -3  16  -6 38.3657 326.126   1
  -3  16  -7 183.249 298.368   6
  -3  16  -7 73.0560 179.474   1
  -3  16  -8 1027.20 610.575   1
  -3  16  -9-41.7258 366.812   1
  -3  16 -10 1485.76 740.430   1
  -3  16 -11-232.195 345.637   1
  -3  16 -11 51.7137 224.229   2
  -3  16 -12 1908.22 938.804   1
  -3  16 -12 1026.47 703.675   2
  -3  16 -13 185.436 436.617   1
  -3  16 -13 766.575 647.442   2
  -3  16 -14 1916.62 927.535   2
  -3  16 -14 503.694 424.116   1
  -3  16 -15 474.004 617.487   2
  -3  16 -15 954.553 702.883   1
  -3  16 -16 250.599 372.528   2
  -3  16 -16 203.355 213.759   1
  -3  15   7 277.335 395.017   6
  -3  15   6 1271.68 763.399   6
  -3  15   5 2186.15 959.859   6
  -3  15   4 1125.57 583.354   6
  -3  15   3 1893.31 897.367   6
  -3  15   3 1353.83 600.252   1
  -3  15   2 2337.54 823.971   1
  -3  15   2 3045.71 1028.56   6
  -3  15   1-205.599 264.360   1
  -3  15   1-128.829 260.148   6
  -3  15   0-647.263 480.163   6
  -3  15   0 229.741 264.751   2
  -3  15  -1 784.781 459.929   1
  -3  15  -1 308.907 258.216   6
  -3  15  -1 213.054 177.960   2
  -3  15  -2 1049.47 508.855   6
  -3  15  -2 731.550 483.814   2
  -3  15  -2 783.664 461.247   1
  -3  15  -3 209.895 283.362   6
  -3  15  -3-194.671 311.064   1
  -3  15  -4 116.095 153.432   6
  -3  15  -4 127.584 340.732   1
  -3  15  -5 2207.38 746.415   6
  -3  15  -5 2399.84 928.900   1
  -3  15  -6 4027.86 1003.47   6
  -3  15  -6 3800.09 1180.64   1
  -3  15  -7 1140.18 513.734   6
  -3  15  -7 1288.78 767.316   1
  -3  15  -8-128.041 192.100   6
  -3  15  -8-838.699 551.066   1
  -3  15  -9 59.1309 300.888   1
  -3  15 -10-1024.30 620.019   1
  -3  15 -11-92.2872 354.828   2
  -3  15 -11-94.4352 326.260   1
  -3  15 -12 625.837 559.636   1
  -3  15 -12 2031.13 938.564   2
  -3  15 -13 540.818 538.110   1
  -3  15 -13 1179.72 753.023   2
  -3  15 -14 657.825 664.451   2
  -3  15 -14 466.344 450.044   1
  -3  15 -15-153.756 278.453   1
  -3  15 -15 349.939 475.604   2
  -3  15 -16 225.437 365.977   2
  -3  15 -17-70.1467 444.328   2
  -3  14   9 390.789 474.240   6
  -3  14   8 1712.04 960.498   6
  -3  14   7-282.700 388.287   6
  -3  14   6 3107.69 1226.45   6
  -3  14   5 3463.78 1166.87   6
  -3  14   4 514.840 272.703   6
  -3  14   4 887.386 497.600   1
  -3  14   3-74.6973 307.752   6
  -3  14   3 204.411 240.517   1
  -3  14   2 80.6680 182.629   1
  -3  14   2-73.4452 276.738   6
  -3  14   1 1642.74 681.965   1
  -3  14   1-154.817 182.393   6
  -3  14   1 1167.92 503.103   2
  -3  14   0 325.920 393.226   1
  -3  14   0 136.791 467.885   6
  -3  14   0-51.9695 174.416   2
  -3  14  -1-266.896 363.101   1
  -3  14  -1 163.357 338.664   2
  -3  14  -1 274.707 247.591   6
  -3  14  -2-194.439 175.970   6
  -3  14  -2-9.39937 413.299   1
  -3  14  -3 572.454 423.374   6
  -3  14  -3 845.886 544.587   1
  -3  14  -4 755.002 456.771   6
  -3  14  -4 383.743 369.169   1
  -3  14  -5 8512.16 1421.19   6
  -3  14  -5 9658.88 1700.79   1
  -3  14  -6 3729.02 900.370   6
  -3  14  -6 7395.15 1535.26   1
  -3  14  -7 166.742 291.048   6
  -3  14  -7 342.715 424.428   1
  -3  14  -8 4397.96 917.229   6
  -3  14  -8 5764.23 1382.20   1
  -3  14  -9 940.131 606.897   1
  -3  14 -10 6698.14 1492.33   1
  -3  14 -11-188.728 476.716   1
  -3  14 -11 728.085 575.182   2
  -3  14 -12 161.716 419.527   1
  -3  14 -12-838.682 563.065   2
  -3  14 -13 3071.88 1020.01   1
  -3  14 -13 4308.11 1348.46   2
  -3  14 -14 1266.48 686.277   2
  -3  14 -14 602.565 475.808   1
  -3  14 -15 1925.83 949.587   2
  -3  14 -15 1546.70 724.105   1
  -3  14 -16 2480.88 1034.54   2
  -3  14 -17 2507.51 1101.86   2
  -3  14 -18-670.070 572.795   2
  -3  13  10 3366.50 1204.99   6
  -3  13   9 387.027 473.952   6
  -3  13   8-416.287 448.001   6
  -3  13   7 1580.06 860.588   6
  -3  13   6 111.489 422.108   6
  -3  13   5-246.222 476.495   6
  -3  13   4-125.198 184.016   6
  -3  13   4 422.581 286.866   1
  -3  13   3 609.367 391.610   1
  -3  13   3 841.053 664.238   6
  -3  13   2 1.47698 127.821   2
  -3  13   2 228.691 238.397   6
  -3  13   2 7.41402 160.130   1
  -3  13   1 634.172 451.567   6
  -3  13   1-7.54566 130.103   1
  -3  13   1 553.076 288.143   2
  -3  13   0 982.165 488.586   1
  -3  13   0 1098.89 562.638   6
  -3  13   0 1107.00 499.248   2
  -3  13  -1 168.688 427.134   1
  -3  13  -1-32.9744 145.909   6
  -3  13  -1 140.322 249.423   2
  -3  13  -2-316.683 391.437   6
  -3  13  -2 162.551 233.191   1
  -3  13  -3 733.986 477.674   6
  -3  13  -3 162.694 185.991   1
  -3  13  -4 15860.5 1870.85   6
  -3  13  -4 13422.9 1889.45   1
  -3  13  -5 13930.9 1969.69   1
  -3  13  -5 12861.0 1651.71   6
  -3  13  -6 2190.28 674.156   6
  -3  13  -6 2534.74 808.536   1
  -3  13  -7 867.637 450.929   6
  -3  13  -7 1126.58 532.511   1
  -3  13  -8 150.540 126.923   6
  -3  13  -8 760.086 667.509   1
  -3  13  -9 742.426 323.413   6
  -3  13  -9 878.930 560.312   1
  -3  13 -10-416.889 539.472   1
  -3  13 -11-137.516 308.119   1
  -3  13 -11-424.561 397.169   2
  -3  13 -12 218.516 350.208   1
  -3  13 -12 443.702 506.377   2
  -3  13 -13 569.053 485.940   1
  -3  13 -13 791.036 529.865   2
  -3  13 -14-253.408 322.861   1
  -3  13 -14-285.289 358.999   2
  -3  13 -15 449.046 568.232   2
  -3  13 -16 1852.48 810.532   2
  -3  13 -17 422.574 529.696   2
  -3  13 -18 1210.74 914.903   2
  -3  13 -19 156.329 297.405   2
  -3  12  12 214.602 369.593   6
  -3  12  11 1323.29 792.563   6
  -3  12  10 2460.11 1073.26   6
  -3  12   9 634.547 389.474   6
  -3  12   8 5805.55 1538.98   6
  -3  12   7 4159.87 1307.25   6
  -3  12   6 1309.86 816.139   6
  -3  12   5-352.494 322.310   6
  -3  12   4 2452.60 888.750   6
  -3  12   4 3889.96 947.084   1
  -3  12   3 1102.34 523.141   1
  -3  12   3 923.803 393.110   2
  -3  12   3 1599.66 734.355   6
  -3  12   2 843.072 494.564   1
  -3  12   2 454.376 227.038   6
  -3  12   2 906.267 385.534   2
  -3  12   1 1521.88 676.607   6
  -3  12   1 1235.16 540.266   1
  -3  12   1 1096.95 397.189   2
  -3  12   0 223.151 322.714   1
  -3  12   0-164.142 248.851   6
  -3  12   0 571.010 291.674   2
  -3  12  -1 10931.1 1589.52   1
  -3  12  -1 10050.6 1570.52   6
  -3  12  -1 10933.5 1476.12   2
  -3  12  -2 483.806 248.975   6
  -3  12  -2 58.6274 386.127   1
  -3  12  -3 2881.13 778.687   6
  -3  12  -3 2736.85 838.362   1
  -3  12  -4 9780.59 1438.19   6
  -3  12  -4 11622.2 1703.02   1
  -3  12  -5 155.098 179.881   6
  -3  12  -5 412.188 454.332   1
  -3  12  -6 911.295 513.348   1
  -3  12  -6 1323.35 503.049   6
  -3  12  -7 1277.11 462.480   6
  -3  12  -7 3245.78 965.086   1
  -3  12  -8 6525.45 984.419   6
  -3  12  -8 8056.00 1500.04   1
  -3  12  -9 7089.01 969.343   6
  -3  12  -9 7405.54 1482.28   1
  -3  12 -10-270.618 476.199   1
  -3  12 -10-1071.27 573.456   2
  -3  12 -11 97.0968 278.763   2
  -3  12 -11-102.735 336.532   1
  -3  12 -12 985.389 699.673   2
  -3  12 -12 609.046 407.061   1
  -3  12 -13 564.716 598.992   2
  -3  12 -13-482.948 334.256   1
  -3  12 -14 560.736 480.765   2
  -3  12 -15 1125.46 695.116   2
  -3  12 -16 353.735 391.798   2
  -3  12 -17-60.5366 306.832   2
  -3  12 -18 1165.40 554.787   2
  -3  12 -19-631.999 545.930   2
  -3  12 -20 147.609 399.118   2
  -3  11  13-622.259 578.182   6
  -3  11  12 1340.34 843.608   6
  -3  11  11 3999.16 1307.36   6
  -3  11  10 433.608 632.744   6
  -3  11   9 3643.82 1139.66   6
  -3  11   8 3373.08 1083.60   6
  -3  11   7 3029.14 1047.65   6
  -3  11   6 1415.03 674.339   6
  -3  11   5 1740.45 769.659   6
  -3  11   4 1019.57 361.311   6
  -3  11   4 868.836 433.431   1
  -3  11   4 733.716 307.781   2
  -3  11   3-141.405 219.934   1
  -3  11   3 199.835 173.747   2
  -3  11   3 35.7918 236.673   6
  -3  11   2 107.415 120.669   1
  -3  11   2 191.617 186.785   2
  -3  11   2 332.916 388.963   6
  -3  11   1-43.7860 124.356   1
  -3  11   1-166.095 354.717   6
  -3  11   1 161.289 206.711   2
  -3  11   0 6816.10 1192.23   1
  -3  11   0 7847.11 1337.09   6
  -3  11   0 7668.33 1152.72   2
  -3  11  -1 5888.61 1128.68   1
  -3  11  -1 6646.76 1204.72   6
  -3  11  -1 5693.15 1044.94   2
  -3  11  -2 4677.48 992.686   6
  -3  11  -2 4894.35 1062.80   1
  -3  11  -2 4877.24 697.805   9
  -3  11  -3 10495.6 1554.08   1
  -3  11  -3 8123.53 1259.94   6
  -3  11  -3 9239.06 883.333   9
  -3  11  -4-179.184 261.829   6
  -3  11  -4 147.819 362.038   1
  -3  11  -4-14.7819 87.3576   9
  -3  11  -5 6632.15 1066.96   6
  -3  11  -5 6156.75 1195.86   1
  -3  11  -5 5033.25 578.751   9
  -3  11  -6 1673.86 517.038   6
  -3  11  -6 1822.62 794.577   1
  -3  11  -7 2964.68 673.392   6
  -3  11  -7 2835.46 896.071   1
  -3  11  -8 2138.98 737.188   1
  -3  11  -8 1941.50 507.870   6
  -3  11  -9 575.185 255.316   6
  -3  11  -9 36.3655 277.193   2
  -3  11  -9 890.920 534.667   1
  -3  11 -10 592.369 455.928   1
  -3  11 -10 476.580 413.368   2
  -3  11 -11 326.141 161.095   1
  -3  11 -11 973.342 463.683   2
  -3  11 -12 2208.26 813.274   2
  -3  11 -12 1341.27 630.811   1
  -3  11 -13 11.3055 332.801   2
  -3  11 -14 2327.82 885.855   2
  -3  11 -15-198.123 276.511   2
  -3  11 -16 1992.98 859.169   2
  -3  11 -17 912.904 740.384   2
  -3  11 -18-34.1206 433.963   2
  -3  11 -19 1244.89 712.259   2
  -3  11 -20-8.49558 169.853   2
  -3  11 -21 457.660 557.784   2
  -3  10  14-389.128 457.893   6
  -3  10  13-2.57632 206.330   6
  -3  10  12 2299.60 1016.21   6
  -3  10  11 982.482 586.428   6
  -3  10  10 5502.17 1460.15   6
  -3  10   9 740.149 550.403   6
  -3  10   8 220.993 712.241   6
  -3  10   7 96.8947 308.463   6
  -3  10   6 318.562 275.914   6
  -3  10   5 521.338 402.959   6
  -3  10   4 374.913 516.970   6
  -3  10   4 161.732 93.3907   2
  -3  10   3 614.417 280.471   2
  -3  10   3 605.523 261.453   6
  -3  10   3 627.351 395.510   1
  -3  10   2 1478.81 538.406   1
  -3  10   2 979.614 361.417   2
  -3  10   2 226.728 321.265   6
  -3  10   1 1530.41 584.800   1
  -3  10   1 1028.88 507.939   6
  -3  10   1 1188.60 418.984   2
  -3  10   0 7939.89 1289.91   6
  -3  10   0 10408.8 1294.00   2
  -3  10   0 10828.1 1455.08   1
  -3  10  -1 2294.08 652.358   1
  -3  10  -1 2011.33 589.638   2
  -3  10  -1 2300.15 662.909   6
  -3  10  -2 8013.14 1271.65   1
  -3  10  -2 7890.81 1204.92   6
  -3  10  -2 5382.91 670.253   9
  -3  10  -2 7270.13 1133.88   2
  -3  10  -3 602.995 348.945   6
  -3  10  -3 941.718 407.235   1
  -3  10  -3 735.203 221.708   9
  -3  10  -4 4097.64 832.195   6
  -3  10  -4 4868.50 1050.85   1
  -3  10  -4 4285.92 502.662   9
  -3  10  -5 1391.34 607.128   1
  -3  10  -5 1578.60 501.167   6
  -3  10  -6 6312.02 936.656   6
  -3  10  -6 8346.29 1361.68   1
  -3  10  -7 4924.88 1073.81   1
  -3  10  -7 3786.59 696.886   6
  -3  10  -8 476.241 197.596   1
  -3  10  -8 437.361 218.983   6
  -3  10  -8 124.803 176.171   2
  -3  10  -9 562.925 368.608   1
  -3  10  -9 307.066 153.198   6
  -3  10  -9 867.884 444.293   2
  -3  10 -10 6039.59 1258.97   2
  -3  10 -10 5528.50 1160.29   1
  -3  10 -11 2929.88 877.393   1
  -3  10 -11 2822.20 949.161   2
  -3  10 -12 175.831 382.731   2
  -3  10 -13 7852.37 1538.18   2
  -3  10 -14 1296.02 617.691   2
  -3  10 -15-214.858 327.247   2
  -3  10 -16-790.419 537.556   2
  -3  10 -17 474.638 544.311   2
  -3  10 -18 1204.80 667.991   2
  -3  10 -19 533.274 414.260   2
  -3  10 -20 788.559 643.658   2
  -3  10 -21 292.560 309.640   2
  -3  10 -22 686.350 567.715   2
  -3   9  16 444.081 460.750   6
   3  -9 -15 1783.69 879.549   9
  -3   9  15 1791.64 940.930   6
  -3   9  14-679.498 574.862   6
   3  -9 -14 169.510 289.676   9
  -3   9  13 3885.62 1396.01   6
   3  -9 -13 1512.84 773.200   9
  -3   9  12 3861.51 1286.26   6
   3  -9 -12 2443.29 930.559   9
   3  -9 -11 2780.31 903.520   9
  -3   9  11 3107.78 1087.34   6
  -3   9  10-532.824 372.510   6
   3  -9 -10 366.719 264.627   9
   3  -9  -9 2378.48 780.139   9
  -3   9   9 2904.50 1010.78   6
   3  -9  -8 1781.10 669.969   9
  -3   9   8 1897.11 802.966   6
   3  -9  -7 490.363 364.753   9
  -3   9   7 128.178 366.053   6
  -3   9   6 369.245 498.072   6
  -3   9   5 3860.74 577.604   2
  -3   9   5 3836.28 1038.90   6
  -3   9   4 2243.40 752.414   6
  -3   9   4 2210.14 492.545   2
  -3   9   3 3964.56 669.133   2
  -3   9   3 3854.03 932.516   6
  -3   9   3 4880.96 903.911   1
  -3   9   2 4812.87 1066.37   6
  -3   9   2 4817.85 915.687   1
  -3   9   2 5753.75 849.573   2
  -3   9   1 13785.3 1570.27   1
  -3   9   1 14800.5 1399.97   2
  -3   9   1 15245.5 1783.54   6
  -3   9   0 1722.63 566.972   1
  -3   9   0 1838.51 637.782   6
  -3   9   0 2212.73 584.848   2
  -3   9  -1 1614.99 555.481   1
  -3   9  -1 1280.64 498.987   6
  -3   9  -1 1218.92 523.013   2
  -3   9  -2 625.086 357.383   2
  -3   9  -2 437.254 265.159   6
  -3   9  -2 452.765 181.085   9
  -3   9  -2 958.761 462.069   1
  -3   9  -3 1211.09 557.985   1
  -3   9  -3 592.833 173.158   9
  -3   9  -3 597.190 238.388   6
  -3   9  -3 1844.13 566.033   2
  -3   9  -4 12365.4 1509.51   2
  -3   9  -4 10499.1 1236.93   6
  -3   9  -4 11235.5 1484.74   1
  -3   9  -4 10229.8 675.297   9
  -3   9  -5 6534.47 1146.79   1
  -3   9  -5 4764.92 814.044   6
  -3   9  -5 5154.03 1000.81   2
  -3   9  -6 8290.29 1003.91   6
  -3   9  -6 7593.65 1283.75   1
   3  -9   6 8046.46 836.230   6
  -3   9  -6 7288.44 1228.70   2
  -3   9  -7 8654.97 1349.14   1
  -3   9  -7 6003.24 803.163   6
   3  -9   7 6086.64 669.417   6
   3  -9   7 6133.18 502.595   4
  -3   9  -7 8355.26 1356.48   2
  -3   9  -8 240.979 154.785   6
  -3   9  -8 579.393 343.072   1
  -3   9  -8 116.854 200.466   2
  -3   9  -9 14733.9 1875.43   2
  -3   9  -9 11849.7 1645.20   1
  -3   9 -10 7721.91 1326.80   1
  -3   9 -10 8726.94 1460.83   2
  -3   9 -11 497.290 398.714   2
  -3   9 -12-1.48950 250.336   2
  -3   9 -13-114.417 227.884   2
  -3   9 -14 805.291 507.198   2
  -3   9 -15-329.435 500.000   2
  -3   9 -16 1737.83 734.966   2
  -3   9 -16 615.702 374.700   9
  -3   9 -17 93.3016 221.494   2
  -3   9 -17 413.653 508.853   7
  -3   9 -17-341.191 294.646   9
  -3   9 -18 340.966 530.137   7
  -3   9 -18 408.685 308.531   2
  -3   9 -19 1779.01 918.815   7
  -3   9 -19 1762.13 773.620   2
  -3   9 -20 831.374 715.887   7
  -3   9 -20 97.0224 245.249   2
  -3   9 -21 292.347 385.826   2
  -3   9 -22 815.236 691.814   2
  -3   8  17 422.004 488.075   6
  -3   8  16 116.347 505.745   6
   3  -8 -16-99.3390 272.777   9
   3  -8 -15 943.631 675.273   9
  -3   8  15-371.645 435.486   6
  -3   8  14 591.096 547.403   6
   3  -8 -14 2656.26 1055.11   9
  -3   8  13 277.562 368.309   6
   3  -8 -13 162.479 272.857   9
  -3   8  12-602.828 478.644   6
   3  -8 -12 628.516 393.951   9
  -3   8  11 5039.77 1366.48   6
   3  -8 -11 6714.43 1416.25   9
  -3   8  10 1885.69 907.995   6
   3  -8 -10 3886.96 1031.61   9
   3  -8  -9-247.984 371.358   9
  -3   8   9 158.657 220.010   6
  -3   8   8 3245.56 984.760   6
   3  -8  -8 2075.78 685.716   9
  -3   8   7 506.006 442.838   6
   3  -8  -7 326.000 209.954   9
  -3   8   6 1533.19 289.691   2
  -3   8   6 2142.29 809.716   6
   3  -8  -6 2298.02 690.646   9
  -3   8   5 23196.3 2417.95   6
   3  -8  -5 21385.0 1933.38   9
  -3   8   5 22459.4 1307.06   2
  -3   8   5 20917.8 1253.28   8
  -3   8   4 6984.32 1285.77   6
  -3   8   4 7680.67 842.695   2
  -3   8   4 5610.29 695.451   8
  -3   8   3 8409.96 1364.76   6
  -3   8   3 6150.92 799.609   2
  -3   8   2 6971.86 1184.33   6
  -3   8   2 7110.52 915.342   2
  -3   8   2 7242.34 1061.01   1
  -3   8   1 1620.76 559.801   6
  -3   8   1 2234.89 526.852   2
  -3   8   1 3147.49 714.427   1
  -3   8   0-19.5089 240.920   1
  -3   8   0 114.901 189.632   2
  -3   8   0 52.1534 117.695   6
  -3   8  -1 1195.01 455.986   6
  -3   8  -1 703.038 346.475   2
  -3   8  -1 859.491 426.191   1
  -3   8  -2 411.174 186.677   6
  -3   8  -2 519.713 255.495   2
  -3   8  -2 66.5142 222.323   1
  -3   8  -3 268.435 162.051   6
  -3   8  -3 567.699 406.824   2
  -3   8  -3 476.455 263.520   1
  -3   8  -3 727.707 172.098   9
  -3   8  -4 11490.5 1225.77   6
  -3   8  -4 10982.7 575.133   9
  -3   8  -4 12329.9 1446.32   2
  -3   8  -4 12886.6 1528.42   1
  -3   8  -5-261.963 300.396   2
  -3   8  -5 94.9417 122.789   6
   3  -8   5 68.9219 77.6127   6
  -3   8  -6 2175.37 490.143   6
  -3   8  -6 2578.91 696.576   2
   3  -8   6 3022.09 474.891   6
  -3   8  -6 2217.50 676.958   1
  -3   8  -7 284.565 148.132   1
   3  -8   7 380.440 143.604   6
  -3   8  -7 250.003 162.805   6
  -3   8  -7 722.755 508.031   2
  -3   8  -8-66.2280 270.897   1
   3  -8   8 152.753 73.6732   6
  -3   8  -8 344.587 302.412   2
  -3   8  -9 546.168 492.902   2
  -3   8 -10-69.0337 382.820   2
  -3   8 -11-230.127 394.325   2
  -3   8 -12 739.002 573.565   2
  -3   8 -13 621.984 603.540   2
  -3   8 -14 661.997 554.079   7
  -3   8 -14 276.744 321.467   2
  -3   8 -14 710.319 393.634   9
  -3   8 -15 31.5301 183.271   2
  -3   8 -15 782.879 439.212   7
  -3   8 -15 309.005 235.831   9
  -3   8 -16 263.375 260.738   7
  -3   8 -16-367.205 296.960   9
  -3   8 -16-59.6772 277.560   2
  -3   8 -17 730.422 669.029   7
  -3   8 -17 212.643 204.838   9
  -3   8 -17 100.621 373.073   2
  -3   8 -18 790.409 700.896   7
  -3   8 -18 1212.37 572.651   9
  -3   8 -18 1570.29 749.222   2
  -3   8 -19-470.740 444.544   7
  -3   8 -19 780.147 522.668   9
  -3   8 -19 37.1244 343.061   2
  -3   8 -20 560.910 559.743   7
  -3   8 -20 758.914 632.451   2
  -3   8 -21 58.1048 220.797   2
  -3   7  18 39.6533 208.074   6
  -3   7  17 1645.64 986.922   6
  -3   7  16-125.401 375.834   6
   3  -7 -16 512.697 460.479   9
   3  -7 -15 234.607 340.671   9
  -3   7  15 898.598 675.207   6
  -3   7  14 198.682 438.426   6
   3  -7 -14 344.377 339.853   9
  -3   7  13-648.709 513.426   6
   3  -7 -13 1173.41 654.184   9
  -3   7  12 9409.65 1809.70   6
   3  -7 -12 9940.92 1757.12   9
  -3   7  11 2011.53 894.863   6
   3  -7 -11 2158.78 804.571   9
  -3   7  10 9428.52 1739.07   6
   3  -7 -10 9556.94 1593.34   9
  -3   7   9-309.100 463.104   6
   3  -7  -9 289.679 351.919   9
  -3   7   8 5415.21 1196.96   6
   3  -7  -8 3391.58 849.591   9
  -3   7   7 1188.47 575.865   6
   3  -7  -7 2059.73 645.486   9
  -3   7   6 18645.8 2138.78   6
   3  -7  -6 20656.2 1916.90   9
  -3   7   6 15728.3 827.925   2
  -3   7   6 17401.6 963.340   8
  -3   7   5 3805.92 501.692   2
  -3   7   5 5457.23 1097.92   6
  -3   7   5 3540.75 482.595   8
  -3   7   4 2488.69 717.823   6
  -3   7   4 2074.23 418.259   2
  -3   7   4 1883.75 376.530   8
  -3   7   3 433.386 203.462   8
   3  -7  -3 814.917 313.039   9
  -3   7   3 313.391 254.258   6
  -3   7   3 675.114 275.988   2
  -3   7   2 9821.24 1318.33   6
  -3   7   2 10849.7 1025.05   8
  -3   7   2 13499.4 1160.03   2
   3  -7  -2 11500.7 1090.93   9
  -3   7   1 3090.36 761.050   6
  -3   7   1 3351.26 625.658   2
  -3   7   0 461.963 219.652   2
  -3   7   0 349.744 297.821   6
  -3   7   0 582.337 291.832   1
  -3   7  -1 13705.1 1426.56   1
  -3   7  -1 14207.0 1437.51   6
  -3   7  -1 11826.0 1250.69   2
  -3   7  -2 12901.5 1317.47   6
  -3   7  -2 10713.8 1218.73   2
  -3   7  -2 11691.7 1356.77   1
  -3   7  -3 15828.6 1418.77   6
  -3   7  -3 15760.5 1594.17   1
  -3   7  -3 17693.6 1625.38   2
  -3   7  -4 511.376 218.297   6
  -3   7  -4 133.924 218.901   2
   3  -7   4 491.014 222.462   6
  -3   7  -4 848.720 495.326   1
  -3   7  -5 782.453 283.123   6
  -3   7  -5 848.389 394.496   2
   3  -7   5 720.279 232.968   6
  -3   7  -5 1254.90 474.168   1
  -3   7  -6 17460.7 1261.11   6
   3  -7   6 16977.4 1028.14   6
  -3   7  -6 19548.5 1874.25   2
  -3   7  -6 18434.4 1798.07   1
  -3   7  -7 768.823 404.296   2
   3  -7   7 239.633 100.651   6
   3  -7   8 3400.00 329.633   6
  -3   7  -8 3834.35 901.048   2
  -3   7  -9 4788.34 990.692   2
  -3   7 -10 10175.9 1485.33   2
  -3   7 -11-44.6067 146.133   2
  -3   7 -12 5675.34 1262.34   7
  -3   7 -12 5277.46 1163.36   2
  -3   7 -12 5702.88 908.908   9
  -3   7 -13 451.718 496.160   7
  -3   7 -13 364.336 414.699   2
  -3   7 -13 262.297 106.311   9
  -3   7 -14 290.410 378.990   7
  -3   7 -14 366.100 389.544   2
  -3   7 -14 1039.43 428.727   9
  -3   7 -15 744.527 378.118   7
  -3   7 -15 414.918 231.301   9
  -3   7 -15 483.878 348.377   2
  -3   7 -16 676.727 626.128   7
  -3   7 -16 886.027 458.641   2
  -3   7 -16 1361.62 571.027   9
  -3   7 -17 2520.62 1025.29   7
  -3   7 -17 1295.86 534.943   9
  -3   7 -17 2143.28 867.362   2
  -3   7 -18-426.748 351.465   9
  -3   7 -18 17.9390 312.869   2
  -3   7 -19 356.536 395.306   9
  -3   7 -19 477.160 466.529   7
  -3   7 -19 240.736 227.021   2
  -3   7 -20 531.703 449.643   7
  -3   7 -20 645.930 645.148   2
  -3   7 -20 442.498 328.943   9
  -3   7 -21 904.352 651.495   2
  -3   7 -21 546.338 538.759   9
  -3   6  19-1.41806 525.272   6
  -3   6  18-201.601 347.146   6
  -3   6  17 1327.70 828.054   6
   3  -6 -17 35.0252 155.721   9
  -3   6  16-35.3140 191.701   6
   3  -6 -16-261.669 352.533   9
  -3   6  15-118.520 399.187   6
   3  -6 -15 1660.84 806.226   9
  -3   6  14-679.214 519.002   6
   3  -6 -14 108.536 158.324   9
   3  -6 -13 789.514 638.450   9
  -3   6  13 849.571 479.754   6
   3  -6 -12 727.389 481.708   9
  -3   6  12 371.119 357.959   6
  -3   6  11 5675.53 1314.82   6
   3  -6 -11 6867.93 1412.24   9
   3  -6 -10 9981.64 1582.39   9
  -3   6  10 9365.98 1647.68   6
  -3   6   9 2328.57 882.016   6
  -3   6   9 1386.30 339.161   3
   3  -6  -9 1186.88 539.829   9
   3  -6  -8-65.9655 262.433   9
  -3   6   8 579.006 414.392   6
   3  -6  -7 10140.2 1388.82   9
  -3   6   7 8363.14 578.720   8
  -3   6   7 9843.34 1589.66   6
  -3   6   7 9485.78 543.489   8
  -3   6   6 4572.78 1080.96   6
  -3   6   6 3870.83 433.452   8
  -3   6   6 3576.46 358.505   2
  -3   6   5 443.428 173.880   2
  -3   6   5 1099.18 583.456   6
  -3   6   5 448.877 152.070   8
  -3   6   4 14072.9 1656.93   6
  -3   6   4 12394.5 970.937   2
   3  -6  -4 12923.0 1295.81   9
  -3   6   4 12549.3 948.545   8
  -3   6   3 764.218 507.804   6
   3  -6  -3 652.176 251.465   9
  -3   6   3 642.497 231.906   2
  -3   6   2 3862.70 609.089   2
   3  -6  -2 3672.86 591.067   9
  -3   6   2 3847.57 804.531   6
  -3   6   1 3657.44 762.786   6
   3  -6  -1 3323.08 507.146   9
  -3   6   1 3030.31 546.689   2
  -3   6   0 1228.60 376.079   2
  -3   6   0 1580.90 489.532   6
  -3   6  -1 20759.6 1664.19   6
  -3   6  -1 18992.5 1499.31   2
  -3   6  -2 277.811 206.785   2
  -3   6  -2 713.563 393.974   6
   3  -6   2 548.319 249.172   6
  -3   6  -3 13322.2 1216.44   6
   3  -6   3 15318.4 1171.95   6
  -3   6  -3 16034.2 1495.21   2
  -3   6  -4 26679.2 1648.49   6
   3  -6   4 26605.3 1451.19   6
  -3   6  -4 25530.4 1935.58   2
   3  -6   4 26979.8 1294.47   4
  -3   6  -5 11384.8 1024.81   6
   3  -6   5 13089.3 931.187   6
  -3   6  -5 11852.9 1364.14   2
   3  -6   5 10676.7 647.892   4
  -3   6  -5 9417.62 461.152   9
  -3   6  -6 5229.35 931.342   2
   3  -6   6 4472.25 489.591   6
   3  -6   7 12128.6 693.469   6
  -3   6  -7 11766.2 1454.91   2
  -3   6  -8 1646.19 636.682   2
   3  -6   8 1576.25 193.926   6
  -3   6  -9 4376.57 999.658   2
  -3   6  -9 2813.34 531.837   9
  -3   6 -10 14573.7 1755.73   2
  -3   6 -10 12394.3 1189.26   9
  -3   6 -10 15583.6 1901.70   7
  -3   6 -11 1685.15 666.980   7
  -3   6 -11 2293.25 673.297   2
  -3   6 -11 2780.55 607.158   9
  -3   6 -12 1428.20 626.126   2
  -3   6 -12 1818.78 705.877   7
  -3   6 -12 1623.41 528.239   9
  -3   6 -13 667.574 465.802   7
  -3   6 -13 1390.82 595.756   2
  -3   6 -13 1227.12 429.237   9
  -3   6 -14 577.882 450.557   7
  -3   6 -14 338.439 343.721   9
  -3   6 -14 729.955 615.988   2
  -3   6 -15 427.695 466.506   7
  -3   6 -15 373.433 387.459   9
  -3   6 -15-516.262 396.227   2
  -3   6 -16 3945.55 969.902   9
  -3   6 -16 3513.83 1128.78   7
  -3   6 -16 4637.40 1159.79   2
  -3   6 -17 174.816 385.246   7
  -3   6 -17 739.537 527.190   2
  -3   6 -17-11.4320 113.789   9
  -3   6 -18 435.766 380.296   7
  -3   6 -18 237.114 248.671   9
  -3   6 -18 574.242 480.501   2
  -3   6 -19 744.580 495.085   7
  -3   6 -19 256.158 466.453   2
  -3   6 -19 1016.87 575.986   9
  -3   6 -20 21.2712 157.060   2
  -3   6 -20 0.91712 220.268   9
  -3   6 -21 128.730 249.217   9
  -3   6 -22-542.576 476.067   9
  -3   5  19-976.315 696.515   6
  -3   5  18 1192.14 739.547   6
   3  -5 -18 1127.95 771.223   9
   3  -5 -17 323.412 387.277   9
  -3   5  17 1.18444 232.399   6
  -3   5  16-466.321 450.794   6
   3  -5 -16-489.098 459.464   9
  -3   5  15-222.998 252.540   6
   3  -5 -15 803.656 554.617   9
   3  -5 -14-106.081 254.461   9
  -3   5  14 359.961 288.403   6
   3  -5 -13 170.560 199.424   9
  -3   5  13-139.814 457.508   6
   3  -5 -12 1788.64 705.567   9
  -3   5  12 2564.30 857.771   6
  -3   5  11 5863.16 1255.47   6
   3  -5 -11 4722.46 1134.83   9
  -3   5  10 13578.0 1915.67   6
   3  -5 -10 16041.8 1980.02   9
  -3   5   9 6144.26 598.780   3
  -3   5   9 6023.63 1229.14   6
   3  -5  -9 3509.00 889.003   9
  -3   5   8 6789.74 1243.67   6
  -3   5   8 7042.46 756.375   3
   3  -5  -8 6510.76 1133.46   9
  -3   5   7 10432.7 1513.15   6
   3  -5  -7 9418.95 1304.75   9
  -3   5   7 8150.23 588.750   8
  -3   5   7 7907.22 516.673   8
  -3   5   6 12210.1 1633.30   6
  -3   5   5 1174.22 538.779   6
  -3   5   5 1031.60 236.812   2
  -3   5   4-186.340 152.105   6
  -3   5   4 16.9143 84.6888   2
   3  -5  -4-11.6726 55.2277   1
   3  -5  -4 259.904 246.862   9
  -3   5   3 13904.4 1515.38   6
   3  -5  -3 14035.9 1195.38   9
  -3   5   3 12430.5 995.425   2
   3  -5  -3 12778.5 1091.76   1
  -3   5   2 610.815 378.281   6
   3  -5  -2 945.129 313.528   1
  -3   5   2 882.490 291.613   2
   3  -5  -2 777.517 233.395   9
   3  -5  -1 1689.94 326.052   9
  -3   5   1 2053.47 557.811   6
  -3   5   1 2053.57 452.581   2
   3  -5   0 5125.45 481.713   9
  -3   5   0 4581.62 771.009   6
  -3   5   0 4353.19 662.754   2
   3  -5   1 4620.72 691.366   6
  -3   5  -1 3783.43 684.039   6
  -3   5  -1 4791.94 731.640   2
  -3   5  -2 10066.3 1101.58   2
   3  -5   2 8668.90 901.725   6
  -3   5  -2 8563.98 987.082   6
   3  -5   3 132.352 87.3091   4
  -3   5  -3-192.350 321.140   2
  -3   5  -3 235.045 205.673   6
   3  -5   3 151.789 115.117   6
  -3   5  -4 28505.0 1625.37   6
   3  -5   4 28493.6 1448.27   6
   3  -5   4 29403.0 1213.57   4
  -3   5  -4 29564.8 2017.92   2
   3  -5   5 13140.0 919.497   6
  -3   5  -5 12632.0 1364.57   2
  -3   5  -5 13327.2 633.842   9
   3  -5   6 16228.7 917.229   6
  -3   5  -6 18527.2 1702.26   2
  -3   5  -6 16639.8 893.640   9
   3  -5   7 13906.5 754.392   6
  -3   5  -7 15761.3 1639.26   2
  -3   5  -7 14856.8 999.514   9
  -3   5  -8 800.801 404.971   2
   3  -5   8 884.159 158.626   6
   3  -5   8 1042.43 377.470   5
  -3   5  -8 786.971 273.567   9
  -3   5  -9 13201.8 1594.07   2
  -3   5  -9 11515.3 1107.18   9
  -3   5 -10 650.087 380.191   7
  -3   5 -10 460.298 217.565   9
  -3   5 -10 1247.53 467.915   2
  -3   5 -11-67.4259 185.390   9
  -3   5 -11-238.734 197.567   7
  -3   5 -11-688.077 393.922   2
  -3   5 -12-14.5987 398.846   7
  -3   5 -12 308.302 148.153   9
  -3   5 -12 111.289 186.591   2
  -3   5 -13-123.477 427.692   7
  -3   5 -13-179.180 203.741   9
  -3   5 -13-211.469 430.630   2
  -3   5 -14 1048.84 600.012   7
  -3   5 -14 939.518 441.037   9
  -3   5 -14 974.592 542.362   2
  -3   5 -15 2253.71 870.007   7
  -3   5 -15 1315.15 618.385   2
  -3   5 -15 1502.48 576.155   9
  -3   5 -16 244.470 106.190   9
  -3   5 -16 6.31813 154.498   2
  -3   5 -17-295.766 338.852   2
  -3   5 -17-230.461 135.289   9
  -3   5 -18 1362.27 730.649   7
  -3   5 -18 1981.96 791.768   9
  -3   5 -18 2419.40 921.602   2
  -3   5 -19-518.885 503.168   7
  -3   5 -19-218.682 183.774   2
  -3   5 -19 352.615 401.971   9
  -3   5 -20 700.639 525.313   7
  -3   5 -20 234.290 344.342   9
  -3   5 -21-527.726 455.214   9
  -3   5 -22 558.941 402.092   9
  -3   4  19 79.3733 236.350   6
  -3   4  18-1.18474 145.258   6
   3  -4 -18-507.903 483.108   9
  -3   4  17-12.2940 344.303   6
   3  -4 -17 487.817 579.080   9
  -3   4  16 436.664 664.840   6
   3  -4 -16 35.6001 298.856   9
  -3   4  15 326.970 449.058   6
   3  -4 -15 925.936 564.246   9
  -3   4  14 1254.10 654.223   6
   3  -4 -14 538.893 521.942   9
  -3   4  13 706.934 433.778   6
   3  -4 -13 571.615 542.862   9
   3  -4 -12 602.131 487.962   9
  -3   4  12 719.991 508.789   6
  -3   4  11 11666.4 1768.28   6
   3  -4 -11 8261.96 1432.15   9
  -3   4  10 3750.66 982.748   6
   3  -4 -10 4575.01 1042.40   9
  -3   4   9 141.370 408.108   6
  -3   4   8 1470.74 211.461   8
  -3   4   8 2335.47 396.987   3
  -3   4   8 1630.26 617.492   6
  -3   4   7 24145.0 2274.75   6
  -3   4   7 22196.1 1350.06   3
  -3   4   7 21528.8 1032.47   8
  -3   4   6 4728.81 981.387   6
   3  -4  -6 5017.60 581.899   1
  -3   4   5 19407.7 1884.87   6
  -3   4   5 17064.3 956.804   2
   3  -4  -5 14672.9 1036.53   1
  -3   4   4 2109.61 372.475   2
  -3   4   4 1750.10 614.724   6
   3  -4  -4 2264.83 349.641   2
   3  -4  -4 2402.58 443.315   1
  -3   4   3 514.309 288.907   6
   3  -4  -3 819.748 258.950   1
   3  -4  -3 708.214 217.354   2
  -3   4   3 708.999 242.522   2
   3  -4  -2 506.973 226.923   1
  -3   4   2 444.582 305.848   6
   3  -4  -2 848.453 258.765   2
  -3   4   2 1061.77 287.154   2
  -3   4   1 877.918 300.645   6
   3  -4  -1 800.591 261.653   2
  -3   4   1 204.600 88.0397   2
   3  -4  -1 349.508 195.308   1
   3  -4   0 23479.8 1448.59   2
  -3   4   0 22448.9 1641.31   6
  -3   4   0 24443.3 1545.81   2
   3  -4   1 4308.66 643.133   6
  -3   4  -1 3151.60 590.000   6
  -3   4  -1 3934.49 659.408   2
   3  -4   1 4523.38 662.431   2
  -3   4  -2 5906.88 781.769   6
   3  -4   2 6013.31 743.019   6
  -3   4  -2 6222.76 841.528   2
   3  -4   2 5655.25 654.214   4
   3  -4   3 41879.6 1838.12   6
  -3   4  -3 45051.2 2343.39   2
   3  -4   3 42044.7 1601.05   4
   3  -4   4 36795.4 1634.88   6
  -3   4  -4 37571.5 2220.09   2
   3  -4   5 1547.34 327.280   6
  -3   4  -5 1589.66 262.430   9
  -3   4  -5 1212.87 407.807   2
  -3   4  -6 71.9911 44.9100   4
  -3   4  -6 13.1443 55.8336   9
  -3   4  -6-25.8731 803.456   2
   3  -4   6-39.5308 98.7576   6
   3  -4   7 8030.82 654.001   6
  -3   4  -7 7533.14 1155.04   2
  -3   4  -7 10076.4 880.967   9
   3  -4   7 7713.37 1008.91   5
  -3   4  -8 233.201 154.255   9
   3  -4   8 211.233 102.212   6
  -3   4  -8 247.590 162.338   2
  -3   4  -9 806.329 417.505   2
  -3   4  -9 488.550 272.236   9
   3  -4   9 281.735 92.7293   6
  -3   4 -10 1598.45 477.648   9
   3  -4  10 1383.56 207.008   6
  -3   4 -10 1960.11 577.238   2
  -3   4 -11 1278.00 474.902   7
   3  -4  11 707.332 160.912   6
  -3   4 -11 1454.31 468.626   9
  -3   4 -11 916.105 453.186   2
   3  -4  12 652.201 164.813   6
  -3   4 -12 639.953 302.181   9
  -3   4 -12 1175.90 497.311   2
  -3   4 -12 1078.25 559.494   7
  -3   4 -13 455.023 316.799   7
  -3   4 -13-16.6258 165.517   2
  -3   4 -13-111.791 244.330   9
  -3   4 -14 3384.92 1018.53   7
  -3   4 -14 3136.20 868.088   2
  -3   4 -14 3120.08 805.370   9
  -3   4 -15-192.340 431.242   7
  -3   4 -15 24.5765 156.079   9
  -3   4 -15-23.1350 358.133   2
  -3   4 -16 26.0811 166.024   2
  -3   4 -16-92.3863 345.465   7
  -3   4 -16 151.213 206.556   9
  -3   4 -17-285.097 296.766   2
  -3   4 -17 90.6388 295.297   9
  -3   4 -17 436.595 461.260   7
  -3   4 -18 751.400 596.752   7
  -3   4 -18 294.174 439.902   9
  -3   4 -18-71.8843 171.159   2
  -3   4 -19 35.1255 224.441   7
  -3   4 -19 31.5811 141.843   2
  -3   4 -20 591.298 435.193   7
  -3   4 -20 710.442 542.949   9
  -3   4 -21 455.920 434.416   9
  -3   4 -22 1.14816 366.846   9
  -3   3  19 296.631 226.502   6
   3  -3 -19 1055.43 681.835   9
   3  -3 -18 2591.29 1056.59   9
  -3   3  18 1601.02 790.630   6
  -3   3  17 328.282 318.691   6
   3  -3 -17 687.655 522.278   9
   3  -3 -16 853.986 557.469   9
  -3   3  16 568.515 509.980   6
   3  -3 -15 708.237 520.851   9
  -3   3  15-26.7543 179.550   6
  -3   3  14 3016.78 968.334   6
   3  -3 -14 1811.51 718.810   9
  -3   3  13 452.115 377.212   6
   3  -3 -13 1599.62 706.464   9
  -3   3  12 1292.55 649.077   6
  -3   3  11 9029.37 1593.95   6
  -3   3  10 4368.45 1016.00   6
  -3   3  10 3722.47 315.594   8
  -3   3   9 1936.47 689.514   6
  -3   3   9 1691.14 249.227   8
  -3   3   8 9173.00 1372.09   6
  -3   3   8 9053.97 652.074   8
   3  -3  -8 8634.94 610.226   1
   3  -3  -7 4845.18 518.070   1
  -3   3   7 5064.96 621.137   3
  -3   3   7 5184.63 994.202   6
  -3   3   7 5130.59 548.175   8
   3  -3  -7 3799.26 361.568   2
  -3   3   6 8415.83 765.341   8
   3  -3  -6 8347.04 601.382   2
  -3   3   6 9084.81 1278.06   6
  -3   3   6 7762.26 807.227   3
   3  -3  -6 6459.77 646.241   1
  -3   3   5 24033.7 1992.20   6
  -3   3   5 24109.0 1494.21   3
  -3   3   5 23732.7 1152.21   2
   3  -3  -5 23702.4 1108.33   2
  -3   3   4 70.4491 234.862   6
   3  -3  -4 36.8562 41.0387   2
  -3   3   4 9.45963 78.1966   2
  -3   3   3 50732.2 2688.97   6
  -3   3   3 50539.0 1954.92   2
   3  -3  -3 49829.4 1828.66   2
  -3   3   2 11.8548 83.5508   2
  -3   3   2-57.8415 232.865   6
   3  -3  -2 8.85148 78.1942   2
  -3   3   1 955.289 345.236   6
  -3   3   1 1038.15 319.893   2
   3  -3  -1 1264.79 323.700   2
   3  -3   0 52.1493 138.370   4
  -3   3   0 423.785 229.404   2
   3  -3   0 144.348 149.156   2
  -3   3   0 413.765 250.855   6
   3  -3   1 3524.94 539.202   4
  -3   3  -1 2785.54 545.860   6
   3  -3   1 3666.16 595.299   6
  -3   3  -1 3581.29 621.250   2
   3  -3   2 12068.6 1050.17   6
  -3   3  -2 12926.5 1190.95   2
   3  -3   2 11744.5 911.158   4
   3  -3   3 18331.7 1233.99   6
   3  -3   3 18306.2 710.610   9
  -3   3  -3 19594.7 1533.48   2
  -3   3  -3 19742.1 1096.70   4
   3  -3   4-22.1640 117.993   6
  -3   3  -4 20.8230 79.6123   4
  -3   3  -4 319.533 334.411   2
  -3   3  -5 2765.97 606.194   2
   3  -3   5 3396.76 636.574   5
   3  -3   6 702.370 333.911   5
  -3   3  -6 1211.57 521.581   2
  -3   3  -6 1195.70 330.106   9
  -3   3  -7 2622.41 647.398   2
  -3   3  -7 2478.92 470.968   9
  -3   3  -8 652.695 305.348   2
  -3   3  -8 1245.60 385.149   9
  -3   3  -9 17417.0 1479.92   9
   3  -3   9 17634.6 911.832   6
  -3   3  -9 21466.2 1955.20   2
  -3   3 -10 16826.6 1558.25   9
  -3   3 -10 16552.9 1801.91   2
   3  -3  10 16462.4 929.289   6
   3  -3  11 3695.97 465.154   6
  -3   3 -11 4019.40 1019.48   7
  -3   3 -11 3884.83 897.941   2
  -3   3 -11 4081.38 796.573   9
  -3   3 -12 110.742 181.945   7
   3  -3  12 153.972 133.665   6
  -3   3 -12 310.723 418.810   2
  -3   3 -12 68.1429 124.643   9
   3  -3  13 8705.39 815.703   6
  -3   3 -13 9104.15 1442.45   2
  -3   3 -13 9256.07 1371.48   9
  -3   3 -13 7372.00 1486.92   7
  -3   3 -14 2584.86 892.547   7
  -3   3 -14 1670.55 622.768   9
  -3   3 -14 1236.72 493.534   2
  -3   3 -14 1647.68 621.326   5
  -3   3 -15 274.171 204.306   7
  -3   3 -15 405.280 337.918   3
  -3   3 -15 869.861 589.756   9
  -3   3 -15 311.952 361.159   5
  -3   3 -15 584.744 293.460   2
  -3   3 -16-260.834 344.175   2
  -3   3 -16 73.1542 369.248   7
  -3   3 -16 322.616 325.241   5
  -3   3 -16-268.094 196.201   9
  -3   3 -17 879.996 705.983   7
  -3   3 -17 917.566 496.125   2
  -3   3 -17 499.479 329.830   9
  -3   3 -18 111.759 239.112   2
  -3   3 -18 161.349 337.565   9
  -3   3 -19 288.116 388.657   7
  -3   3 -19 98.3587 124.995   9
  -3   3 -20-1504.85 872.835   7
  -3   3 -20 254.651 332.257   9
  -3   3 -21-85.5121 228.159   9
   3  -2 -21-141.340 360.733   4
   3  -2 -19 1350.19 832.195   9
  -3   2  18-66.1397 200.621   6
   3  -2 -18-529.244 490.665   9
  -3   2  17 633.472 473.863   6
   3  -2 -17 28.7442 273.645   9
   3  -2 -16 254.398 234.485   9
  -3   2  16-540.922 443.743   6
  -3   2  15 344.065 485.375   6
  -3   2  14 296.492 258.755   6
  -3   2  13 2581.43 846.367   6
  -3   2  12 3951.92 984.554   6
  -3   2  11 9401.45 1501.65   6
   3  -2 -11 7115.25 520.145   2
  -3   2  11 8005.05 623.639   8
   3  -2 -11 7066.38 462.169   2
   3  -2 -10 283.945 124.970   2
  -3   2  10 394.608 254.407   6
  -3   2  10 69.5943 45.2065   8
   3  -2  -9 4843.60 493.202   2
  -3   2   9 4532.87 509.533   8
   3  -2  -9 4406.59 399.402   1
  -3   2   9 4710.62 972.824   6
  -3   2   8 6694.22 644.508   8
  -3   2   8 5265.54 1054.79   6
   3  -2  -8 5846.83 562.708   2
  -3   2   7 10303.6 1354.15   6
  -3   2   7 10809.3 855.963   8
   3  -2  -7 11409.7 806.813   2
  -3   2   6 25803.2 2114.64   6
   3  -2  -6 24601.8 1213.69   2
  -3   2   6 27079.0 1412.49   8
  -3   2   5 2168.28 595.055   6
  -3   2   5 2094.37 394.931   8
  -3   2   5 2472.65 462.682   3
   3  -2  -5 2121.02 368.071   2
  -3   2   4 6421.40 778.449   3
  -3   2   4 6895.56 702.325   2
   3  -2  -4 5852.81 644.901   2
  -3   2   4 6205.26 936.485   6
  -3   2   3 1629.29 480.522   6
   3  -2  -3 1146.71 293.752   2
  -3   2   3 1509.49 387.022   3
  -3   2   3 2162.34 404.451   2
  -3   2   2 8302.00 1015.45   6
   3  -2  -2 8471.77 824.485   2
  -3   2   2 8168.07 936.066   3
  -3   2   2 7302.58 781.339   2
   3  -2  -2 7709.01 954.151   4
   3  -2  -1 2287.15 472.801   4
  -3   2   1 3042.38 516.689   2
  -3   2   1 2295.51 515.771   6
   3  -2  -1 2355.23 443.080   2
  -3   2   0 31580.5 1735.26   2
   3  -2   0 30953.8 1685.03   4
   3  -2   1 76099.2 2501.29   4
  -3   2  -1 77207.1 2794.62   2
  -3   2  -1 77184.8 2551.39   4
  -3   2  -2 116724. 3560.16   2
  -3   2  -2 116746. 2933.95   4
  -3   2  -3 23310.5 1691.53   2
   3  -2   3 25059.3 1047.40   9
  -3   2  -3 25876.0 1342.81   4
   3  -2   3 25613.6 1669.82   7
   3  -2   4 106597. 3597.70   5
  -3   2  -4 106457. 3636.34   2
   3  -2   4 103738. 2431.60   9
   3  -2   4 108475. 3606.38   7
   3  -2   5 1496.93 431.742   5
   3  -2   5 1016.24 272.531   9
  -3   2  -5 1500.10 434.999   2
   3  -2   6 8328.63 1042.89   5
  -3   2  -6 8229.54 1086.55   2
  -3   2  -6 8240.89 838.856   9
  -3   2  -7 14278.1 1471.47   2
  -3   2  -7 14863.0 1238.11   9
  -3   2  -8 586.321 293.507   9
  -3   2  -8 53.4860 224.205   2
  -3   2  -8-146.452 274.330   5
   3  -2   9 14094.1 956.991   6
  -3   2  -9 14403.7 1546.51   5
  -3   2  -9 15628.7 1476.01   9
  -3   2  -9 15911.0 1672.34   2
  -3   2 -10-75.4722 201.164   5
   3  -2  10 320.632 126.163   6
  -3   2 -10 481.097 260.080   2
  -3   2 -10 298.664 232.731   9
  -3   2 -11 581.935 257.700   7
   3  -2  11 1105.22 314.569   6
  -3   2 -11 1230.28 419.753   9
  -3   2 -11 1088.63 514.524   5
  -3   2 -11 1406.90 493.135   2
  -3   2 -12 78.1203 264.112   7
  -3   2 -12 36.8125 149.965   3
   3  -2  12 37.3630 66.2187   6
  -3   2 -12 267.983 343.182   5
  -3   2 -12 191.998 208.509   2
  -3   2 -12 249.987 248.679   9
  -3   2 -13 3981.71 1142.43   7
  -3   2 -13 4520.90 919.529   3
   3  -2  13 4476.03 673.255   6
  -3   2 -13 4623.63 1022.79   2
  -3   2 -13 3259.35 820.151   9
  -3   2 -13 3120.75 845.854   5
  -3   2 -14 1276.93 545.772   5
  -3   2 -14 992.078 419.734   3
   3  -2  14 1480.05 406.518   6
  -3   2 -14 1099.85 459.326   2
  -3   2 -14 1570.68 602.444   9
  -3   2 -14 824.084 406.371   7
  -3   2 -15 1081.97 751.524   7
  -3   2 -15 1666.17 694.473   5
  -3   2 -15 1495.97 579.276   3
  -3   2 -15 1141.46 564.520   2
  -3   2 -15 1872.71 712.135   9
  -3   2 -16 883.526 515.591   7
  -3   2 -16-21.6955 178.898   2
  -3   2 -16 304.059 315.529   5
  -3   2 -16 211.721 226.516   9
  -3   2 -17 283.779 461.678   7
  -3   2 -17 1434.09 633.465   2
  -3   2 -17 700.194 501.777   5
  -3   2 -17 891.380 522.879   9
  -3   2 -18 57.6097 312.129   7
  -3   2 -18-412.904 391.845   9
  -3   2 -18 301.349 442.625   5
  -3   2 -19 432.657 361.082   9
  -3   2 -19 25.8306 362.809   7
  -3   2 -20 79.0181 266.346   7
  -3   2 -20 74.2081 215.864   9
  -3   2 -21 201.302 282.510   9
   3  -1 -21-13.1632 710.846   4
   3  -1 -20 227.367 571.999   4
   3  -1 -19 1571.25 840.096   9
   3  -1 -19 1381.65 826.821   4
  -3   1  18 107.745 234.279   6
   3  -1 -18 10.0063 329.710   9
  -3   1  17 291.611 209.550   6
  -3   1  16 359.161 343.456   6
  -3   1  15 193.674 248.174   6
  -3   1  14 705.112 481.727   6
  -3   1  13 5637.34 1228.94   6
  -3   1  13 5714.85 633.106   8
   3  -1 -13 5608.71 593.096   2
  -3   1  12 4540.39 1056.52   6
  -3   1  12 6671.92 685.060   8
  -3   1  11 414.304 378.112   6
   3  -1 -11 635.025 210.550   2
  -3   1  11 568.929 201.244   8
  -3   1  10 1442.13 553.985   6
  -3   1  10 1489.55 333.642   8
   3  -1 -10 981.347 270.024   2
  -3   1   9 4039.04 878.485   6
   3  -1  -9 3802.82 535.068   2
  -3   1   9 3663.13 534.290   8
   3  -1  -8 2384.70 428.473   2
  -3   1   8 2254.03 626.765   6
  -3   1   8 2376.96 444.474   8
   3  -1  -7 5654.55 647.715   2
  -3   1   7 6111.41 1070.51   6
  -3   1   7 4620.56 615.626   8
   3  -1  -6 1432.07 341.650   2
  -3   1   6 1611.60 532.035   6
  -3   1   6 1108.07 310.747   8
  -3   1   5 34855.3 2265.62   6
   3  -1  -5 32271.9 1578.28   2
  -3   1   5 31882.9 1661.27   8
  -3   1   4 28693.1 2019.08   6
   3  -1  -4 25951.9 1448.56   2
  -3   1   4 26848.3 1578.95   3
  -3   1   4 25078.8 1514.51   8
   3  -1  -4 27564.5 1969.51   4
   3  -1  -3 608.507 191.943   2
  -3   1   3-0.69719 188.086   6
  -3   1   3 615.293 281.869   3
  -3   1   3 491.525 193.236   2
   3  -1  -3 132.102 170.869   4
  -3   1   2 17335.2 1315.40   3
  -3   1   2 16568.7 1187.24   2
   3  -1  -2 17634.1 1229.15   2
   3  -1  -2 15505.7 1330.93   4
  -3   1   1 177.833 141.827   3
   3  -1  -1 156.446 83.1832   4
  -3   1   1 220.446 174.055   2
  -3   1   0 11106.6 1096.98   3
  -3   1   0 11502.8 1079.20   2
   3  -1   0 11340.3 1026.96   4
  -3   1  -1 111585. 3570.92   3
  -3   1  -1 114448. 3426.25   2
  -3   1  -1 115875. 3190.32   4
  -3   1  -2 7210.92 947.979   3
  -3   1  -2 6643.22 851.494   2
   3  -1   2 6799.87 787.340   7
  -3   1  -3 19959.1 1536.02   2
   3  -1   3 20516.9 1534.97   5
   3  -1   3 19758.7 1421.02   7
  -3   1  -3 19386.3 1542.03   3
   3  -1   4 4421.88 718.635   7
  -3   1  -4 5930.55 883.280   3
  -3   1  -4 5637.44 843.957   2
   3  -1   4 5433.51 811.711   5
   3  -1   4 5323.47 618.344   9
  -3   1  -5 43599.8 2435.38   3
  -3   1  -5 42983.9 2415.81   2
   3  -1   5 45647.8 2432.51   5
   3  -1   5 44382.6 1956.79   9
  -3   1  -6 2370.58 592.209   2
  -3   1  -6 2122.60 584.892   3
   3  -1   6 1817.47 427.121   9
  -3   1  -6 2087.78 558.652   5
  -3   1  -7 9989.01 1213.16   3
  -3   1  -7 11490.3 1318.59   2
  -3   1  -7 8656.86 1027.08   9
  -3   1  -7 9798.36 1237.09   5
  -3   1  -8 2212.95 558.364   9
  -3   1  -8 2272.30 604.753   2
  -3   1  -8 1489.99 491.558   3
  -3   1  -8 3246.33 753.573   5
   3  -1   8 2413.82 419.950   6
  -3   1  -9 426.163 286.710   5
  -3   1  -9 138.620 195.532   3
  -3   1  -9 34.6285 144.531   2
  -3   1  -9-149.837 218.244   9
   3  -1   9 35.6809 102.820   6
   3  -1  10 1118.80 326.569   6
  -3   1 -10 1266.15 453.911   3
  -3   1 -10 507.711 322.700   2
  -3   1 -10 977.409 421.978   7
  -3   1 -10 1319.11 491.174   5
  -3   1 -10 982.041 418.112   9
  -3   1 -11 291.327 358.559   7
  -3   1 -11 307.513 404.703   9
  -3   1 -11 24.4235 117.255   3
  -3   1 -11 270.853 165.703   2
  -3   1 -11-116.419 145.818   5
   3  -1  11 101.782 123.945   6
   3  -1  12 6115.22 830.638   6
  -3   1 -12 6413.30 1048.81   3
  -3   1 -12 6523.29 1170.48   2
  -3   1 -12 6403.41 1339.67   7
  -3   1 -12 7011.39 1248.57   9
  -3   1 -12 6449.24 1199.55   5
  -3   1 -13 6306.36 1371.84   7
  -3   1 -13 5618.05 986.683   3
  -3   1 -13 5045.54 1077.84   2
   3  -1  13 4867.89 766.155   6
  -3   1 -13 4637.98 1063.57   9
  -3   1 -13 4780.63 1082.27   5
  -3   1 -14 5083.25 1138.88   9
  -3   1 -14 3459.60 890.773   2
   3  -1  14 4074.05 725.614   6
  -3   1 -14 4313.31 860.201   3
  -3   1 -14 3248.32 1010.50   7
  -3   1 -14 3713.72 989.982   5
  -3   1 -15 4306.33 1013.65   2
  -3   1 -15 3485.47 1020.51   5
  -3   1 -15 2931.91 921.572   9
  -3   1 -15 3205.21 1047.76   7
  -3   1 -16-222.996 174.491   2
  -3   1 -16 147.120 245.361   5
  -3   1 -16 169.229 264.520   7
  -3   1 -17 192.198 305.561   7
  -3   1 -17 213.313 284.983   9
  -3   1 -17-622.989 452.353   5
  -3   1 -18-187.629 268.707   5
  -3   1 -18 285.043 369.032   9
  -3   1 -19 144.969 270.932   9
  -3   1 -19 829.100 598.542   7
  -3   1 -20 2885.07 1106.10   9
  -3   1 -20 891.873 708.120   7
   3   0 -22 381.211 449.978   4
   3   0 -21 2079.26 1095.83   4
   3   0 -20 2375.19 1041.32   4
   3   0 -20 385.780 399.481   9
   3   0 -19-311.967 455.513   4
   3   0 -19 564.894 574.375   9
  -3   0  18 210.716 294.062   6
   3   0 -18-106.373 258.856   4
   3   0 -17 2007.59 905.773   4
  -3   0  17 337.962 302.875   6
   3   0 -16-134.373 447.748   4
  -3   0  16-147.995 247.709   6
  -3   0  15-128.044 251.702   6
  -3   0  14-147.062 144.660   6
  -3   0  14-87.1060 81.6458   8
  -3   0  13 2334.46 752.921   6
  -3   0  13 3736.47 603.264   8
  -3   0  12 1160.04 334.961   8
  -3   0  12 2695.64 831.986   6
   3   0 -11 220.895 170.280   8
  -3   0  11 234.618 402.817   6
  -3   0  11 302.417 171.468   8
  -3   0  10 4470.97 950.402   6
   3   0 -10 5828.79 666.356   3
  -3   0  10 5276.37 693.362   8
   3   0 -10 4674.20 736.721   8
   3   0  -9 1357.53 406.022   8
  -3   0   9 2408.94 730.129   6
   3   0  -9 1481.48 377.512   3
  -3   0   9 1546.24 382.065   8
  -3   0   8 28766.6 2240.71   6
   3   0  -8 30790.9 1647.02   3
   3   0  -8 28609.2 2382.63   4
  -3   0   8 29310.3 1611.70   8
   3   0  -7 2754.69 715.369   4
  -3   0   7 2659.99 645.554   6
   3   0  -7 2876.63 500.131   3
  -3   0   7 2637.65 484.956   8
  -3   0   6 20935.0 1783.96   6
   3   0  -6 21410.2 1415.84   3
  -3   0   6 19223.5 1338.19   8
   3   0  -6 18257.2 1281.59   2
   3   0  -6 18227.8 1736.83   4
   3   0  -5 33550.9 1813.46   3
   3   0  -5 34624.8 1764.50   2
  -3   0   5 33140.3 1765.32   8
   3   0  -5 30615.8 2140.23   4
   3   0  -4 15677.6 1237.71   3
  -3   0   4 13914.3 1160.56   8
   3   0  -4 14328.9 1142.84   2
   3   0  -4 14223.8 1395.13   4
   3   0  -3 2671.02 539.502   3
   3   0  -3 2354.76 483.431   2
   3   0  -3 2004.11 520.751   4
  -3   0   3 1627.96 448.659   8
  -3   0   2 370.604 227.911   2
  -3   0   2 75.8529 104.485   3
   3   0  -2 2.75686 104.272   4
  -3   0   1 261.697 156.173   2
  -3   0   1 202.864 152.289   3
   3   0  -1 74.1411 133.816   4
  -3   0   0 2300.22 522.032   3
  -3   0   0 2067.50 460.348   2
  -3   0  -1 19814.0 1499.02   3
  -3   0  -1 18589.4 1411.88   2
   3   0   1 18808.8 1173.89   7
  -3   0  -2 4563.67 708.672   2
   3   0   2 4201.81 597.303   7
  -3   0  -2 4676.60 747.212   3
   3   0   2 5355.81 768.697   5
  -3   0  -3 9668.96 1121.64   2
  -3   0  -3 9807.92 1113.30   3
   3   0   3 8720.62 1033.67   5
   3   0   3 9214.14 955.753   7
  -3   0  -3 10532.7 1024.64   7
  -3   0  -4 15833.8 1402.67   3
  -3   0  -4 14944.0 1293.89   7
   3   0   4 17247.5 1226.04   9
  -3   0  -4 14362.0 1334.26   2
   3   0   4 15753.6 1420.85   5
   3   0   4 16096.6 1337.15   7
  -3   0  -5 5508.96 855.253   7
  -3   0  -5 4424.35 777.594   2
  -3   0  -5 5315.31 833.679   3
   3   0   5 4380.73 662.350   9
  -3   0  -6 3807.86 742.560   7
  -3   0  -6 3525.31 720.664   2
  -3   0  -6 4323.51 806.099   5
  -3   0  -6 3932.79 742.639   3
  -3   0  -7-13.4231 125.233   2
  -3   0  -7 124.570 188.232   3
  -3   0  -7 315.211 317.629   5
  -3   0  -8 270.196 231.670   3
  -3   0  -8 245.526 265.661   2
   3   0   8 196.037 87.0718   6
  -3   0  -8 73.8243 101.216   5
  -3   0  -9 8595.27 1352.38   7
  -3   0  -9 6901.62 1186.27   5
   3   0   9 6976.25 835.260   6
  -3   0  -9 8006.55 1098.05   3
  -3   0  -9 7313.27 1111.51   9
  -3   0  -9 7734.76 1166.12   2
  -3   0 -10 427.492 281.640   7
  -3   0 -10 1440.14 552.264   9
  -3   0 -10 1485.86 513.646   2
  -3   0 -10 983.181 346.747   3
   3   0  10 905.930 311.827   6
  -3   0 -10 946.773 352.440   5
  -3   0 -11-244.791 396.668   7
  -3   0 -11-820.090 413.423   9
  -3   0 -11 331.193 327.473   2
   3   0  11-56.2648 170.075   6
  -3   0 -11 408.940 402.757   5
  -3   0 -11 91.8245 135.038   3
  -3   0 -12-271.458 200.711   9
  -3   0 -12 255.768 322.622   5
  -3   0 -12 136.492 89.4559   3
  -3   0 -12 91.3839 135.746   2
   3   0  12-55.3676 101.538   6
  -3   0 -12-232.682 350.875   7
  -3   0 -13-398.659 327.656   7
  -3   0 -13-158.281 317.314   9
  -3   0 -13 403.885 413.595   2
   3   0  13-45.5982 93.4417   6
  -3   0 -13-179.205 239.075   5
  -3   0 -14 8919.99 1700.89   7
   3   0  14 6908.72 1045.50   6
  -3   0 -14 8576.23 1380.15   2
  -3   0 -14 7909.66 1485.82   5
  -3   0 -14 7929.03 1451.86   9
  -3   0 -15 679.395 491.757   2
  -3   0 -15 571.453 480.437   9
   3   0  15-77.4152 200.689   6
  -3   0 -15 53.8132 304.920   7
  -3   0 -15 500.904 459.501   5
  -3   0 -16-34.6612 222.192   9
  -3   0 -16-11.5149 128.292   5
  -3   0 -17-13.2379 366.334   5
  -3   0 -17 1296.89 671.527   9
  -3   0 -18-325.740 363.513   5
  -3   0 -18 415.374 408.127   9
  -3   0 -18 603.685 596.863   7
  -3   0 -19 1222.99 691.662   5
  -3   0 -19 2527.70 987.918   9
  -3   0 -19 1568.37 860.801   7
   3   1 -22-640.569 601.629   4
   3   1 -21-369.399 456.525   4
   3   1 -20 1998.55 956.520   4
   3   1 -19 1059.27 564.478   4
   3   1 -18-41.8900 293.931   4
   3   1 -17 758.499 677.124   4
  -3  -1  16 130.259 375.568   6
   3   1 -16 796.751 629.147   4
  -3  -1  15 2490.74 834.581   6
   3   1 -15 1727.07 725.987   4
   3   1 -14-55.8068 328.823   4
  -3  -1  14 81.5135 258.338   6
  -3  -1  14 182.030 108.502   8
   3   1 -13 189.342 202.194   4
  -3  -1  13 286.352 339.886   6
  -3  -1  13-48.8933 113.206   8
   3   1 -12 3881.19 1000.81   4
  -3  -1  12 3843.44 945.734   6
   3   1 -12 3542.09 561.493   3
  -3  -1  12 4238.67 684.582   8
   3   1 -11 20.5021 229.200   4
  -3  -1  11 238.277 313.862   6
   3   1 -11 157.425 151.095   3
  -3  -1  11-60.1467 113.269   8
  -3  -1  10 7438.51 1195.49   6
   3   1 -10 7582.80 1288.64   4
   3   1 -10 8400.79 922.354   3
  -3  -1  10 6952.92 854.736   8
  -3  -1   9 183.635 174.431   8
   3   1  -9 371.974 271.769   4
   3   1  -8 1706.32 439.838   8
   3   1  -8 2089.21 633.852   4
  -3  -1   8 2155.29 444.000   8
   3   1  -7 1902.01 481.582   8
   3   1  -7 2189.26 634.010   4
  -3  -1   7 2737.96 528.008   8
  -3  -1   6 2756.98 557.766   8
   3   1  -6 2856.54 696.742   4
   3   1  -6 2916.16 570.576   8
   3   1  -5 1743.52 523.755   4
   3   1  -5 2021.07 483.494   8
  -3  -1   5 1994.13 449.036   8
  -3  -1   4 321.585 231.265   8
   3   1  -4-98.5072 122.436   2
   3   1  -4-205.767 181.974   4
  -3  -1   3 25585.0 1652.81   8
   3   1  -3 24869.3 1749.35   4
  -3  -1   2 1106.20 367.404   8
  -3  -1   1 25778.7 1631.76   2
  -3  -1   0 12555.1 1174.38   2
   3   1   0 12050.8 1094.03   5
  -3  -1  -1 43361.3 2207.01   2
   3   1   1 40989.7 2110.61   5
   3   1   1 41550.0 1632.32   7
  -3  -1  -2 19930.2 1254.79   7
  -3  -1  -2 17994.7 1491.01   2
   3   1   2 22503.2 1620.12   5
   3   1   2 20476.1 1262.75   7
   3   1   3 37493.8 2208.02   3
   3   1   3 35805.1 2114.73   5
  -3  -1  -3 33721.6 1762.94   7
  -3  -1  -3 35647.0 2112.74   3
  -3  -1  -3 36372.3 2114.77   2
   3   1   3 37418.1 1859.62   7
  -3  -1  -4-15.1859 177.143   7
  -3  -1  -4 55.6183 120.728   3
   3   1   4 85.0827 83.4113   2
   3   1   4 38.4728 75.4547   3
   3   1   4-88.8370 139.900   9
  -3  -1  -4-24.3772 177.823   2
  -3  -1  -5 6430.13 926.342   3
  -3  -1  -5 6277.15 902.336   7
  -3  -1  -5 6751.46 959.699   2
  -3  -1  -6 3015.98 694.763   7
  -3  -1  -6 3076.27 689.391   2
  -3  -1  -6 3048.08 642.247   3
  -3  -1  -7 7275.91 1159.14   5
  -3  -1  -7 7753.96 1096.64   2
   3   1   8 14626.6 1259.40   6
  -3  -1  -8 14799.1 1525.67   2
  -3  -1  -8 12720.0 1595.55   5
  -3  -1  -9 526.792 347.537   2
  -3  -1  -9 856.790 447.188   5
   3   1   9 1140.57 406.440   6
  -3  -1  -9 1241.32 472.261   7
  -3  -1 -10 1154.07 460.907   2
   3   1  10 876.223 356.869   6
  -3  -1 -10 1332.20 587.771   5
  -3  -1 -10 1278.92 601.011   7
  -3  -1 -11-104.244 201.144   2
  -3  -1 -11 252.924 413.963   5
   3   1  11 728.759 356.220   6
  -3  -1 -11 216.663 299.393   9
  -3  -1 -11-84.4880 262.550   7
  -3  -1 -12-21.0278 258.680   2
  -3  -1 -12-506.747 378.882   5
  -3  -1 -12 177.897 264.927   9
   3   1  12 263.501 273.622   6
  -3  -1 -12 752.397 554.778   7
  -3  -1 -13 2092.15 713.545   2
   3   1  13 2029.33 588.443   6
  -3  -1 -13 2771.79 880.552   9
  -3  -1 -13 1855.97 726.719   5
  -3  -1 -13 1996.04 801.319   7
  -3  -1 -14 1298.58 541.529   2
  -3  -1 -14 3682.93 1033.56   5
   3   1  14 2040.30 631.195   6
  -3  -1 -14 3052.23 939.160   9
  -3  -1 -14 3096.16 948.200   7
  -3  -1 -15 273.483 266.921   5
  -3  -1 -15 319.835 365.087   9
   3   1  15-50.8843 199.714   6
  -3  -1 -15-741.758 527.710   7
  -3  -1 -15-297.536 304.481   2
  -3  -1 -16 929.250 476.450   9
  -3  -1 -16 949.610 644.922   7
  -3  -1 -16 877.657 561.007   5
  -3  -1 -17 1675.46 884.201   7
  -3  -1 -17-90.7786 225.824   5
  -3  -1 -18 393.216 555.164   7
  -3  -1 -18 859.451 609.596   5
  -3  -1 -19 1775.02 930.523   7
  -3  -1 -19 439.613 352.697   5
   3   2 -21-1895.96 939.648   4
   3   2 -21 364.332 473.166   7
   3   2 -20 211.258 448.054   4
   3   2 -19 6.76120 183.220   4
   3   2 -18-381.903 181.288   4
   3   2 -17 221.120 276.381   4
   3   2 -16-69.1352 223.909   4
   3   2 -15 300.094 278.336   4
  -3  -2  15 269.103 191.154   8
   3   2 -14 876.570 597.451   4
  -3  -2  14 303.332 184.045   8
   3   2 -13 1752.80 658.362   4
  -3  -2  13 2527.94 578.963   8
   3   2 -12 901.659 505.389   4
  -3  -2  12 754.863 319.372   8
  -3  -2  11 27660.2 1844.50   8
   3   2 -11 25067.2 2402.59   4
   3   2 -10 14219.2 1763.17   4
  -3  -2  10 15080.8 1339.08   8
   3   2  -9 532.156 253.143   4
  -3  -2   9 570.312 282.253   8
   3   2  -8 5783.80 1020.10   4
  -3  -2   8 5358.80 793.706   8
  -3  -2   7 7768.95 943.041   8
   3   2  -7 4687.72 903.379   4
  -3  -2   6 1814.41 426.283   8
   3   2  -6 2140.51 570.061   4
   3   2  -5 4566.11 825.858   4
  -3  -2   5 5556.20 810.656   8
   3   2  -5 4716.73 752.794   8
   3   2  -4-24.3081 166.124   4
  -3  -2   4 40.5521 150.337   8
  -3  -2   3-67.5769 116.063   8
   3   2  -2 19099.7 1316.97   5
  -3  -2   2 18972.1 1477.53   8
  -3  -2   1 23616.5 1640.20   8
   3   2  -1 21267.9 1434.41   5
   3   2   0 166.240 68.8692   7
  -3  -2   0 321.802 200.141   2
  -3  -2   0 250.327 206.911   8
   3   2   0 330.752 203.451   5
   3   2   1 9812.45 1048.42   5
  -3  -2  -1 9130.75 1044.74   2
   3   2   1 8226.97 694.789   7
  -3  -2  -1 8411.57 701.231   7
  -3  -2  -2 18796.2 1182.38   7
  -3  -2  -2 18455.0 1512.86   2
   3   2   3 5352.86 861.961   3
   3   2   3 5524.82 843.071   2
  -3  -2  -3 4963.54 828.926   2
  -3  -2  -3 5390.06 708.608   7
   3   2   4 364.551 185.576   2
   3   2   4 450.215 442.539   3
  -3  -2  -4 207.558 206.949   7
  -3  -2  -4 889.148 446.851   2
   3   2   5 9847.96 1185.39   3
  -3  -2  -5 9582.19 1150.62   2
  -3  -2  -5 10968.1 1213.35   7
   3   2   6 5570.90 889.692   3
  -3  -2  -6 5518.86 900.159   2
  -3  -2  -6 5553.90 914.767   7
  -3  -2  -7 7826.36 1233.65   5
   3   2   7 9755.60 1082.24   6
  -3  -2  -7 9368.75 1183.80   2
  -3  -2  -8 4720.13 1008.64   5
   3   2   8 3014.56 617.568   6
  -3  -2  -8 3317.90 721.720   2
   3   2   9 31.6104 131.841   6
  -3  -2  -9 141.966 198.111   5
  -3  -2  -9 160.430 252.981   2
  -3  -2  -9-47.9297 233.275   7
  -3  -2 -10 202.823 347.449   5
  -3  -2 -10 352.649 230.338   7
   3   2  10 702.146 403.471   6
  -3  -2 -10 295.036 223.983   2
   3   2  11 912.460 326.047   6
  -3  -2 -11 579.122 389.982   5
  -3  -2 -11 887.438 445.665   7
  -3  -2 -12 2010.81 821.770   5
   3   2  12 1537.37 483.395   6
  -3  -2 -12 1231.30 646.310   7
  -3  -2 -12 1146.33 514.906   2
  -3  -2 -13-129.323 238.442   2
   3   2  13-145.761 264.859   6
  -3  -2 -13-173.174 383.424   7
  -3  -2 -13-130.086 232.324   5
  -3  -2 -14 2701.46 876.448   5
   3   2  14 2979.09 773.864   6
  -3  -2 -14 2086.04 683.063   2
  -3  -2 -14 2008.26 783.058   7
   3   2  15 429.528 350.436   6
  -3  -2 -15 72.7898 239.770   5
  -3  -2 -15 1059.73 603.472   7
  -3  -2 -16 739.492 630.047   7
  -3  -2 -16-319.047 361.727   5
  -3  -2 -17 987.752 624.015   7
  -3  -2 -17 1401.33 737.252   5
  -3  -2 -18 41.3399 199.998   7
  -3  -2 -18 807.091 591.718   5
  -3  -2 -19 447.160 512.597   7
  -3  -2 -19 82.7473 470.268   5
  -3  -2 -20 1.28710 424.419   5
   3   3 -21 961.174 656.333   4
   3   3 -21 355.095 359.388   7
   3   3 -20-127.761 312.012   4
   3   3 -20-335.434 401.809   7
   3   3 -19-133.965 230.254   4
   3   3 -19 236.474 373.212   7
   3   3 -18-433.464 569.878   4
   3   3 -17-346.078 482.731   4
   3   3 -16-222.382 165.655   4
  -3  -3  16 59.0124 142.391   8
   3   3 -15-149.577 404.338   4
  -3  -3  15 404.091 297.875   8
   3   3 -14 395.805 418.907   4
  -3  -3  14 450.323 252.745   8
   3   3 -13 396.599 269.234   4
  -3  -3  13 902.376 384.355   8
   3   3 -12 332.164 319.981   4
  -3  -3  12 274.472 212.438   8
  -3  -3  11 19583.0 1659.13   8
   3   3 -11 16972.4 1956.33   4
   3   3 -10 2551.74 727.583   4
  -3  -3  10 2887.41 646.226   8
   3   3  -9 3400.32 789.787   4
  -3  -3   9 3213.82 668.018   8
  -3  -3   8 39614.0 2242.34   8
   3   3  -8 40327.3 2691.19   4
  -3  -3   7 21095.3 1633.53   8
   3   3  -7 21927.5 1908.44   4
  -3  -3   6 7257.96 964.593   8
   3   3  -6 7645.27 1092.20   4
  -3  -3   5 1335.80 412.746   8
  -3  -3   4 228.947 124.267   8
   3   3  -4 227.062 122.422   5
   3   3  -3 1905.82 441.334   5
  -3  -3   3 3348.93 722.839   8
   3   3  -2 2567.61 492.966   5
  -3  -3   2 2054.15 510.709   8
  -3  -3   1 11760.1 1196.04   8
  -3  -3   1 13349.4 1175.92   5
   3   3  -1 12770.1 1145.96   5
   3   3  -1 11500.0 547.075   7
  -3  -3   0 100369. 3472.04   8
  -3  -3  -1 33624.0 2092.60   8
  -3  -3  -1 35935.7 1412.51   7
  -3  -3  -2 1447.09 337.847   7
  -3  -3  -2 1816.17 496.681   2
   3   3   2 2442.00 558.418   2
  -3  -3  -2 1693.88 444.813   8
  -3  -3  -3 406.148 263.152   2
  -3  -3  -3 678.806 271.514   7
  -3  -3  -4 2231.05 547.200   2
  -3  -3  -4 2170.61 487.730   7
  -3  -3  -5 4331.24 788.804   2
  -3  -3  -5 4654.45 805.119   7
  -3  -3  -6 15165.1 1505.55   2
   3   3   6 15284.3 1381.66   6
   3   3   7 2264.55 551.084   6
  -3  -3  -7 2659.90 649.800   2
  -3  -3  -8 95.5840 169.123   2
   3   3   8 61.1279 161.897   6
  -3  -3  -8-172.257 225.894   7
   3   3   9 3249.64 709.749   6
  -3  -3  -9 2997.16 708.602   2
  -3  -3  -9 2358.93 750.445   7
  -3  -3 -10 159.047 98.1023   2
   3   3  10-35.6503 238.110   6
  -3  -3 -10-18.6340 222.441   5
  -3  -3 -10-80.3407 265.444   7
  -3  -3 -11-52.3405 250.195   5
  -3  -3 -11-62.1143 107.356   2
   3   3  11-98.5331 251.505   6
  -3  -3 -11-153.590 369.233   7
   3   3  12 92.3287 186.775   6
  -3  -3 -12 122.953 194.599   2
  -3  -3 -12 364.553 392.042   5
  -3  -3 -12 441.644 448.489   7
  -3  -3 -13 4308.50 1185.23   5
   3   3  13 3897.27 908.143   6
  -3  -3 -13 3530.09 842.805   2
  -3  -3 -13 2606.24 942.347   7
  -3  -3 -14 3687.83 1144.09   5
   3   3  14 4089.52 994.394   6
  -3  -3 -14 4191.38 1244.13   7
   3   3  15 615.036 401.504   6
  -3  -3 -15 871.697 591.496   5
  -3  -3 -15 1051.40 646.281   7
  -3  -3 -16 2637.34 982.516   5
   3   3  16 2493.31 861.481   6
  -3  -3 -16 2318.47 973.567   7
  -3  -3 -17 295.780 374.863   5
  -3  -3 -17 229.805 591.209   7
  -3  -3 -18 125.874 261.826   5
  -3  -3 -18-27.8228 204.251   7
  -3  -3 -19 22.0054 164.571   5
   3   4 -22 76.5996 241.253   7
   3   4 -21 17.7814 230.453   7
   3   4 -20 484.728 521.758   7
   3   4 -20 83.6086 434.887   4
   3   4 -19 1840.86 815.808   4
   3   4 -19 1104.15 716.780   7
   3   4 -18 1507.95 855.333   4
   3   4 -18 968.230 570.100   7
   3   4 -17 770.770 501.025   7
  -3  -4  17-306.870 248.431   8
   3   4 -17 54.6755 402.650   4
   3   4 -16 1067.51 507.422   4
  -3  -4  16 1191.93 463.783   8
   3   4 -15 1056.96 625.005   4
  -3  -4  15 2285.88 627.344   8
   3   4 -14 4947.33 1152.16   4
  -3  -4  14 4050.54 847.950   8
   3   4 -13-611.576 404.087   4
  -3  -4  13-113.049 235.178   8
  -3  -4  12 616.395 333.759   8
   3   4 -12 245.400 377.097   4
  -3  -4  11 6357.97 990.515   8
   3   4 -11 7144.51 1249.47   4
  -3  -4  10 176.982 125.543   8
   3   4 -10 796.317 455.862   4
  -3  -4   9 20095.7 1710.42   8
   3   4  -9 17117.7 1811.76   4
  -3  -4   8 27372.6 1962.83   8
   3   4  -8 22409.3 2015.31   4
  -3  -4   7 9724.42 1199.59   8
  -3  -4   6 5531.05 898.489   8
   3   4  -6 5402.05 596.074   5
  -3  -4   5 3400.14 705.728   8
   3   4  -5 2979.04 458.251   5
  -3  -4   4 25413.0 1838.52   8
   3   4  -4 22200.0 1338.89   5
  -3  -4   3 2871.29 634.836   8
  -3  -4   2 15214.4 1253.44   5
  -3  -4   2 15879.6 1461.94   8
  -3  -4   1 30410.4 1972.48   8
  -3  -4   1 28390.5 1814.62   5
  -3  -4   0 2168.16 285.628   7
  -3  -4   0 2538.59 564.206   5
  -3  -4   0 1812.51 482.227   8
  -3  -4  -1 14036.6 1358.62   8
  -3  -4  -1 14020.7 896.776   7
  -3  -4  -2 2184.80 550.467   8
  -3  -4  -2 1188.58 284.088   7
  -3  -4  -3 7198.54 1018.98   8
  -3  -4  -3 7672.58 866.646   7
  -3  -4  -4-180.898 189.448   7
  -3  -4  -4 22.8798 127.961   8
  -3  -4  -5 384.708 237.531   8
  -3  -4  -6 1512.57 491.267   2
   3   4   6 938.326 388.826   6
  -3  -4  -6 1448.03 423.294   8
  -3  -4  -7 3316.87 722.299   2
   3   4   7 3983.99 782.568   6
  -3  -4  -7 3045.58 662.326   8
  -3  -4  -8 6488.02 1033.43   2
   3   4   8 6988.72 1059.26   6
  -3  -4  -8 7045.07 974.071   8
  -3  -4  -9 1586.79 534.398   2
   3   4   9 741.727 334.954   6
  -3  -4  -9 1270.44 412.962   8
  -3  -4  -9 584.916 412.805   7
   3   4  10 3125.56 744.963   6
  -3  -4 -10 3245.22 742.897   2
  -3  -4 -10 3343.02 682.335   8
  -3  -4 -10 3128.09 872.011   7
  -3  -4 -11 2995.48 888.936   7
  -3  -4 -11 2025.72 602.312   2
   3   4  11 2149.02 683.000   6
  -3  -4 -11 1695.35 501.178   8
   3   4  12 2210.00 685.249   6
  -3  -4 -12 1398.32 531.033   2
  -3  -4 -12 2228.32 840.514   7
   3   4  13 6798.03 1230.33   6
  -3  -4 -13 8495.00 1712.78   5
  -3  -4 -13 7717.72 1587.15   7
   3   4  14 588.540 438.957   6
  -3  -4 -14-355.282 361.015   5
  -3  -4 -14 421.117 242.853   7
   3   4  15 1950.19 742.022   6
  -3  -4 -15 2504.16 988.437   5
  -3  -4 -15 1055.91 650.384   7
  -3  -4 -16 613.871 654.840   5
   3   4  16 216.688 273.378   6
  -3  -4 -16 1407.09 776.805   7
  -3  -4 -17 923.421 696.172   5
  -3  -4 -17-193.168 338.661   7
  -3  -4 -18-1058.92 715.167   5
  -3  -4 -18 767.711 714.956   7
  -3  -4 -19 460.407 492.946   5
   3   5 -22 945.156 736.001   7
   3   5 -21 1214.30 796.277   7
   3   5 -20 557.656 407.381   4
   3   5 -20-652.473 530.740   7
   3   5 -19 2420.95 978.636   7
   3   5 -19 3324.56 1076.11   4
   3   5 -18 849.178 486.755   4
   3   5 -18 179.240 368.634   7
  -3  -5  18-296.140 265.493   8
  -3  -5  17 2452.74 727.947   8
   3   5 -17 1863.75 768.364   7
   3   5 -17 3826.12 1090.15   4
  -3  -5  16 6744.84 1168.22   8
   3   5 -16 7651.80 1525.83   7
   3   5 -16 7874.48 1552.90   4
   3   5 -15 4511.79 1133.99   4
  -3  -5  15 4114.67 893.810   8
   3   5 -15 3228.74 925.544   7
  -3  -5  14 1393.62 510.340   8
   3   5 -14 1125.43 532.964   7
   3   5 -14 2211.13 811.073   4
  -3  -5  13 1535.31 526.625   8
   3   5 -13 2228.79 771.376   4
   3   5 -13 2130.07 695.252   7
  -3  -5  12-14.3386 144.844   8
   3   5 -12 382.405 346.018   4
  -3  -5  11 2310.73 631.375   8
   3   5 -11 2055.41 700.717   4
   3   5 -10 4797.43 432.102   5
  -3  -5  10 7950.71 1146.51   8
   3   5 -10 6923.63 1185.38   4
  -3  -5   9 3046.87 724.866   8
   3   5  -9 3470.29 376.537   5
   3   5  -8 11.3077 60.5015   5
  -3  -5   8 416.231 274.958   8
  -3  -5   7 3341.75 758.309   8
   3   5  -7 3681.39 567.587   7
  -3  -5   6 2265.66 597.783   8
   3   5  -6 2094.67 377.415   7
  -3  -5   5 21054.6 1818.26   8
   3   5  -5 20237.3 943.470   7
  -3  -5   4 16316.1 1223.29   5
  -3  -5   4 18983.8 1655.91   8
  -3  -5   3 856.778 295.291   5
  -3  -5   3 428.424 176.691   8
  -3  -5   2 28123.8 1967.42   8
  -3  -5   2 27104.9 1757.24   5
  -3  -5   1 860.439 344.882   5
  -3  -5   1 1118.89 394.961   8
  -3  -5   0 35.0474 180.674   5
  -3  -5   0 36.0173 33.1632   7
  -3  -5   0 44.9571 226.329   8
  -3  -5  -1 938.522 351.409   8
  -3  -5  -1 313.343 139.706   7
  -3  -5  -2 7198.20 1002.53   8
  -3  -5  -3 23824.3 1795.53   8
  -3  -5  -4 218.793 223.610   8
   3   5   5 1754.67 519.196   6
  -3  -5  -5 1794.58 492.687   8
   3   5   6 50.6963 225.222   6
  -3  -5  -6 158.388 124.408   8
   3   5   7 17454.2 1720.65   6
  -3  -5  -7 17364.5 1518.23   8
  -3  -5  -8 1073.88 374.699   8
   3   5   8 1182.23 445.538   6
   3   5   9 3720.14 843.589   6
  -3  -5  -9 3370.30 658.212   8
   3   5  10-139.239 251.047   6
  -3  -5 -10-205.813 161.873   8
   3   5  11-25.0769 276.746   6
  -3  -5 -11-87.3207 205.576   7
   3   5  12 1178.06 581.117   6
  -3  -5 -12 497.941 390.277   7
   3   5  13 4753.60 1126.83   6
  -3  -5 -13 3435.61 1073.16   7
  -3  -5 -14 844.660 780.678   5
   3   5  14 431.142 448.114   6
  -3  -5 -14-2.05996 169.281   7
   3   5  15 1989.17 736.244   6
  -3  -5 -15 2166.88 963.232   5
  -3  -5 -15 3192.28 1124.33   7
   3   5  16 684.371 302.602   6
  -3  -5 -16 1433.11 747.754   5
  -3  -5 -16 883.186 677.058   7
  -3  -5 -17 100.296 252.893   5
  -3  -5 -17-702.900 589.782   7
  -3  -5 -18 1092.47 857.970   5
   3   6 -22 40.5502 311.238   7
   3   6 -21 2091.68 970.298   7
   3   6 -20 425.627 461.607   7
   3   6 -19 1493.90 696.988   4
   3   6 -19 535.994 457.453   7
   3   6 -18-117.082 436.524   4
  -3  -6  18 131.222 259.636   8
   3   6 -18 640.935 484.753   7
  -3  -6  17 2357.59 751.952   8
   3   6 -17 1548.95 589.134   4
   3   6 -17 3096.62 974.642   7
  -3  -6  16 3018.51 797.614   8
   3   6 -16 4888.22 1197.88   4
   3   6 -16 2636.25 822.145   7
   3   6 -15-309.365 326.228   7
  -3  -6  15 114.696 145.043   8
  -3  -6  14-156.829 238.497   8
   3   6 -14 246.590 368.573   4
   3   6 -14 192.861 132.293   7
  -3  -6  13 3567.43 834.441   8
   3   6 -13 6089.72 1232.32   4
   3   6 -13 5554.89 1085.69   7
  -3  -6  12 12345.1 1524.36   8
   3   6 -12 12567.3 1539.43   7
  -3  -6  11 1207.65 499.812   8
   3   6 -11 834.372 334.321   7
  -3  -6  10 1553.69 508.807   8
   3   6 -10 1183.46 391.435   7
  -3  -6   9 694.048 420.133   8
   3   6  -9 358.780 200.250   7
  -3  -6   8 3004.31 713.739   8
   3   6  -8 3086.27 542.012   7
   3   6  -7 1689.05 370.118   7
  -3  -6   7 2095.94 580.540   8
  -3  -6   6 7099.12 1116.58   8
   3   6  -6 5829.02 576.252   7
  -3  -6   5 2228.75 435.690   5
  -3  -6   5 3106.59 686.901   8
  -3  -6   4 2264.91 474.152   5
  -3  -6   4 2360.69 617.771   8
  -3  -6   3 25834.2 2030.79   8
  -3  -6   3 25814.6 1712.07   5
  -3  -6   2 41072.9 2458.51   8
  -3  -6   2 36837.4 2153.63   5
  -3  -6   1 5022.49 869.498   8
  -3  -6   1 5954.08 920.075   5
  -3  -6   1 5167.41 376.418   7
  -3  -6   0 873.645 372.949   8
  -3  -6  -1 3007.37 674.882   8
  -3  -6  -2 10142.7 1202.22   8
  -3  -6  -3 94.2117 114.464   8
   3   6   4 3741.68 824.641   6
  -3  -6  -4 4330.55 780.530   8
   3   6   5 1744.81 520.860   6
  -3  -6  -5 765.489 324.793   8
   3   6   6 4795.08 930.419   6
  -3  -6  -6 4603.67 784.492   8
   3   6   7 152.572 241.277   6
  -3  -6  -7 9.38344 82.4646   8
   3   6   8 994.824 518.364   6
  -3  -6  -8 1552.61 421.180   8
   3   6   9 578.220 473.751   6
  -3  -6  -9 628.306 253.708   8
   3   6  10 626.958 399.935   6
   3   6  11 556.530 443.615   6
   3   6  12 951.605 546.981   6
   3   6  13 2425.10 757.668   6
  -3  -6 -13 2575.69 977.576   7
   3   6  14 690.085 505.143   6
  -3  -6 -14 602.005 465.527   7
   3   6  15 565.955 454.451   6
  -3  -6 -15-465.772 471.904   5
  -3  -6 -15-705.633 561.511   7
  -3  -6 -16-848.229 637.665   5
   3   6  16-360.579 373.666   6
  -3  -6 -16 360.429 257.981   7
  -3  -6 -17-401.847 468.407   5
  -3  -6 -17-79.2234 234.327   7
   3   7 -22 505.916 662.172   7
   3   7 -21 1.19015 194.948   7
   3   7 -20 725.247 525.326   7
   3   7 -19 218.429 306.189   7
  -3  -7  19-202.712 203.736   8
   3   7 -18 252.762 347.640   7
  -3  -7  18 502.849 369.491   8
   3   7 -18 564.120 435.172   4
   3   7 -17 2203.88 873.043   7
   3   7 -17 2707.79 983.963   4
  -3  -7  17 2316.47 785.940   8
   3   7 -16 211.021 290.161   7
  -3  -7  16 107.677 176.864   8
   3   7 -15 697.769 362.192   7
  -3  -7  15 23.2733 163.175   8
   3   7 -14 519.854 336.216   7
  -3  -7  14-63.1256 286.245   8
  -3  -7  13 13470.7 1699.51   8
   3   7 -13 13066.9 1643.14   7
  -3  -7  12 2566.26 714.109   8
   3   7 -12 453.477 299.951   7
  -3  -7  11 5070.93 1011.80   8
   3   7 -11 5562.57 953.136   7
   3   7 -10-121.155 159.532   7
  -3  -7  10-55.1578 180.235   8
   3   7  -9 325.107 208.835   7
  -3  -7   9 1.54372 182.466   8
   3   7  -8 6.13928 100.301   7
  -3  -7   8 58.2464 178.248   8
   3   7  -7 875.802 247.561   7
  -3  -7   7 1427.15 460.522   8
  -3  -7   6 391.419 211.023   5
  -3  -7   6 435.837 313.689   8
  -3  -7   5 194.077 296.747   8
  -3  -7   5 116.268 121.914   5
  -3  -7   4 9336.52 1292.84   8
  -3  -7   4 8674.36 1007.35   5
  -3  -7   3 15239.0 1611.67   8
  -3  -7   3 17927.1 1529.76   5
  -3  -7   2 1168.86 461.491   8
  -3  -7   1 5343.91 933.079   8
  -3  -7   0 6429.13 988.611   8
  -3  -7  -1 462.849 307.949   8
  -3  -7  -2 384.690 161.156   8
   3   7   3 705.956 366.965   6
  -3  -7  -3 1482.30 487.537   8
   3   7   4 828.345 429.680   6
  -3  -7  -4 401.326 246.197   8
   3   7   5 417.726 293.445   6
  -3  -7  -5 833.692 345.838   8
   3   7   6 5111.50 1014.91   6
  -3  -7  -6 4016.71 729.402   8
  -3  -7  -7 900.323 355.701   8
   3   7   7 470.050 325.568   6
   3   7   8 843.441 518.650   6
  -3  -7  -8 473.352 243.541   8
   3   7   9 3.21969 213.058   6
   3   7  10-186.147 318.660   6
   3   7  11 1182.47 627.300   6
   3   7  12 2419.21 842.681   6
   3   7  13 715.315 527.406   6
  -3  -7 -13 387.441 398.555   7
   3   7  14 40.8591 169.466   6
  -3  -7 -14 444.105 431.496   7
   3   7  15 438.599 541.159   6
  -3  -7 -15 193.886 420.468   7
   3   7  16-508.571 451.144   6
  -3  -7 -16 370.346 478.584   5
  -3  -7 -16-876.620 647.391   7
   3   7  17 281.363 375.621   6
   3   8 -22 12.5542 140.483   7
   3   8 -21 486.907 326.609   7
   3   8 -20 380.209 398.472   7
   3   8 -19 37.7268 161.563   7
  -3  -8  19-202.326 259.605   8
   3   8 -18-846.852 533.972   7
  -3  -8  18-210.666 273.000   8
   3   8 -17 387.587 391.121   7
  -3  -8  17 112.513 227.203   8
   3   8 -16-232.103 303.737   7
  -3  -8  16 299.743 340.101   8
   3   8 -15-40.4854 234.194   7
  -3  -8  15 764.141 461.109   8
   3   8 -14 3414.68 863.933   7
  -3  -8  14 5708.68 1169.97   8
   3   8 -13 914.165 397.887   7
  -3  -8  13 769.800 388.762   8
   3   8 -12 2400.60 654.035   7
  -3  -8  12 3306.11 840.188   8
   3   8 -11 1280.94 419.514   7
  -3  -8  11 839.025 376.924   8
   3   8 -10 293.558 231.076   7
  -3  -8  10 991.498 499.020   8
  -3  -8   9 6356.43 1138.88   8
   3   8  -9 7074.96 876.344   7
  -3  -8   8 2137.56 670.355   8
  -3  -8   7-324.967 202.566   8
  -3  -8   6-17.9911 105.450   5
  -3  -8   6 13.7300 192.574   8
  -3  -8   5 521.658 250.881   5
  -3  -8   5 261.599 283.374   8
  -3  -8   4 2068.26 517.649   5
  -3  -8   4 1320.30 486.034   8
  -3  -8   3 298.636 350.482   8
  -3  -8   2 231.971 201.707   8
  -3  -8   1 349.566 232.443   8
  -3  -8   0 2063.85 587.386   8
  -3  -8  -1 156.739 136.215   8
   3   8   2 1298.18 509.765   6
  -3  -8  -2 979.933 431.060   8
  -3  -8  -3 626.021 411.139   8
   3   8   3 579.947 295.862   6
   3   8   4 241.788 320.066   6
  -3  -8  -4 531.012 256.472   8
   3   8   5 2808.38 807.425   6
  -3  -8  -5 3377.02 703.673   8
   3   8   6 2659.65 781.732   6
  -3  -8  -6 1670.45 484.921   8
   3   8   7 155.756 259.864   6
  -3  -8  -7 200.079 186.038   8
  -3  -8  -8 248.172 182.212   8
   3   8   8-100.503 310.865   6
   3   8   9 717.765 466.993   6
   3   8  10-268.467 297.532   6
   3   8  11 3373.13 1001.19   6
   3   8  12 298.668 263.319   6
   3   8  13 1303.77 686.138   6
   3   8  14-232.260 307.035   6
  -3  -8 -14 238.170 333.899   7
   3   8  15-492.817 448.277   6
  -3  -8 -15 573.290 528.784   7
   3   8  16 201.223 311.783   6
  -3  -8 -16 89.4120 255.900   7
   3   9 -22-1056.66 691.619   7
   3   9 -21-423.971 433.026   7
   3   9 -20 170.787 351.843   7
  -3  -9  20 502.278 497.711   8
   3   9 -19-452.610 407.674   7
  -3  -9  19 44.5573 230.875   8
   3   9 -18 456.006 391.173   7
  -3  -9  18-11.3155 353.794   8
   3   9 -18-217.615 239.190   1
   3   9 -17-275.830 303.262   7
  -3  -9  17 45.9135 168.885   8
   3   9 -16 264.798 345.851   7
  -3  -9  16 160.482 363.390   8
   3   9 -15 271.233 265.993   7
  -3  -9  15 748.062 417.271   8
   3   9 -14 2684.90 796.713   7
  -3  -9  14 3458.96 947.661   8
   3   9 -13 8549.45 1291.54   7
  -3  -9  13 8036.73 1410.55   8
   3   9 -12 163.045 221.945   7
  -3  -9  12 348.856 148.140   8
   3   9 -11 423.434 275.749   7
  -3  -9  11 423.374 293.543   8
   3   9 -10 3808.76 698.539   7
  -3  -9  10 5421.95 1098.07   8
  -3  -9   9 4426.57 983.132   8
  -3  -9   8 274.816 168.226   8
  -3  -9   7 63.9290 121.107   5
  -3  -9   7 474.988 451.888   8
  -3  -9   6 4057.01 930.661   8
  -3  -9   6 3205.93 608.399   5
  -3  -9   5 342.893 228.537   5
  -3  -9   5-44.5064 247.227   8
  -3  -9   4 2394.27 617.193   8
  -3  -9   3 11815.5 1483.70   8
  -3  -9   3 11377.3 606.388   7
  -3  -9   2 236.757 234.165   8
  -3  -9   1 10060.6 1330.78   8
  -3  -9   0 8337.26 1236.17   8
  -3  -9  -1 15440.6 1613.68   8
   3   9   1 14456.9 1652.42   6
   3   9   2 1778.20 657.723   6
  -3  -9  -2 1124.20 421.668   8
   3   9   3 1340.38 590.877   6
  -3  -9  -3 1422.24 515.360   8
   3   9   4 1543.82 589.966   6
  -3  -9  -4 1349.01 462.848   8
   3   9   5 5807.94 1186.97   6
  -3  -9  -5 2448.29 605.504   8
   3   9   6 29.0795 312.584   6
  -3  -9  -6 529.818 208.972   8
   3   9   7-145.690 195.606   6
  -3  -9  -7-23.6888 66.1408   8
   3   9   8 682.004 372.005   6
   3   9   9 1358.18 607.723   6
   3   9  10 852.517 732.252   6
   3   9  11 160.193 303.220   6
   3   9  12 263.177 305.029   6
   3   9  13 293.766 461.175   6
   3   9  14 97.2394 209.665   6
  -3  -9 -14-517.769 489.159   7
   3   9  15 2.27733 145.789   6
  -3  -9 -15-274.148 380.133   7
  -3 -10  20 534.683 477.337   8
  -3 -10  19 1507.27 706.231   8
   3  10 -19 68.9501 296.360   7
   3  10 -18 303.029 260.119   7
  -3 -10  18 385.264 346.242   8
   3  10 -17 242.546 303.601   7
  -3 -10  17 101.533 250.823   8
   3  10 -16 299.000 269.427   7
  -3 -10  16-78.6631 329.398   8
   3  10 -15 793.217 458.479   7
  -3 -10  15 158.763 229.099   8
   3  10 -14-24.3421 89.4799   7
  -3 -10  14 944.430 637.021   8
  -3 -10  13 11109.6 1704.32   8
   3  10 -13 9224.71 1310.71   7
   3  10 -12 535.195 309.697   7
  -3 -10  12-118.812 165.431   8
  -3 -10  11 510.066 522.669   8
  -3 -10  10 9890.40 1579.31   8
  -3 -10   9 368.835 253.706   8
  -3 -10   8-66.3581 61.4448   5
  -3 -10   8-145.361 265.988   8
  -3 -10   7 2151.50 713.115   8
  -3 -10   7 2459.97 532.675   5
  -3 -10   6 512.554 269.717   5
  -3 -10   6 684.454 413.730   8
  -3 -10   5 4.99260 223.701   5
  -3 -10   5-50.3143 301.244   8
  -3 -10   4 15381.5 1808.23   8
  -3 -10   4 13727.0 718.578   7
  -3 -10   3 52.0116 56.6851   7
  -3 -10   3 339.607 255.462   8
  -3 -10   2 3323.95 838.804   8
  -3 -10   1 4585.92 927.556   8
   3  10  -1 3334.19 817.488   6
   3  10   0 3483.80 845.709   6
  -3 -10   0 5600.26 1005.46   8
   3  10   1 507.121 331.422   6
  -3 -10  -1 330.210 219.886   8
   3  10   2 1933.33 618.705   6
  -3 -10  -2 1871.72 592.131   8
   3  10   3-182.960 149.902   6
  -3 -10  -3-86.7159 163.056   8
   3  10   4 3348.13 899.314   6
  -3 -10  -4 2373.37 627.499   8
   3  10   5 810.106 441.305   6
  -3 -10  -5 1323.83 469.858   8
  -3 -10  -6 2949.17 656.634   8
   3  10   6 2752.54 874.833   6
   3  10   7 1443.74 718.435   6
   3  10   8 3003.49 970.215   6
   3  10   9 987.583 551.803   6
   3  10  10 495.485 411.638   6
   3  10  11 143.808 262.799   6
   3  10  12 836.344 732.354   6
   3  10  13-305.286 370.495   6
   3  10  14-175.901 309.807   6
  -3 -10 -14-1155.49 726.567   7
  -3 -11  20-209.933 298.482   8
   3  11 -19 687.426 500.222   1
  -3 -11  19 144.264 178.661   8
  -3 -11  18 511.150 423.935   8
  -3 -11  17 1037.72 568.262   8
  -3 -11  16 468.107 347.593   8
   3  11 -15 693.454 380.711   7
  -3 -11  15 175.585 242.016   8
  -3 -11  14 6512.67 1407.79   8
  -3 -11  13 357.197 390.180   8
  -3 -11  12 975.710 606.846   8
  -3 -11  11 274.889 173.977   8
  -3 -11  10 499.215 351.176   8
  -3 -11   9 180.977 320.775   8
  -3 -11   8-468.522 306.534   8
  -3 -11   8 216.812 156.669   5
  -3 -11   7 1196.50 609.732   8
  -3 -11   7 724.927 281.894   5
  -3 -11   6 3551.41 930.948   8
  -3 -11   5 1847.63 637.819   8
  -3 -11   4 21936.6 2196.80   8
   3  11  -3 1674.49 623.014   6
  -3 -11   3 648.950 352.162   8
   3  11  -2 7595.03 1250.37   6
  -3 -11   2 8477.26 1315.15   8
   3  11  -1 3138.85 820.982   6
  -3 -11   1 2554.52 722.030   8
   3  11   0 3042.80 834.355   6
  -3 -11   0 2601.59 723.180   8
   3  11   1 8849.95 1454.86   6
  -3 -11  -1 8065.18 1234.28   8
   3  11   2 3233.07 892.067   6
  -3 -11  -2 4389.19 902.047   8
  -3 -11  -3 109.363 166.140   8
   3  11   3 365.008 365.200   6
   3  11   4 204.652 389.721   6
  -3 -11  -4 318.029 292.378   8
  -3 -11  -5 6033.73 992.887   8
   3  11   5 6672.23 1372.17   6
   3  11   6 2075.66 781.880   6
   3  11   7 66.4515 190.392   6
   3  11   8 495.960 307.420   6
   3  11   9 220.541 317.113   6
   3  11  10 3293.55 1086.54   6
   3  11  11 2418.35 1000.24   6
   3  11  12 73.0681 209.714   6
  -3 -12  20 194.674 176.896   8
   3  12 -19 608.646 438.660   1
  -3 -12  19-203.177 337.219   8
  -3 -12  18 490.042 422.293   8
  -3 -12  17 2424.54 947.056   8
  -3 -12  16 1888.54 784.054   8
  -3 -12  15 3266.69 1012.34   8
  -3 -12  14-42.2187 297.521   8
  -3 -12  13 1342.23 643.755   8
  -3 -12  12 495.501 472.401   8
  -3 -12  11 1688.43 637.936   8
  -3 -12  10 768.853 584.385   8
  -3 -12   9 1117.55 462.923   8
  -3 -12   8 2977.37 634.356   5
  -3 -12   8 2433.59 798.241   8
  -3 -12   7 6346.13 1283.02   8
  -3 -12   6 1040.50 516.716   8
   3  12  -5 12437.8 1578.83   6
  -3 -12   5 14803.0 1904.03   8
   3  12  -4 179.367 262.625   6
  -3 -12   4 230.811 220.191   8
   3  12  -3 2235.45 763.479   6
  -3 -12   3 2982.44 816.761   8
   3  12  -2 2277.87 728.429   6
  -3 -12   2 1968.48 707.917   8
   3  12  -1 1996.76 667.489   6
  -3 -12   1 3074.41 835.338   8
  -3 -12   0-25.7249 108.173   8
   3  12   0-215.788 171.411   6
   3  12   1 2720.68 818.790   6
  -3 -12  -1 2597.19 734.419   8
  -3 -12  -2-19.7712 190.628   8
   3  12   2 39.7898 304.887   6
  -3 -12  -3 696.036 385.762   8
   3  12   3-110.493 328.316   6
   3  12   4 1783.37 703.752   6
  -3 -12  -4 1218.54 519.390   8
   3  12   5 1645.01 746.903   6
   3  12   6 207.527 228.784   6
   3  12   7 212.626 243.832   6
   3  12   8-221.104 484.134   6
   3  12   9 2777.31 968.670   6
   3  12  10 3864.65 1265.41   6
   3  12  11 879.817 742.622   6
  -3 -13  20-99.3391 248.506   8
   3  13 -19 1027.28 662.072   1
  -3 -13  19-124.017 253.383   8
  -3 -13  18-901.821 594.503   8
  -3 -13  17-767.991 542.372   8
  -3 -13  16 2590.64 929.243   8
  -3 -13  15-36.7519 312.339   8
  -3 -13  14 2911.49 1006.55   8
  -3 -13  13-183.760 343.129   8
  -3 -13  12 1097.59 550.834   8
  -3 -13  11 105.142 408.847   8
  -3 -13  10 5343.32 1270.23   8
  -3 -13   9 5306.70 1252.52   8
   3  13  -8 3431.64 815.111   6
  -3 -13   8 4500.69 1088.49   8
  -3 -13   7-307.516 236.779   8
   3  13  -7 91.1534 159.393   6
   3  13  -6 864.844 495.692   6
  -3 -13   6 898.940 477.050   8
   3  13  -5 9372.52 1457.09   6
  -3 -13   5 8922.88 1548.33   8
  -3 -13   4 4080.30 1024.27   8
   3  13  -4 2878.05 776.262   6
  -3 -13   3-176.056 334.749   8
   3  13  -3-72.6818 217.012   6
  -3 -13   2 424.419 354.541   8
   3  13  -2-202.943 175.525   6
  -3 -13   1-230.274 132.705   8
   3  13  -1 266.639 152.187   6
   3  13   0 1481.56 610.813   6
  -3 -13   0 389.103 257.678   8
   3  13   1 1113.46 611.639   6
  -3 -13  -1 230.301 256.383   8
  -3 -13  -2 208.008 268.820   8
   3  13   2 240.838 351.256   6
  -3 -13  -3 335.045 285.911   8
   3  13   3 594.677 228.088   6
   3  13   4 2406.80 808.316   6
   3  13   5 941.191 604.179   6
   3  13   6 265.131 301.362   6
   3  13   7 2047.98 875.383   6
   3  13   8 3617.31 1186.80   6
   3  13   9 1701.20 939.651   6
   3  14 -20 621.502 622.081   1
   3  14 -19-156.317 266.894   1
  -3 -14  19 109.928 247.429   8
  -3 -14  18 623.117 578.699   8
  -3 -14  17 286.622 412.806   8
  -3 -14  16 198.865 358.987   8
  -3 -14  15 1669.49 752.984   8
  -3 -14  14 117.000 329.979   8
  -3 -14  13 192.468 356.229   8
  -3 -14  12 2349.39 897.135   8
   3  14 -11-434.760 294.596   6
  -3 -14  11 296.363 289.163   8
   3  14 -10 500.444 320.404   6
  -3 -14  10-385.928 353.592   8
  -3 -14   9 949.165 467.628   8
   3  14  -9-132.621 213.060   6
   3  14  -8-1.16725 105.727   6
  -3 -14   8-32.3003 171.798   8
   3  14  -7 607.467 360.014   6
  -3 -14   7-43.5750 384.593   8
   3  14  -6 610.916 385.028   6
  -3 -14   6 1569.65 624.060   8
   3  14  -5 4775.23 1089.02   6
  -3 -14   5 3525.80 989.193   8
   3  14  -4 3270.75 953.214   6
  -3 -14   4 2681.53 886.637   8
   3  14  -3 1540.25 644.446   6
  -3 -14   3 954.659 554.895   8
   3  14  -2-149.312 322.735   6
  -3 -14   2-242.407 331.324   8
  -3 -14   1 195.066 199.703   8
   3  14  -1 579.307 429.764   6
  -3 -14   0 309.879 343.971   8
   3  14   0 506.435 467.206   6
  -3 -14  -1 554.338 346.590   8
   3  14   1 249.267 185.667   6
  -3 -14  -2-49.3166 137.148   8
   3  14   2 489.569 438.427   6
   3  14   3-514.715 435.590   6
   3  14   4 86.4781 321.266   6
   3  14   5 175.261 284.641   6
   3  14   6 161.076 330.472   6
   3  14   7 571.011 545.835   6
   3  15 -20 944.794 630.672   1
   3  15 -19-148.232 275.196   1
   3  15 -18 138.294 389.113   1
  -3 -15  17-628.426 515.803   8
  -3 -15  16-281.805 355.233   8
  -3 -15  15 852.045 593.636   8
  -3 -15  14-331.467 377.976   8
  -3 -15  13-206.666 396.752   8
  -3 -15  12 246.464 355.495   8
   3  15 -11 2597.26 726.533   6
  -3 -15  11 2522.99 952.893   8
   3  15 -10 211.725 281.522   6
  -3 -15  10 322.889 297.292   8
  -3 -15   9 546.633 564.435   8
   3  15  -9 1009.02 517.523   6
   3  15  -8-278.296 118.627   6
  -3 -15   8-276.022 452.810   8
   3  15  -7 1290.21 553.171   6
  -3 -15   7 1402.66 632.121   8
   3  15  -6-58.7464 311.404   6
  -3 -15   6 642.624 551.677   8
   3  15  -5-60.9959 249.945   6
  -3 -15   5-252.767 360.784   8
   3  15  -4 441.061 388.108   6
  -3 -15   4 602.921 476.858   8
   3  15  -3 1195.89 540.137   6
  -3 -15   3 1658.83 681.208   8
   3  15  -2 282.283 182.347   6
  -3 -15   2 219.381 311.918   8
   3  15  -1 129.820 372.222   6
  -3 -15   1 328.704 419.665   8
   3  15   0 1325.90 733.369   6
  -3 -15   0 1155.63 514.859   8
  -3 -15  -1 1227.52 550.133   8
   3  15   1 1248.97 558.127   6
   3  15   2 575.639 562.761   6
   3  15   3 668.635 659.053   6
   3  15   4 2408.61 954.124   6
   3  15   5 27.1747 392.019   6
   3  16 -18 12.8595 245.921   1
  -3 -16  16 147.216 294.514   8
  -3 -16  15 562.891 543.099   8
  -3 -16  14-59.5265 222.463   8
  -3 -16  13 474.469 480.028   8
  -3 -16  12 825.813 630.964   8
  -3 -16  11-201.655 327.601   8
   3  16 -10 4057.84 991.840   6
  -3 -16  10 3198.54 1037.49   8
   3  16  -9 43.1466 290.784   6
  -3 -16   9 174.534 300.429   8
   3  16  -8 1998.36 714.401   6
  -3 -16   8 1778.93 726.108   8
  -3 -16   7 1865.92 787.779   8
   3  16  -7 777.872 429.544   6
   3  16  -6 1352.16 633.152   6
  -3 -16   6 835.782 497.918   8
   3  16  -5 732.059 401.071   6
  -3 -16   5 254.263 312.099   8
   3  16  -4 552.324 319.893   6
  -3 -16   4 77.7605 202.567   8
   3  16  -3 1432.56 599.671   6
  -3 -16   3 2501.23 859.312   8
   3  16  -2-75.6818 368.527   6
  -3 -16   2-187.115 267.053   8
   3  16  -1 1332.28 669.879   6
  -3 -16   1 2127.14 796.923   8
  -3 -16   0 82.3256 242.291   8
   3  16   0-163.341 170.466   6
   3  16   1 1478.64 753.464   6
   3  16   2 550.983 492.294   6
   3  16   3 1816.59 883.418   6
  -3 -17  14 801.382 556.985   8
  -3 -17  13 199.445 163.879   8
  -3 -17  12 166.331 228.179   8
  -3 -17  11 1646.01 815.753   8
  -3 -17  10 114.967 199.864   8
   3  17  -9 590.670 439.090   6
  -3 -17   9 176.257 355.780   8
   3  17  -8-11.4807 222.729   6
  -3 -17   8-568.807 464.636   8
   3  17  -7 96.1119 204.094   6
  -3 -17   7-419.667 412.890   8
  -3 -17   6 495.545 347.708   8
   3  17  -6 687.358 426.728   6
   3  17  -5 68.6181 306.856   6
  -3 -17   5 207.486 286.704   8
  -3 -17   4-0.91094 110.760   8
   3  17  -4 1154.59 614.928   6
  -3 -17   3 783.341 566.179   8
   3  17  -3 1122.13 617.352   6
  -3 -17   2 4570.43 1207.90   8
   3  17  -2 2660.89 1003.76   6
   3  17  -1 511.402 478.683   6
  -3 -17   1 624.693 423.757   8
   3  17   0 145.714 246.115   6
   3  17   1 853.070 730.409   6
  -3 -18  11 593.316 506.984   8
  -3 -18  10-649.915 526.070   8
   3  18  -9-675.579 455.806   6
  -3 -18   9 232.815 382.141   8
   3  18  -8 1098.81 539.135   6
  -3 -18   8 1448.06 709.651   8
   3  18  -7 158.805 200.257   6
  -3 -18   7 609.623 405.101   8
  -3 -18   6 1184.94 691.507   8
   3  18  -6 3029.94 1014.61   6
   3  18  -5 208.506 290.425   6
  -3 -18   5 426.487 437.067   8
   3  18  -4 887.430 654.106   6
  -3 -18   4 2245.20 934.872   8
  -3 -18   3 591.360 639.606   8
   3  18  -3 390.303 422.363   6
   3  18  -2 907.384 676.562   6
  -3 -18   2-109.462 224.878   8
   3  18  -1-333.089 384.046   6
   3  19  -8 110.287 291.249   6
  -3 -19   8 321.228 268.745   8
   3  19  -7 524.919 488.659   6
  -3 -19   7 47.6300 327.647   8
   3  19  -6 999.076 650.204   6
  -3 -19   6 1596.01 863.807   8
  -3 -19   5 68.4783 146.227   8
   3  19  -5 718.215 618.123   6
  -3 -19   4-591.054 483.824   8
   3  19  -4 228.521 378.515   6
  -3 -19   3-597.101 478.613   8
  -4  20  -6 1397.38 673.107   2
  -4  20  -7 422.990 661.811   2
  -4  19  -1 708.515 598.178   6
  -4  19  -2 961.078 772.111   6
  -4  19  -3 1540.59 881.263   6
  -4  19  -4 350.673 374.498   6
  -4  19  -4 239.860 423.715   1
  -4  19  -5 477.520 473.449   2
  -4  19  -5-134.982 280.399   1
  -4  19  -6-655.365 530.563   2
  -4  19  -6-192.088 316.686   1
  -4  19  -7-489.422 472.705   2
  -4  19  -8 606.313 494.539   2
  -4  19  -9 1.24032 337.446   2
  -4  19 -10 746.670 628.397   2
  -4  18   1-590.555 557.755   6
  -4  18   0 1534.94 879.841   6
  -4  18  -1 88.9233 245.061   6
  -4  18  -2 238.277 295.802   6
  -4  18  -3 271.270 223.123   6
  -4  18  -3 42.2480 250.071   1
  -4  18  -4 1347.89 718.626   2
  -4  18  -4 956.746 681.140   6
  -4  18  -4 551.915 436.737   1
  -4  18  -5 544.879 462.703   2
  -4  18  -5 726.498 491.403   6
  -4  18  -5 1140.77 791.714   1
  -4  18  -6-414.786 416.224   2
  -4  18  -6 401.750 411.831   1
  -4  18  -7 789.850 402.558   2
  -4  18  -7 116.620 266.322   1
  -4  18  -8 1116.23 783.460   2
  -4  18  -8 1247.09 808.018   1
  -4  18  -9 449.565 633.532   1
  -4  18  -9-445.213 451.620   2
  -4  18 -10-369.324 423.963   2
  -4  18 -10 1073.23 747.421   1
  -4  18 -11-491.748 484.658   2
  -4  18 -11 7.80342 456.572   1
  -4  18 -12 442.161 440.606   2
  -4  17   3 418.195 484.741   6
  -4  17   2 723.013 626.531   6
  -4  17   1 684.898 524.501   6
  -4  17   0 230.499 268.850   6
  -4  17  -1-109.386 208.993   6
  -4  17  -2-58.4206 273.799   2
  -4  17  -2 229.689 420.505   6
  -4  17  -2-154.793 303.153   1
  -4  17  -3 2699.08 892.490   2
  -4  17  -3 1856.94 822.670   6
  -4  17  -3 3067.88 1121.70   1
  -4  17  -4 276.332 171.396   2
  -4  17  -4 969.149 752.591   6
  -4  17  -4 510.567 631.451   1
  -4  17  -5 2928.00 1046.35   2
  -4  17  -5 2277.99 909.595   6
  -4  17  -5 3611.53 1165.93   1
  -4  17  -6-361.859 286.029   6
  -4  17  -6 56.8470 194.613   1
  -4  17  -7 827.574 561.882   2
  -4  17  -7 445.401 350.582   1
  -4  17  -8 361.885 265.323   2
  -4  17  -8 725.187 611.940   1
  -4  17  -9-491.270 456.502   2
  -4  17  -9 413.070 432.835   1
  -4  17 -10-633.649 526.510   2
  -4  17 -10 121.916 232.591   1
  -4  17 -11 195.204 321.299   2
  -4  17 -11-158.334 389.304   1
  -4  17 -12-340.237 417.361   2
  -4  17 -13-401.442 449.590   2
  -4  17 -14 732.054 605.969   2
  -4  16   5 344.447 614.670   6
  -4  16   4 3330.52 1324.04   6
  -4  16   3-133.008 205.006   6
  -4  16   2 1839.89 897.502   6
  -4  16   1-228.039 431.284   6
  -4  16   0 684.395 527.983   6
  -4  16  -1-144.810 362.992   2
  -4  16  -1 384.685 317.816   6
  -4  16  -1 151.832 362.103   1
  -4  16  -2 937.223 542.425   2
  -4  16  -2 1070.12 660.866   6
  -4  16  -2 954.470 629.553   1
  -4  16  -3 514.926 381.033   6
  -4  16  -3 9.18776 383.597   2
  -4  16  -3 1116.20 742.975   1
  -4  16  -4 1329.60 663.653   6
  -4  16  -4 365.005 257.973   2
  -4  16  -4 1367.43 772.955   1
  -4  16  -5 2719.02 900.497   6
  -4  16  -5 2859.47 954.056   2
  -4  16  -5 4048.71 1197.42   1
  -4  16  -6-56.8264 212.372   6
  -4  16  -6-187.382 378.966   2
  -4  16  -7-143.086 259.121   2
  -4  16  -7-152.057 242.449   1
  -4  16  -8 337.685 239.248   2
  -4  16  -8 1283.83 761.205   1
  -4  16  -9 174.191 240.259   1
  -4  16  -9 216.982 388.598   2
  -4  16 -10 447.394 315.707   2
  -4  16 -10 100.534 242.508   1
  -4  16 -11 383.421 513.896   2
  -4  16 -11 643.816 615.403   1
  -4  16 -12 1592.16 900.770   2
  -4  16 -13-416.433 445.933   2
  -4  16 -14 533.656 587.149   2
  -4  16 -15 575.467 441.030   2
  -4  15   7 671.771 659.177   6
  -4  15   6 202.810 474.408   6
  -4  15   5 5242.37 1528.77   6
  -4  15   4 238.781 788.248   6
  -4  15   3 5347.36 1475.43   6
  -4  15   2 763.564 541.697   6
  -4  15   1 4438.13 1279.83   6
  -4  15   0 2473.66 809.112   2
  -4  15   0 4369.10 1216.58   6
  -4  15  -1 160.321 261.194   6
  -4  15  -1 99.0388 141.312   1
  -4  15  -2 1343.25 591.083   2
  -4  15  -2 853.299 644.438   6
  -4  15  -2 2444.44 901.170   1
  -4  15  -3 132.085 319.124   2
  -4  15  -3-53.1275 336.991   6
  -4  15  -3-177.530 322.018   1
  -4  15  -4 2158.13 790.725   6
  -4  15  -4 2653.34 830.586   2
  -4  15  -4 1930.90 845.868   1
  -4  15  -5 532.481 442.926   1
  -4  15  -5 217.786 458.508   6
  -4  15  -5 528.690 417.688   2
  -4  15  -6 454.034 228.421   2
  -4  15  -6 116.727 307.321   1
  -4  15  -6 1036.41 561.752   6
  -4  15  -7 630.296 425.979   6
  -4  15  -7 335.174 339.109   2
  -4  15  -7 75.6719 220.339   1
  -4  15  -8-95.1692 156.290   1
  -4  15  -8-207.379 353.026   2
  -4  15  -9 6203.09 1509.40   2
  -4  15  -9 8436.28 1763.25   1
  -4  15 -10 383.459 399.682   2
  -4  15 -10-119.955 300.551   1
  -4  15 -11 1570.10 739.716   2
  -4  15 -11 2718.62 1048.00   1
  -4  15 -12-111.720 302.079   2
  -4  15 -13 53.5836 149.975   2
  -4  15 -14 502.002 277.892   2
  -4  15 -15 213.823 351.334   2
  -4  15 -16 552.850 370.051   2
  -4  14   8 246.613 737.651   6
  -4  14   7 1647.98 856.479   6
  -4  14   6 6221.73 1688.78   6
  -4  14   5 2096.19 873.358   6
  -4  14   4 2189.35 985.906   6
  -4  14   3-22.1319 372.370   6
  -4  14   2 3485.52 1143.49   6
  -4  14   1 7883.36 1651.85   6
  -4  14   1 9313.15 1426.51   2
  -4  14   0 303.134 321.590   2
  -4  14   0-192.089 235.289   6
  -4  14  -1 274.588 242.540   2
  -4  14  -1 271.616 345.776   6
  -4  14  -1 719.171 419.091   1
  -4  14  -2 150.561 100.755   2
  -4  14  -2-88.6391 217.536   6
  -4  14  -2 485.087 392.862   1
  -4  14  -3 514.690 358.801   2
  -4  14  -3 877.964 549.637   6
  -4  14  -3 970.024 507.632   1
  -4  14  -4 1090.94 551.509   6
  -4  14  -4 898.210 468.563   2
  -4  14  -4 2296.65 901.179   1
  -4  14  -5 116.021 204.113   1
  -4  14  -5 430.511 365.067   6
  -4  14  -5-152.922 353.596   2
  -4  14  -6 1942.27 671.701   6
  -4  14  -6 619.272 506.482   2
  -4  14  -6 1797.19 794.692   1
  -4  14  -7-364.958 333.742   6
  -4  14  -7 753.915 341.055   2
  -4  14  -7 55.7387 399.096   1
  -4  14  -8 3211.71 831.947   6
  -4  14  -8 5464.31 1312.43   2
  -4  14  -8 6058.80 1417.66   1
  -4  14  -9 564.830 614.808   1
  -4  14  -9 1003.80 770.705   2
  -4  14 -10-305.193 389.423   2
  -4  14 -10 394.218 305.507   1
  -4  14 -11 675.174 348.642   2
  -4  14 -12 234.943 409.104   2
  -4  14 -13-624.267 518.534   2
  -4  14 -14 146.371 293.484   2
  -4  14 -15 503.777 586.408   2
  -4  14 -16 551.700 511.745   2
  -4  14 -17 408.843 477.718   2
  -4  14 -18 1275.57 731.152   2
  -4  13  10-178.796 405.781   6
  -4  13   9-80.8211 267.410   6
  -4  13   8 1495.87 1102.85   6
  -4  13   7 2855.20 1072.06   6
  -4  13   6 3122.05 1095.35   6
  -4  13   5 1815.15 811.482   6
  -4  13   4 2509.73 981.280   6
  -4  13   3 1317.83 707.990   6
  -4  13   2 8955.12 1774.74   6
  -4  13   2 7736.17 1227.42   2
  -4  13   1-109.673 266.900   2
  -4  13   1 807.828 730.435   6
  -4  13   0-49.2378 159.632   2
  -4  13   0 1441.78 655.107   6
  -4  13  -1 1076.79 543.672   2
  -4  13  -1 1646.99 737.151   6
  -4  13  -1 660.407 356.898   1
  -4  13  -2 2045.73 728.401   2
  -4  13  -2 3331.84 976.438   6
  -4  13  -2 3039.15 923.401   1
  -4  13  -3-42.9018 153.354   2
  -4  13  -3 237.457 284.065   6
  -4  13  -3 320.316 399.421   1
  -4  13  -4 4722.84 1048.57   6
  -4  13  -4 3962.60 1018.98   2
  -4  13  -4 5365.87 1265.18   1
  -4  13  -5 1060.11 515.110   6
  -4  13  -5 940.271 559.888   2
  -4  13  -5 1288.50 595.130   1
  -4  13  -6 8309.27 1540.88   2
  -4  13  -6 7006.12 1234.44   6
  -4  13  -6 5877.67 1328.56   1
  -4  13  -7 1678.68 562.517   6
  -4  13  -7 2546.25 796.529   2
  -4  13  -7 2668.89 929.923   1
  -4  13  -8 1541.62 520.184   6
  -4  13  -8 1353.45 725.060   1
  -4  13  -8 1839.83 770.068   2
  -4  13  -9 3429.68 1043.31   2
  -4  13  -9 3605.60 1086.96   1
  -4  13 -10-142.157 269.514   2
  -4  13 -11 675.524 510.857   2
  -4  13 -12 39.3454 241.096   2
  -4  13 -13 449.815 491.665   2
  -4  13 -14 491.308 558.092   2
  -4  13 -15-39.1719 336.022   2
  -4  13 -16 354.816 628.469   2
  -4  13 -17-172.961 212.798   2
  -4  13 -18 2760.85 1149.45   2
  -4  13 -19 13.3324 183.895   2
  -4  12  11-902.684 691.791   6
  -4  12  10-273.737 402.387   6
  -4  12   9 590.261 563.254   6
  -4  12   8 853.278 663.567   6
  -4  12   7 576.914 362.917   6
  -4  12   6 6487.55 1582.14   6
  -4  12   5 292.411 235.657   6
  -4  12   4 633.268 595.752   6
  -4  12   3 1193.02 440.265   2
  -4  12   3 2480.16 884.942   6
  -4  12   2 5324.93 1260.50   6
  -4  12   2 5263.49 975.079   2
  -4  12   1 152.130 201.095   2
  -4  12   1 1199.17 633.227   6
  -4  12   0 1609.29 610.837   2
  -4  12   0 1919.25 822.379   6
  -4  12  -1 4055.31 929.097   2
  -4  12  -1 3182.17 917.407   6
  -4  12  -1 2645.07 824.005   1
  -4  12  -2-63.7162 230.823   2
  -4  12  -2 252.597 234.149   6
  -4  12  -2 86.4379 314.666   1
  -4  12  -3 4792.10 1137.95   1
  -4  12  -3 4724.06 1047.39   2
  -4  12  -3 3853.01 949.142   6
  -4  12  -4 856.292 420.306   6
  -4  12  -4 788.477 378.025   2
  -4  12  -4 614.895 300.673   1
  -4  12  -5 745.906 397.393   6
  -4  12  -5 44.9778 427.471   2
  -4  12  -5-162.106 432.203   1
  -4  12  -6 717.601 419.087   6
  -4  12  -6 192.180 253.939   2
  -4  12  -6 501.714 311.831   1
  -4  12  -7 392.693 351.308   6
  -4  12  -7-323.379 391.762   2
  -4  12  -7-163.939 372.341   1
  -4  12  -8 1464.27 525.471   6
  -4  12  -8 2605.94 859.315   2
  -4  12  -8 1914.85 791.604   1
  -4  12  -9 171.963 78.7047   6
  -4  12  -9 574.512 396.203   2
  -4  12 -10 1648.34 737.598   2
  -4  12 -11 2319.34 846.123   2
  -4  12 -12-58.8622 275.242   2
  -4  12 -13-12.7076 381.411   2
  -4  12 -14 98.0614 425.922   2
  -4  12 -15 531.344 596.762   2
  -4  12 -16 501.882 594.444   2
  -4  12 -17 1831.75 839.036   2
  -4  12 -18-77.1820 177.947   2
  -4  12 -19 776.113 610.232   2
  -4  12 -20-821.596 648.317   2
  -4  11  13 15.9474 364.370   6
  -4  11  12-65.9515 232.942   6
  -4  11  11 1168.24 749.352   6
  -4  11  10 1805.92 885.742   6
  -4  11   9 200.327 323.778   6
  -4  11   8-131.766 189.769   6
  -4  11   7 6299.50 1509.16   6
  -4  11   6 511.993 235.218   6
  -4  11   5 1033.26 576.746   6
  -4  11   4 382.737 406.520   6
  -4  11   3 2648.51 630.808   2
  -4  11   3 2691.00 899.920   6
  -4  11   2 10488.7 1738.64   6
  -4  11   2 10542.5 1332.83   2
  -4  11   1 169.258 172.536   2
  -4  11   1 5.18664 186.639   6
  -4  11   0 1736.19 555.581   2
  -4  11   0 1185.17 588.674   6
  -4  11  -1 1178.27 484.608   2
  -4  11  -1 1232.69 574.858   6
  -4  11  -2 2815.77 763.669   2
  -4  11  -2 1627.01 614.055   6
  -4  11  -3-173.184 208.575   6
  -4  11  -3-378.827 300.531   2
  -4  11  -3 96.6860 223.638   1
  -4  11  -4 2819.74 760.523   6
  -4  11  -4 2798.31 827.577   2
  -4  11  -4 2688.34 808.232   1
  -4  11  -5 4589.70 924.270   6
  -4  11  -5 4304.33 991.158   2
  -4  11  -5 5282.09 1172.83   1
  -4  11  -6 2281.76 638.379   6
  -4  11  -6 1295.47 559.836   2
  -4  11  -6 2106.92 709.639   1
  -4  11  -7 3184.77 730.517   6
  -4  11  -7 5945.87 1254.07   2
   4 -11   7 4467.12 610.786   4
  -4  11  -8-178.623 235.273   6
  -4  11  -8 347.925 432.657   2
  -4  11  -9 13.0648 147.881   6
  -4  11  -9 286.709 353.024   2
  -4  11 -10 829.822 445.193   2
  -4  11 -11-330.645 380.949   2
  -4  11 -12-271.894 346.225   2
  -4  11 -13-475.270 571.040   2
  -4  11 -14-2.91932 370.701   2
  -4  11 -15 1083.07 632.330   2
  -4  11 -16 1282.26 727.451   2
  -4  11 -17 266.162 360.186   2
  -4  11 -18 1683.09 845.206   2
  -4  11 -19 1120.36 779.212   2
  -4  11 -20-58.3192 226.614   2
  -4  11 -21 85.5124 273.399   2
   4 -10 -14 773.994 516.870   9
  -4  10  14-430.735 502.058   6
   4 -10 -13 1388.71 725.816   9
  -4  10  13-1070.50 733.663   6
   4 -10 -12 879.413 643.208   9
  -4  10  12 1321.86 837.673   6
  -4  10  11 484.788 506.017   6
   4 -10 -11 1389.90 613.782   9
   4 -10 -10-214.458 347.733   9
  -4  10  10 345.784 490.015   6
  -4  10   9-74.6232 452.428   6
   4 -10  -9 815.574 492.653   9
  -4  10   8 3437.18 1110.26   6
   4 -10  -8 1817.32 741.839   9
  -4  10   7 2690.74 959.952   6
  -4  10   6 41.7530 368.549   6
  -4  10   5 705.311 441.332   6
  -4  10   4 2316.98 853.069   6
  -4  10   4 2409.94 562.937   2
  -4  10   3 3166.60 957.018   6
  -4  10   3 2599.67 616.186   2
  -4  10   2 1186.13 602.399   6
  -4  10   2 606.295 284.770   2
  -4  10   1 1995.41 700.070   6
  -4  10   1 2130.40 593.356   2
  -4  10   0 1010.34 412.536   2
  -4  10   0 740.703 539.447   6
  -4  10  -1 3089.65 806.372   6
  -4  10  -1 4617.30 942.037   2
  -4  10  -2 246.239 210.687   2
  -4  10  -2 1178.83 444.766   6
  -4  10  -3 3028.67 791.501   6
  -4  10  -3 2162.48 651.589   2
  -4  10  -4 1310.81 501.066   2
  -4  10  -4 2150.12 629.280   6
  -4  10  -5-225.454 216.719   6
  -4  10  -5 122.428 223.377   2
  -4  10  -6 8024.51 1140.87   6
  -4  10  -6 10342.1 1577.13   2
   4 -10   7 700.397 210.386   4
  -4  10  -7 488.909 332.397   6
  -4  10  -7 733.315 466.059   2
  -4  10  -8-193.646 172.154   6
  -4  10  -8 70.0576 142.566   2
  -4  10  -9 312.364 355.081   2
  -4  10  -9 593.532 165.349   9
  -4  10 -10 4148.89 1054.36   2
  -4  10 -10 3500.27 471.363   9
  -4  10 -11 2399.29 877.197   2
  -4  10 -12 3885.53 1089.21   2
  -4  10 -13 248.833 318.014   2
  -4  10 -14-103.560 318.781   2
  -4  10 -15 711.879 365.018   2
  -4  10 -16 296.882 621.905   2
  -4  10 -17 1155.35 663.149   2
  -4  10 -18 690.598 627.194   2
  -4  10 -19 719.988 619.125   2
  -4  10 -20-42.5364 219.787   2
  -4  10 -21 191.733 322.715   2
  -4   9  15 617.514 582.342   6
   4  -9 -15 155.465 159.412   9
  -4   9  14 412.933 277.104   6
   4  -9 -14-789.316 576.466   9
  -4   9  13-160.355 290.873   6
   4  -9 -13-657.727 513.446   9
   4  -9 -12 544.988 450.541   9
  -4   9  12 306.495 425.002   6
  -4   9  11 2317.64 887.383   6
   4  -9 -11 2612.36 879.107   9
   4  -9 -10 1600.76 744.261   9
  -4   9  10 2473.42 950.226   6
  -4   9   9 348.875 224.484   6
   4  -9  -9-140.615 290.106   9
  -4   9   8-189.076 385.327   6
   4  -9  -8-72.4466 325.102   9
  -4   9   7 2317.35 875.717   6
   4  -9  -7 1820.10 645.837   9
  -4   9   6 1371.14 677.685   6
   4  -9  -6 1250.28 503.151   9
  -4   9   5 16978.7 2274.64   6
   4  -9  -5 15576.0 1692.13   9
  -4   9   5 17039.6 1335.79   2
  -4   9   4 492.963 527.182   6
  -4   9   4 1217.94 411.490   2
  -4   9   3 290.350 231.365   6
  -4   9   3 298.329 156.493   2
  -4   9   2 2474.36 608.817   2
  -4   9   2 2992.12 904.793   6
  -4   9   1 4300.03 1003.93   6
  -4   9   1 3953.80 784.897   2
  -4   9   0 11453.3 1577.09   6
  -4   9   0 9742.18 1268.02   2
  -4   9  -1 10.7451 187.795   2
  -4   9  -1 209.266 226.798   6
  -4   9  -2 1114.31 466.894   2
  -4   9  -2 1040.68 487.494   6
  -4   9  -3 6219.90 1139.24   2
  -4   9  -3 6796.33 1115.64   6
  -4   9  -4 502.267 267.869   2
  -4   9  -4 477.772 323.436   6
  -4   9  -5 10761.9 1302.61   6
  -4   9  -5 8803.46 1357.19   2
   4  -9   6 590.224 248.880   4
  -4   9  -6 573.421 337.046   6
  -4   9  -6-104.644 334.478   2
  -4   9  -7 6218.36 907.079   6
   4  -9   7 6461.74 745.068   6
  -4   9  -7 7721.85 1377.56   2
   4  -9   7 5922.46 466.389   4
  -4   9  -8 402.224 422.555   2
  -4   9  -8 12.4498 40.9840   9
   4  -9   8 94.1995 93.7807   6
  -4   9  -9 3477.42 878.271   2
  -4   9  -9 3262.19 412.095   9
  -4   9 -10 758.718 566.512   2
  -4   9 -10-88.9698 120.625   9
  -4   9 -11 2370.80 810.883   2
  -4   9 -11 1608.38 382.929   9
  -4   9 -12 425.979 502.818   2
  -4   9 -12 356.387 204.855   9
  -4   9 -13 1994.47 794.335   2
  -4   9 -13 2196.26 543.871   9
  -4   9 -14-24.0939 262.578   2
  -4   9 -14 52.1720 121.138   9
  -4   9 -15 344.016 371.584   2
  -4   9 -16 1451.27 712.607   2
  -4   9 -17 1504.07 826.083   2
  -4   9 -18 195.587 467.741   2
  -4   9 -19 427.558 402.763   2
  -4   9 -20 592.955 680.830   2
  -4   9 -21 298.942 525.219   2
  -4   9 -22 1297.10 853.181   2
  -4   8  16-45.4949 391.814   6
   4  -8 -16-1395.18 794.897   9
  -4   8  15 1027.18 656.854   6
   4  -8 -15 33.1999 199.473   9
  -4   8  14 11.3947 270.386   6
   4  -8 -14 61.7201 218.446   9
  -4   8  13 1432.32 832.350   6
   4  -8 -13 265.497 213.662   9
  -4   8  12 2376.86 969.133   6
   4  -8 -12 1562.81 787.033   9
   4  -8 -11 460.100 414.988   9
  -4   8  11 187.847 499.942   6
  -4   8  10 5503.95 1487.53   6
   4  -8 -10 6255.41 1326.64   9
  -4   8   9 1164.74 534.411   6
   4  -8  -9 1315.83 576.289   9
  -4   8   8 3883.39 1139.86   6
   4  -8  -8 2225.22 744.830   9
  -4   8   7 8590.76 1598.41   6
   4  -8  -7 8766.24 1365.01   9
  -4   8   6 174.005 121.879   2
  -4   8   6 34.4775 179.389   6
   4  -8  -6-81.3365 389.001   9
  -4   8   5 14360.6 1941.24   6
  -4   8   5 13612.2 1160.15   2
  -4   8   4 257.180 382.748   6
  -4   8   4 174.048 217.683   2
  -4   8   3 9762.82 1519.59   6
   4  -8  -3 12157.8 1266.18   9
  -4   8   3 11632.7 1206.88   2
  -4   8   2 577.168 361.375   6
   4  -8  -2 904.178 341.952   9
  -4   8   2 689.236 341.847   2
  -4   8   1 1981.35 638.746   6
  -4   8   1 2393.92 592.387   2
  -4   8   0 4853.63 1004.99   6
  -4   8   0 7197.28 1052.13   2
  -4   8  -1 132.027 128.622   6
  -4   8  -1 348.519 372.274   2
  -4   8  -2 15200.4 1641.40   6
  -4   8  -2 12277.3 1446.75   2
  -4   8  -3 3323.17 765.627   2
  -4   8  -3 2321.47 614.635   6
  -4   8  -4 7221.02 1159.97   2
  -4   8  -4 7028.41 1029.99   6
   4  -8   5 2922.51 494.142   4
  -4   8  -5 2451.92 723.389   2
  -4   8  -5 2541.60 588.316   6
  -4   8  -6 3691.01 857.076   2
  -4   8  -6 3147.05 644.358   6
   4  -8   6 2761.82 504.298   6
   4  -8   6 3431.75 440.006   4
  -4   8  -7 334.121 301.832   2
   4  -8   7-13.8935 50.7597   6
  -4   8  -8 1380.34 631.138   2
   4  -8   8 1063.40 254.394   6
  -4   8  -8 839.328 186.438   9
  -4   8  -9 4578.92 1075.19   2
   4  -8   9 3612.89 400.269   6
  -4   8  -9 4484.96 527.927   9
  -4   8 -10 134.281 157.320   2
  -4   8 -10 688.531 244.078   9
  -4   8 -11 29.3707 349.843   2
  -4   8 -11 238.491 193.091   9
  -4   8 -12 1496.10 424.068   9
  -4   8 -12 1937.85 830.885   2
  -4   8 -13 1021.22 377.022   9
  -4   8 -13-138.596 305.467   2
  -4   8 -14 384.059 266.076   9
  -4   8 -14 1188.70 593.513   2
  -4   8 -15 978.442 390.432   9
  -4   8 -15 303.222 330.120   2
  -4   8 -16 1258.34 699.136   7
  -4   8 -16 1588.93 872.134   2
  -4   8 -16 1471.75 547.774   9
  -4   8 -17 472.936 547.670   7
  -4   8 -17 878.277 696.156   2
  -4   8 -18 159.247 308.793   7
  -4   8 -18 470.894 260.738   2
  -4   8 -19 603.905 537.246   7
  -4   8 -19 338.968 224.998   2
  -4   8 -20 1822.35 1036.28   7
  -4   8 -20 1001.70 671.263   2
  -4   8 -21 465.341 476.216   2
  -4   7  18-1012.47 754.793   6
  -4   7  17 588.719 712.479   6
  -4   7  16 300.858 395.149   6
   4  -7 -16 292.585 340.215   9
  -4   7  15 1649.80 880.369   6
   4  -7 -15 1473.74 794.607   9
  -4   7  14 39.3498 635.353   6
   4  -7 -14 786.412 639.689   9
  -4   7  13 490.052 463.829   6
   4  -7 -13 933.613 590.023   9
  -4   7  12 2371.70 979.054   6
   4  -7 -12 2891.38 986.422   9
  -4   7  11 4475.60 1304.27   6
   4  -7 -11 6373.27 1373.20   9
  -4   7  10 3141.61 1074.15   6
   4  -7 -10 3278.33 949.730   9
  -4   7   9 6922.94 1495.76   6
   4  -7  -9 5609.45 1168.76   9
  -4   7   8 3329.06 1018.39   6
   4  -7  -8 1083.48 416.917   9
  -4   7   7 883.374 451.355   6
   4  -7  -7 1558.23 575.684   9
  -4   7   6 1157.69 671.821   6
   4  -7  -6 1148.29 434.116   9
  -4   7   6 989.984 277.494   8
  -4   7   6 1167.23 301.731   2
  -4   7   5 1806.12 428.707   2
  -4   7   5 2219.61 774.683   6
  -4   7   4 1229.49 535.493   6
  -4   7   4 1516.12 384.891   2
  -4   7   3 5250.93 1101.28   6
   4  -7  -3 4701.85 756.482   9
  -4   7   3 5230.90 802.095   2
  -4   7   2 174.378 254.357   6
   4  -7  -2 44.8001 150.734   9
  -4   7   2-9.70361 168.546   2
  -4   7   1 493.142 299.827   6
   4  -7  -1 926.687 279.005   9
  -4   7   1 639.008 287.620   2
  -4   7   0 2528.24 691.948   6
  -4   7   0 2126.56 565.269   2
  -4   7  -1 1556.62 573.506   6
  -4   7  -1 1718.41 519.461   2
  -4   7  -2 17027.1 1690.12   6
  -4   7  -2 18318.7 1717.34   2
  -4   7  -3 1080.42 388.512   6
  -4   7  -3 1221.86 458.668   2
  -4   7  -4 8523.83 1106.40   6
  -4   7  -4 8746.18 1274.50   2
   4  -7   4 7651.15 842.017   4
  -4   7  -5 1201.80 525.364   2
  -4   7  -5 1136.60 368.260   6
   4  -7   5 940.023 311.880   6
   4  -7   5 1119.51 294.335   4
  -4   7  -6 626.369 338.763   2
   4  -7   6 1188.95 317.019   6
  -4   7  -7 104.498 169.194   2
   4  -7   7 117.226 110.635   6
   4  -7   8 75.7847 90.5992   6
  -4   7  -8-90.3091 82.2764   9
  -4   7  -8-141.419 142.459   2
   4  -7   9 698.090 166.317   6
  -4   7  -9 338.850 138.330   9
  -4   7  -9 552.598 255.594   2
  -4   7 -10 484.197 220.618   9
  -4   7 -10 518.429 340.405   2
  -4   7 -11 418.390 361.478   2
  -4   7 -11 45.8935 112.539   9
  -4   7 -12 2956.11 633.447   9
  -4   7 -12 1855.32 726.049   2
  -4   7 -13 2744.98 975.800   2
  -4   7 -13 2465.07 589.542   9
  -4   7 -14 743.450 481.133   7
  -4   7 -14 1184.24 454.565   9
  -4   7 -14 1283.42 651.767   2
  -4   7 -15 629.286 597.071   7
  -4   7 -15-243.097 258.221   9
  -4   7 -15 243.454 395.336   2
  -4   7 -16-452.714 301.959   7
  -4   7 -16 391.725 381.060   9
  -4   7 -16-150.436 341.130   2
  -4   7 -17 2809.77 979.501   2
  -4   7 -17 1011.40 660.979   7
  -4   7 -17 1772.36 660.117   9
  -4   7 -18 70.5226 251.488   9
  -4   7 -18 260.310 410.381   2
  -4   7 -19 123.906 247.627   7
  -4   7 -19 200.193 310.887   2
  -4   7 -20-104.664 255.542   7
  -4   7 -20-341.214 398.063   2
  -4   7 -21-463.923 463.627   2
  -4   6  19 303.679 453.945   6
  -4   6  18 916.426 748.995   6
  -4   6  17 1792.50 970.315   6
   4  -6 -17 3505.77 1432.44   9
  -4   6  16 702.002 461.583   6
   4  -6 -16 1606.79 874.772   9
  -4   6  15 1136.70 601.833   6
   4  -6 -15 1506.19 811.111   9
  -4   6  14 382.788 456.570   6
   4  -6 -14 1624.83 821.854   9
  -4   6  13 589.447 431.309   6
   4  -6 -13 1279.90 579.988   9
  -4   6  12 646.942 592.553   6
   4  -6 -12-313.251 419.568   9
  -4   6  11-278.385 500.505   6
   4  -6 -11 633.730 342.601   9
  -4   6  10 9252.74 1691.94   6
   4  -6 -10 10784.4 1641.87   9
  -4   6   9 411.547 385.927   6
  -4   6   9 996.526 362.489   3
   4  -6  -9 1354.91 603.091   9
  -4   6   8 980.051 575.967   6
  -4   6   8 695.983 299.443   3
   4  -6  -8 842.527 422.209   9
  -4   6   8 681.700 213.193   8
  -4   6   7 1249.47 524.594   6
   4  -6  -7 484.750 318.757   9
  -4   6   6 337.892 164.778   2
  -4   6   6 358.191 425.759   6
  -4   6   5 1383.83 369.480   2
  -4   6   5 2278.33 751.625   6
  -4   6   4 1389.22 368.213   2
  -4   6   4 2787.13 780.579   6
   4  -6  -4 1913.05 502.256   9
  -4   6   3 3698.18 887.883   6
  -4   6   3 2347.17 512.612   2
   4  -6  -3 3439.14 621.604   9
  -4   6   2 566.736 404.113   6
  -4   6   2 770.374 323.363   2
   4  -6  -2 479.925 242.260   9
   4  -6  -1 13398.5 985.080   9
  -4   6   1 14476.0 1371.67   2
  -4   6   1 12756.1 1580.94   6
  -4   6   0 381.674 296.033   6
  -4   6   0 521.671 266.609   2
   4  -6   0 630.630 185.840   9
  -4   6  -1 25874.7 2060.48   6
  -4   6  -1 27277.4 1992.54   2
   4  -6   2 1902.50 486.723   4
  -4   6  -2 2483.54 623.217   6
  -4   6  -2 2725.80 656.430   2
  -4   6  -3 4059.12 745.691   6
  -4   6  -3 4899.66 890.854   2
   4  -6   3 5263.42 729.876   4
  -4   6  -4 21213.6 1666.57   6
   4  -6   4 24107.5 1594.68   6
  -4   6  -4 26586.5 2139.34   2
   4  -6   4 23206.9 1396.06   4
   4  -6   5 1624.41 397.275   6
  -4   6  -5 1635.43 587.890   2
   4  -6   6 7742.70 803.656   6
  -4   6  -6 11335.4 1486.96   2
   4  -6   7 254.046 144.911   6
  -4   6  -7 401.982 265.034   2
   4  -6   8-5.19719 84.9787   6
  -4   6  -8 20.9800 62.3344   9
  -4   6  -8-191.666 329.584   2
   4  -6   9 9652.80 670.139   6
  -4   6  -9 10527.1 962.052   9
  -4   6  -9 12792.9 1709.18   2
   4  -6  10 15.1464 36.1785   6
  -4   6 -10-116.052 207.471   2
  -4   6 -10-44.1134 104.597   9
  -4   6 -11 413.815 258.923   9
  -4   6 -11-107.786 449.180   2
  -4   6 -12 302.059 208.155   9
  -4   6 -12-145.853 249.811   2
  -4   6 -13 727.411 480.614   7
  -4   6 -13 615.933 400.899   2
  -4   6 -13 710.179 373.107   9
  -4   6 -14 225.736 456.571   7
  -4   6 -14 330.245 241.081   9
  -4   6 -14 453.524 349.171   2
  -4   6 -15 710.105 622.601   7
  -4   6 -15 471.727 346.439   9
  -4   6 -15-302.042 452.720   2
  -4   6 -16 710.982 492.431   7
  -4   6 -16-443.274 329.025   9
  -4   6 -16-9.95000 381.186   2
  -4   6 -17 1693.31 647.015   7
  -4   6 -17 967.105 556.528   9
  -4   6 -17 1771.90 820.499   2
  -4   6 -18 4075.35 1348.79   7
  -4   6 -18 2321.64 776.558   9
  -4   6 -18 2452.96 980.786   2
  -4   6 -19 1206.74 814.373   7
  -4   6 -19 640.398 452.171   2
  -4   6 -19 880.471 492.202   9
  -4   6 -20 1080.92 771.507   7
  -4   6 -20 610.168 508.787   9
  -4   6 -20 674.418 512.629   2
  -4   5  19 263.494 386.538   6
  -4   5  18 569.780 563.442   6
   4  -5 -17 258.804 384.878   9
  -4   5  17-292.246 395.080   6
  -4   5  16 531.484 332.790   6
   4  -5 -16 1531.60 819.796   9
  -4   5  15 1827.64 883.564   6
   4  -5 -15 1406.26 797.102   9
  -4   5  14 478.943 534.577   6
   4  -5 -14 1053.34 630.537   9
  -4   5  13 1534.24 634.232   6
   4  -5 -13 1167.97 627.664   9
  -4   5  12 348.269 278.757   6
   4  -5 -12 766.533 403.884   9
  -4   5  11 7143.37 1503.31   6
   4  -5 -11 6358.84 1298.80   9
  -4   5  10 1012.21 598.707   6
   4  -5 -10 2102.77 689.482   9
  -4   5   9 234.346 262.779   6
   4  -5  -9 204.370 241.407   9
  -4   5   9 329.718 119.266   8
  -4   5   8 4339.18 1173.39   6
  -4   5   8 3722.19 646.012   3
  -4   5   8 3968.97 528.304   8
   4  -5  -7 2928.93 509.480   1
  -4   5   7 3511.27 917.090   6
  -4   5   7 3263.84 653.388   3
  -4   5   7 4071.38 599.783   8
   4  -5  -6 545.786 234.580   1
  -4   5   6 532.652 158.468   6
  -4   5   6 198.264 91.8242   2
  -4   5   5 37.0295 212.107   6
  -4   5   5-155.750 126.201   2
  -4   5   4 188.180 92.2302   2
  -4   5   4 884.627 470.940   6
   4  -5  -4 235.587 139.271   2
  -4   5   3 15270.4 1761.81   6
   4  -5  -3 15025.9 1180.88   2
  -4   5   3 14190.9 1237.73   2
  -4   5   2 2474.18 691.886   6
  -4   5   2 1514.24 454.940   2
   4  -5  -2 1901.16 440.053   2
  -4   5   1 482.077 336.130   6
  -4   5   1 246.030 224.268   2
  -4   5   0 13622.6 1497.42   6
  -4   5   0 12992.2 1321.33   2
  -4   5  -1 63299.3 3099.01   6
   4  -5   1 59947.6 1316.25   9
  -4   5  -1 70297.0 3138.51   2
   4  -5   1 63561.6 2811.12   4
   4  -5   2 3612.54 627.995   4
  -4   5  -2 3687.39 749.120   6
  -4   5  -2 2245.39 600.048   2
   4  -5   3 40098.9 2129.91   6
  -4   5  -3 38725.7 2461.54   2
   4  -5   3 37142.9 1867.46   4
   4  -5   4 915.724 300.089   6
  -4   5  -4 873.080 302.260   2
   4  -5   4 1070.14 255.283   4
   4  -5   5 1297.00 353.395   6
  -4   5  -5 1551.53 561.240   2
   4  -5   6 18957.1 1284.33   6
  -4   5  -6 18435.1 1852.60   2
   4  -5   7 5116.37 643.658   6
  -4   5  -7 5126.50 993.677   2
   4  -5   8 7021.38 704.992   6
  -4   5  -8 9019.96 853.525   9
  -4   5  -8 7519.14 1249.58   2
   4  -5   9 11009.9 834.565   6
  -4   5  -9 13665.3 1165.43   9
  -4   5  -9 13165.1 1704.52   2
  -4   5  -9 11199.7 692.716   4
  -4   5 -10-20.9290 182.719   7
   4  -5  10 243.343 126.433   6
  -4   5 -10 90.8929 202.472   9
  -4   5 -10 104.158 177.039   2
  -4   5 -11 324.626 393.119   7
  -4   5 -11 83.7403 265.466   2
   4  -5  11 10.5548 25.7246   6
  -4   5 -11 31.4214 136.733   9
  -4   5 -12 114.313 376.466   7
  -4   5 -12 188.731 199.591   9
  -4   5 -13 513.381 198.632   7
  -4   5 -13 434.553 269.479   9
  -4   5 -13 1172.65 527.028   2
  -4   5 -14 2477.88 933.371   7
  -4   5 -14 4586.02 1144.03   2
  -4   5 -14 5454.58 1030.96   9
  -4   5 -15 466.401 529.135   7
  -4   5 -15 594.462 306.560   9
  -4   5 -15 163.662 158.747   2
  -4   5 -16 924.664 654.011   7
  -4   5 -16 543.195 338.828   9
  -4   5 -16-246.070 435.122   2
  -4   5 -17 3134.33 956.659   2
  -4   5 -17 3411.31 959.452   9
  -4   5 -17 3375.83 1153.03   7
  -4   5 -18 257.719 530.848   7
  -4   5 -18 1128.93 628.807   2
  -4   5 -18-481.396 383.996   9
  -4   5 -19 1271.36 842.769   7
  -4   5 -19 961.172 638.416   2
  -4   5 -19-143.772 240.106   9
  -4   5 -20-543.441 548.561   7
  -4   5 -20-69.9750 215.349   2
  -4   5 -20 79.2934 283.018   9
  -4   5 -21-254.840 325.206   9
  -4   4  19-429.394 471.755   6
  -4   4  18 392.110 502.282   6
   4  -4 -18 388.820 578.803   9
  -4   4  17 1606.97 917.443   6
   4  -4 -17 839.030 556.188   9
  -4   4  16 1436.06 730.572   6
   4  -4 -16 407.000 533.037   9
  -4   4  15-333.828 346.448   6
   4  -4 -15-29.9018 165.952   9
  -4   4  14 35.2124 212.524   6
   4  -4 -14 726.342 585.020   9
  -4   4  13 5.66843 372.882   6
   4  -4 -13-196.480 387.153   9
  -4   4  12 1097.49 670.489   6
  -4   4  11 2491.69 884.975   6
  -4   4  10 137.258 155.072   6
  -4   4  10 83.1691 87.1367   8
  -4   4   9 1425.51 510.572   6
   4  -4  -9 2478.14 401.528   1
  -4   4   9 2665.67 409.279   8
  -4   4   8 828.048 322.027   3
  -4   4   8 434.767 328.586   6
   4  -4  -8 215.923 82.7372   2
   4  -4  -8 146.394 109.293   1
  -4   4   8 265.656 142.002   8
   4  -4  -7 9897.61 928.960   1
  -4   4   7 9639.91 1067.70   3
  -4   4   7 10186.3 1594.66   6
  -4   4   7 10890.5 1013.75   8
   4  -4  -7 11033.2 779.193   2
   4  -4  -6 1071.91 267.298   2
   4  -4  -6 1259.66 350.088   1
  -4   4   6 1104.74 453.857   6
  -4   4   6 2143.61 517.814   3
  -4   4   5 6041.23 1179.56   6
  -4   4   5 5239.13 841.620   3
   4  -4  -5 5781.59 660.983   2
   4  -4  -5 5031.07 718.095   1
  -4   4   5 5069.52 669.419   2
  -4   4   4 5442.92 1057.32   6
  -4   4   4 5158.64 729.974   2
   4  -4  -4 5456.97 688.576   2
  -4   4   3 10363.8 1379.81   6
  -4   4   3 9403.99 1006.09   2
   4  -4  -3 9598.22 952.503   2
  -4   4   2 1162.12 385.333   2
  -4   4   2 1261.45 477.334   6
   4  -4  -2 998.565 316.057   2
   4  -4  -1 931.860 319.064   2
   4  -4  -1 390.113 335.438   4
  -4   4   1 433.136 290.959   6
  -4   4   1 482.717 283.849   2
  -4   4   0 12180.0 1363.03   6
  -4   4   0 11888.5 1249.22   2
   4  -4   0 10640.0 1188.19   4
  -4   4  -1 13041.8 1382.83   6
  -4   4  -1 15441.3 1458.30   2
   4  -4   1 12871.1 1221.57   4
   4  -4   2 10697.1 1136.91   6
  -4   4  -2 9999.99 1239.91   2
   4  -4   2 9058.31 965.436   4
   4  -4   3 34685.8 1993.69   6
   4  -4   3 31328.7 830.793   9
  -4   4  -3 38596.2 2437.77   2
   4  -4   3 36147.4 1806.84   4
   4  -4   4 10591.0 1071.28   6
  -4   4  -4 11892.4 1433.04   2
  -4   4  -4 12399.5 996.625   4
  -4   4  -5 307.506 151.567   4
   4  -4   5 423.397 203.169   6
  -4   4  -5 45.7212 216.689   2
   4  -4   6 7186.61 834.178   6
  -4   4  -6 5832.20 622.935   4
  -4   4  -6 8034.21 1213.98   2
   4  -4   7 231.509 160.637   6
  -4   4  -7 471.817 319.135   2
  -4   4  -7 115.395 126.521   4
  -4   4  -8 14764.1 1757.02   2
  -4   4  -9 261.587 161.932   2
  -4   4  -9 33.9257 115.299   9
  -4   4 -10 112.106 167.048   7
  -4   4 -10-91.1330 144.935   9
  -4   4 -10 101.946 222.719   2
  -4   4 -11 1389.55 596.177   7
  -4   4 -11 1409.26 441.855   9
   4  -4  11 1318.04 258.963   6
  -4   4 -11 2053.37 739.600   2
  -4   4 -12 2340.59 868.120   7
  -4   4 -12 2993.81 923.429   2
   4  -4  12 1659.16 301.817   6
  -4   4 -12 2136.47 612.629   9
  -4   4 -13 18835.7 1885.73   9
  -4   4 -13 13496.8 1932.85   2
  -4   4 -13 14079.5 2080.40   7
  -4   4 -14 955.706 559.036   7
  -4   4 -14 714.214 424.388   2
  -4   4 -14 307.490 310.154   9
  -4   4 -15 275.906 252.933   7
  -4   4 -15 239.290 222.247   9
  -4   4 -15 570.907 432.325   3
  -4   4 -15 1149.07 624.792   2
  -4   4 -16 477.618 269.408   9
  -4   4 -16 1284.00 664.290   3
  -4   4 -16 581.046 402.484   2
  -4   4 -17 395.425 527.103   7
  -4   4 -17 690.273 348.227   2
  -4   4 -17 40.9575 137.387   9
  -4   4 -18 1304.09 708.794   2
  -4   4 -18 1971.58 773.209   9
  -4   4 -19-667.950 571.080   7
  -4   4 -19 649.568 520.369   2
  -4   4 -19 429.204 350.806   9
  -4   4 -20 704.004 689.797   7
  -4   4 -20 345.670 365.890   9
  -4   4 -21 522.474 429.540   9
  -4   3  19 417.958 429.037   6
  -4   3  18 269.781 410.688   6
   4  -3 -18 3242.22 1187.31   9
  -4   3  17 51.2425 324.301   6
   4  -3 -17 544.315 575.995   9
  -4   3  16 93.0904 331.085   6
   4  -3 -16 1436.46 696.730   9
  -4   3  15 357.423 147.884   6
   4  -3 -15-22.1774 280.350   9
  -4   3  14 2410.47 920.134   6
  -4   3  13 2635.25 897.973   6
  -4   3  12 1745.02 731.476   6
  -4   3  11 178.072 209.482   6
  -4   3  11-15.1548 61.4768   8
   4  -3 -10 1265.42 221.346   2
  -4   3  10 2547.22 751.205   6
   4  -3 -10 1508.51 283.414   1
  -4   3  10 2562.68 416.937   8
  -4   3   9 4124.90 1020.62   6
   4  -3  -9 5178.38 524.667   2
   4  -3  -9 4246.71 539.210   1
  -4   3   9 5585.49 664.695   8
  -4   3   8 7711.54 1364.73   6
   4  -3  -8 7497.30 691.622   2
  -4   3   8 7975.21 840.860   8
  -4   3   7 6845.16 817.547   8
  -4   3   7 6619.57 876.568   3
  -4   3   7 7069.95 1259.00   6
   4  -3  -7 7176.88 718.095   2
  -4   3   6 1655.01 596.331   6
  -4   3   6 1736.88 444.880   3
   4  -3  -6 1866.07 377.601   2
  -4   3   6 1533.94 416.097   8
  -4   3   5 2121.51 615.048   6
   4  -3  -5 3287.60 543.875   2
  -4   3   5 2979.16 625.573   3
  -4   3   5 2523.76 492.380   2
   4  -3  -4 2170.92 459.831   2
  -4   3   4 1707.97 591.825   6
  -4   3   4 1354.82 398.466   2
  -4   3   4 1640.52 473.012   3
   4  -3  -3 366.034 291.826   4
  -4   3   3 385.366 375.371   6
  -4   3   3 34.2681 174.004   3
   4  -3  -3 239.669 178.796   2
  -4   3   3-26.1335 169.981   2
  -4   3   2 736.868 300.264   2
   4  -3  -2 735.925 361.918   4
  -4   3   2 608.684 335.806   6
   4  -3  -2 632.905 258.043   2
  -4   3   1 12926.6 1425.91   6
  -4   3   1 11797.9 1199.07   2
   4  -3  -1 11794.7 1154.75   2
   4  -3  -1 10991.5 1230.96   4
  -4   3   0 16901.3 1492.73   2
   4  -3   0 18013.8 1501.81   4
   4  -3   1-116.071 126.072   6
  -4   3  -1-44.7642 200.331   2
   4  -3   1-16.3129 98.1755   4
   4  -3   2 24074.0 1722.69   6
  -4   3  -2 23568.1 1881.06   2
  -4   3  -2 23791.9 1572.13   4
   4  -3   2 21762.7 1491.65   4
  -4   3  -3 603.944 244.731   4
   4  -3   3 370.261 220.995   6
  -4   3  -3 675.198 313.651   2
  -4   3  -4 17191.7 1247.87   4
   4  -3   4 16790.8 934.065   9
  -4   3  -4 18875.5 1744.59   2
   4  -3   5 8756.11 753.748   9
  -4   3  -5 9722.82 1285.67   2
  -4   3  -5 8836.13 882.216   4
  -4   3  -6 42612.7 2740.06   2
  -4   3  -7 12735.8 1558.24   2
  -4   3  -8 8495.90 1279.14   2
  -4   3  -9 2764.87 810.149   2
   4  -3  10 9743.31 826.036   6
  -4   3 -10 9641.18 1184.11   9
  -4   3 -10 8630.77 1454.45   2
  -4   3 -10 10804.1 1613.29   7
  -4   3 -11 3253.27 978.844   7
  -4   3 -11 2866.42 841.057   2
  -4   3 -11 2944.30 678.662   9
   4  -3  11 3178.34 476.458   6
  -4   3 -12 9750.32 1722.77   7
   4  -3  12 9813.32 863.197   6
  -4   3 -12 10423.5 1591.45   2
  -4   3 -12 8801.68 1262.88   9
  -4   3 -13 2945.27 984.433   7
  -4   3 -13 3384.82 928.422   3
   4  -3  13 2806.60 476.834   6
  -4   3 -13 1543.77 585.620   2
  -4   3 -13 3280.64 832.876   9
  -4   3 -14 2450.41 846.370   7
  -4   3 -14 4774.41 1100.22   3
  -4   3 -14 2592.55 850.969   2
  -4   3 -14 3392.79 851.802   9
  -4   3 -15 473.843 248.270   7
  -4   3 -15-339.946 307.585   3
  -4   3 -15-65.5914 342.422   2
  -4   3 -15 856.191 433.043   9
  -4   3 -16 1487.22 795.015   7
  -4   3 -16 1040.69 542.563   9
  -4   3 -16 1432.44 596.788   2
  -4   3 -17 2562.05 1077.36   7
  -4   3 -17 1963.62 798.409   2
  -4   3 -17 1218.35 610.008   9
  -4   3 -18 181.556 325.271   7
  -4   3 -18 83.9834 219.627   2
  -4   3 -18 262.685 309.336   9
  -4   3 -19 510.824 527.636   7
  -4   3 -19-466.115 412.002   9
  -4   3 -20 151.846 137.039   9
   4  -2 -20 1387.06 916.854   4
   4  -2 -19 1808.37 1024.64   4
  -4   2  19 949.863 615.759   6
   4  -2 -19 2540.79 1074.18   9
   4  -2 -18-926.841 686.347   4
  -4   2  18-498.369 468.542   6
   4  -2 -18 91.3293 243.254   9
  -4   2  17 418.822 631.900   6
   4  -2 -17 520.123 599.539   9
  -4   2  16 1286.08 633.823   6
  -4   2  15-82.2504 313.109   6
  -4   2  14 4598.59 1240.52   6
  -4   2  13 3122.79 910.538   6
  -4   2  12 1200.34 292.931   8
  -4   2  12 1781.51 748.638   6
  -4   2  11 7510.19 1425.44   6
  -4   2  11 9116.40 850.175   8
   4  -2 -10 3104.74 480.412   2
  -4   2  10 4743.35 1170.34   6
  -4   2  10 3731.94 565.425   8
   4  -2  -9 410.541 151.076   2
  -4   2   9 55.3194 121.107   8
  -4   2   9 457.960 374.428   6
  -4   2   8 9699.06 1496.26   6
   4  -2  -8 8363.10 846.523   2
  -4   2   8 8202.79 904.164   8
  -4   2   7 13931.5 1728.56   6
   4  -2  -7 14010.2 1116.78   2
  -4   2   7 13824.9 1221.10   8
  -4   2   6 8227.20 1293.88   6
   4  -2  -6 7066.68 1216.69   4
  -4   2   6 6175.70 866.904   3
  -4   2   6 6509.10 853.401   8
   4  -2  -6 5874.32 749.237   2
   4  -2  -5 5185.71 999.014   4
  -4   2   5 4539.58 916.610   6
  -4   2   5 4559.16 766.640   3
   4  -2  -5 4401.91 666.148   2
   4  -2  -4 4808.47 923.763   4
  -4   2   4 5885.02 1019.09   6
  -4   2   4 4820.18 785.251   3
   4  -2  -4 5451.07 750.069   2
  -4   2   4 6686.42 833.957   2
  -4   2   3 2153.73 597.641   6
   4  -2  -3 1332.84 453.345   4
   4  -2  -3 1592.93 419.645   2
  -4   2   3 1892.46 525.489   3
  -4   2   3 2434.40 512.005   2
   4  -2  -2 25253.6 1933.52   4
  -4   2   2 30506.0 2070.81   3
  -4   2   2 27681.4 1796.89   2
   4  -2  -2 29850.7 1830.19   2
   4  -2  -1 609.371 296.052   4
  -4   2   1 875.110 322.041   2
  -4   2   1 1248.76 448.539   3
   4  -2  -1 977.984 335.714   2
  -4   2   0 18989.3 1691.16   3
  -4   2   0 19417.8 1573.51   2
  -4   2   0 20797.5 1610.37   4
   4  -2   0 16972.4 1441.96   4
  -4   2  -1 3355.29 630.685   4
   4  -2   1 3578.77 670.786   6
  -4   2  -1 2930.44 618.384   2
  -4   2  -1 4968.13 880.659   3
   4  -2   1 3802.46 643.172   4
  -4   2  -2 1754.27 444.086   4
  -4   2  -2 1212.81 436.068   2
  -4   2  -3 5391.21 927.343   2
  -4   2  -3 5550.00 761.340   4
  -4   2  -4 1749.87 589.187   2
   4  -2   4 1428.80 322.517   9
   4  -2   5 19745.5 1271.46   9
  -4   2  -5 18111.3 1770.56   2
   4  -2   6 15036.2 1212.79   9
  -4   2  -6 14414.7 1617.38   2
  -4   2  -7 7163.19 1136.84   2
  -4   2  -8 9405.67 1343.89   2
  -4   2  -8 9505.40 1391.17   3
  -4   2  -9 8091.93 1323.72   7
  -4   2  -9 8340.41 1349.53   2
  -4   2  -9 7350.69 1236.39   3
   4  -2  10 9662.66 904.541   6
  -4   2 -10 10813.4 1510.29   3
  -4   2 -10 10255.7 1516.53   2
  -4   2 -10 10904.8 1630.83   7
  -4   2 -11 430.405 363.132   7
  -4   2 -11 720.593 463.665   2
  -4   2 -11 922.292 455.020   3
   4  -2  11 1101.35 317.056   6
   4  -2  12 1061.00 294.798   6
  -4   2 -12 458.208 382.023   2
  -4   2 -12 414.497 311.906   3
  -4   2 -12 1891.44 576.166   9
  -4   2 -12 1003.04 617.946   7
  -4   2 -12 560.929 342.724   5
  -4   2 -13 2567.41 859.458   7
  -4   2 -13 3008.81 870.867   2
  -4   2 -13 3593.20 900.410   3
   4  -2  13 2703.95 537.394   6
  -4   2 -13 2152.65 693.495   9
  -4   2 -13 1723.04 702.961   5
  -4   2 -14 1227.30 699.931   7
  -4   2 -14 166.980 265.530   2
  -4   2 -14 1164.91 508.992   3
  -4   2 -14 957.440 466.577   9
  -4   2 -14 57.7748 321.231   5
  -4   2 -15 316.770 234.006   7
  -4   2 -15-402.971 445.932   2
  -4   2 -15 490.204 202.292   3
  -4   2 -15 714.017 445.786   9
  -4   2 -15 862.062 514.112   5
  -4   2 -16-337.707 479.678   7
  -4   2 -16 369.247 357.653   2
  -4   2 -16-18.1593 315.846   9
  -4   2 -16 704.425 497.468   5
  -4   2 -17 259.128 212.370   7
  -4   2 -17 682.833 374.631   2
  -4   2 -17 1002.03 574.169   9
  -4   2 -17 448.230 317.962   5
  -4   2 -18-746.150 598.352   7
  -4   2 -19-529.746 517.535   7
   4  -1 -21 620.847 619.161   4
   4  -1 -20 349.533 713.289   4
   4  -1 -19 34.1547 347.750   4
   4  -1 -19-1001.50 678.256   9
   4  -1 -18 576.650 497.388   4
  -4   1  18 250.669 335.220   6
   4  -1 -17 212.260 355.547   4
  -4   1  17 1208.42 641.416   6
  -4   1  16 788.891 514.549   6
   4  -1 -16-446.734 650.930   4
   4  -1 -15 1439.47 742.506   4
  -4   1  15 373.064 236.415   6
   4  -1 -14-547.178 458.328   4
  -4   1  14 26.5622 215.298   6
   4  -1 -13 717.599 539.032   4
  -4   1  13 55.7431 162.435   6
  -4   1  13 426.368 198.913   8
   4  -1 -12 10688.0 1816.27   4
  -4   1  12 11033.5 1730.02   6
  -4   1  12 9073.78 928.827   8
   4  -1 -11 5773.24 1313.26   4
  -4   1  11 5656.54 1210.33   6
   4  -1 -11 5332.73 728.665   2
  -4   1  11 6100.48 776.616   8
   4  -1 -10-138.284 237.811   4
  -4   1  10-320.108 257.242   6
   4  -1 -10-65.2724 91.5249   2
  -4   1  10-26.6147 115.173   8
  -4   1   9 16123.9 1949.20   6
   4  -1  -9 14440.1 1229.71   2
  -4   1   9 15137.8 1272.52   8
   4  -1  -9 14283.3 1901.70   4
  -4   1   8 265.198 329.086   6
  -4   1   8 328.803 190.097   8
   4  -1  -7 142.073 281.277   4
  -4   1   7 17.3563 199.627   6
  -4   1   7-5.60040 116.785   8
   4  -1  -7 481.193 211.716   2
  -4   1   6 35596.7 2659.18   6
   4  -1  -6 29854.7 1808.31   2
  -4   1   6 29994.6 1878.84   8
   4  -1  -6 28406.3 2383.08   4
  -4   1   5 30480.0 2366.80   6
   4  -1  -5 23756.5 1623.78   2
  -4   1   5 28796.1 1875.21   8
   4  -1  -5 26012.6 2165.71   4
   4  -1  -4 3578.00 644.488   2
   4  -1  -4 2677.54 668.498   4
  -4   1   4 2832.06 587.942   3
  -4   1   4 4187.29 681.970   2
  -4   1   3 19051.0 1593.35   3
  -4   1   3 22080.0 1600.82   2
   4  -1  -3 20572.8 1535.91   2
   4  -1  -3 19454.6 1740.55   4
   4  -1  -2 691.155 345.429   4
   4  -1  -2 692.292 307.267   2
  -4   1   2 538.683 269.415   3
  -4   1   2 976.382 288.723   2
  -4   1   1 3819.87 743.458   3
  -4   1   1 4861.34 814.077   2
   4  -1  -1 4190.70 752.521   4
  -4   1   0 1460.07 480.890   2
  -4   1   0 940.605 370.524   4
  -4   1   0 1205.55 473.533   3
   4  -1   0 1171.57 385.985   4
  -4   1  -1 886.767 332.379   2
  -4   1  -1 578.034 288.072   3
  -4   1  -1 1011.58 347.468   4
  -4   1  -2 20259.3 1767.89   3
  -4   1  -2 20184.5 1699.75   2
  -4   1  -2 21966.3 1612.82   4
   4  -1   2 20742.3 1528.81   7
  -4   1  -3 20305.8 1819.17   3
  -4   1  -3 23444.1 1913.81   2
   4  -1   3 22298.0 1648.06   7
  -4   1  -4 6266.08 995.490   2
  -4   1  -4 5487.21 987.292   3
   4  -1   4 5870.39 713.744   9
  -4   1  -5 40279.4 2642.81   3
   4  -1   5 37957.2 1923.47   9
  -4   1  -5 40940.5 2612.70   2
  -4   1  -5 37330.7 2391.40   7
  -4   1  -6 418.248 278.523   2
  -4   1  -6 343.322 244.854   3
  -4   1  -7 9881.66 1343.18   3
  -4   1  -7 9381.01 1350.74   2
  -4   1  -8-64.0825 229.958   7
  -4   1  -8-74.3614 331.068   2
  -4   1  -8 10.8158 145.381   3
  -4   1  -8-129.094 292.976   5
  -4   1  -9 1281.83 540.003   7
  -4   1  -9 3190.88 817.020   2
  -4   1  -9 1921.36 611.976   3
  -4   1  -9 2580.59 727.249   5
  -4   1 -10 3132.66 867.560   7
  -4   1 -10 4063.32 962.585   2
  -4   1 -10 3175.34 811.088   3
   4  -1  10 2510.31 508.738   6
  -4   1 -10 2330.91 743.131   5
  -4   1 -11 410.235 303.750   7
  -4   1 -11 96.5044 222.664   2
   4  -1  11 206.095 199.590   6
  -4   1 -11-334.041 364.730   5
  -4   1 -12 2003.42 778.563   7
  -4   1 -12 2240.14 763.135   5
  -4   1 -12 1821.25 617.386   2
  -4   1 -12 1920.16 632.763   3
   4  -1  12 2040.75 491.529   6
  -4   1 -13 9101.15 1709.69   7
   4  -1  13 6994.30 936.499   6
  -4   1 -13 7638.24 1426.71   2
  -4   1 -13 9231.87 1414.77   3
  -4   1 -13 6767.17 1358.44   5
  -4   1 -14 131.763 211.885   7
  -4   1 -14 249.025 288.689   2
  -4   1 -14 58.6059 243.900   3
  -4   1 -14 413.889 342.401   5
   4  -1  14 92.2466 148.073   6
  -4   1 -15 761.617 586.619   7
  -4   1 -15 1906.09 764.401   2
  -4   1 -15 693.890 471.033   5
  -4   1 -16-54.2851 256.968   7
  -4   1 -16-91.9324 192.299   2
  -4   1 -16-234.566 302.139   5
  -4   1 -17 350.073 340.191   7
  -4   1 -17 827.393 581.312   5
  -4   1 -18 609.627 625.365   7
  -4   1 -18-174.635 273.566   5
  -4   1 -19 334.877 581.301   7
  -4   1 -19 4.34159 428.946   5
   4   0 -21-532.264 636.461   4
   4   0 -20 2004.17 1117.61   4
   4   0 -19 529.212 661.736   4
   4   0 -18 629.019 715.950   4
   4   0 -17 2539.29 1075.61   4
  -4   0  16 1670.00 732.542   6
   4   0 -16 2533.51 1001.09   4
   4   0 -15 654.238 684.252   4
  -4   0  15 60.6384 338.238   6
  -4   0  14 912.689 742.544   6
   4   0 -14 454.417 323.997   4
   4   0 -13 335.785 252.559   4
  -4   0  13 818.528 497.616   6
  -4   0  13 1053.47 360.806   8
   4   0 -12 5191.71 1271.34   4
  -4   0  12 5736.55 1233.23   6
  -4   0  12 4290.28 711.668   8
   4   0 -11 1985.10 750.706   4
  -4   0  11 2835.61 839.880   6
  -4   0  11 3767.25 654.126   8
  -4   0  10 6851.44 1255.38   6
   4   0 -10 7644.73 1374.69   4
   4   0 -10 6700.29 876.359   3
   4   0 -10 7099.38 934.829   2
  -4   0  10 8369.57 982.656   8
  -4   0   9 42.9501 147.188   6
   4   0  -9-35.0864 275.789   4
   4   0  -9 184.889 164.172   3
   4   0  -9 130.636 91.2175   2
  -4   0   9 78.4568 104.898   8
   4   0  -8 4635.90 1002.15   4
  -4   0   8 3197.51 633.312   8
   4   0  -8 4296.94 720.295   2
   4   0  -8 5176.35 799.376   3
   4   0  -7 13412.9 1390.59   3
   4   0  -7 11870.9 1208.48   2
   4   0  -7 9916.94 1433.70   4
   4   0  -6 126.526 193.766   4
   4   0  -6 172.265 189.851   3
   4   0  -6 61.3991 77.6725   2
  -4   0   6 139.628 184.905   8
   4   0  -5 4447.40 886.952   4
   4   0  -5 5782.74 880.226   3
   4   0  -5 5017.96 774.620   2
  -4   0   5 4296.50 771.153   8
   4   0  -4 2350.82 649.263   4
   4   0  -4 1955.07 535.054   3
   4   0  -4 1328.50 405.497   2
  -4   0   4 1490.24 419.939   8
   4   0  -3 1623.92 484.648   3
  -4   0   3 897.786 331.527   2
   4   0  -3 1253.29 405.203   2
   4   0  -3 762.919 320.444   4
  -4   0   2 10700.9 1219.75   3
  -4   0   2 10264.2 1148.50   2
   4   0  -2 9134.33 1152.68   4
  -4   0   1 2411.00 578.359   2
  -4   0   1 2000.98 540.467   3
  -4   0   0 3262.24 700.432   3
  -4   0   0 2886.79 674.952   2
  -4   0  -1 180.766 249.766   3
  -4   0  -1 41.5800 120.183   4
  -4   0  -1 224.202 319.279   2
   4   0   2 89.8496 129.895   7
  -4   0  -2-94.7201 88.9661   3
  -4   0  -2-220.305 301.030   2
  -4   0  -3 20421.7 1808.86   3
  -4   0  -3 19289.3 1741.91   2
   4   0   3 21603.0 1581.01   7
  -4   0  -4 7693.91 1148.85   3
  -4   0  -4 8537.76 1202.17   2
  -4   0  -4 8712.01 1087.89   7
  -4   0  -5 16489.4 1671.50   3
  -4   0  -5 16735.7 1665.79   2
  -4   0  -5 16144.1 1532.99   7
  -4   0  -6 9286.86 1276.47   3
  -4   0  -6 11063.9 1405.17   2
  -4   0  -7 250.283 119.202   2
  -4   0  -7 343.822 221.491   3
  -4   0  -7 276.307 109.347   5
  -4   0  -8 514.973 343.213   7
  -4   0  -8 564.372 304.680   2
  -4   0  -8-21.8659 177.607   5
  -4   0  -8 350.331 263.224   3
  -4   0  -9 5078.48 1026.54   2
   4   0   9 6384.89 846.675   6
  -4   0  -9 6500.66 1114.58   3
  -4   0  -9 4072.47 967.724   7
  -4   0  -9 4694.36 1008.58   5
   4   0  10 633.221 289.085   6
  -4   0 -10 330.039 334.173   7
  -4   0 -10-37.5564 249.521   5
  -4   0 -10 1063.56 508.799   2
  -4   0 -10 1132.84 448.287   3
  -4   0 -11 76.8907 215.964   2
  -4   0 -11 8.18457 142.213   3
   4   0  11 176.025 181.910   6
  -4   0 -11 191.719 277.726   5
  -4   0 -12 9092.08 1615.18   7
  -4   0 -12 7340.77 1309.88   2
   4   0  12 7397.28 999.932   6
  -4   0 -12 9611.88 1423.23   3
  -4   0 -12 8585.10 1544.19   5
  -4   0 -13-170.828 338.955   2
   4   0  13-112.553 152.803   6
  -4   0 -13-131.844 257.878   5
  -4   0 -13-299.215 284.188   7
  -4   0 -14 297.741 343.889   7
  -4   0 -14 265.994 296.705   2
   4   0  14 350.642 290.991   6
  -4   0 -14-24.8512 252.301   5
  -4   0 -15 4219.96 1245.83   7
  -4   0 -15 3708.53 1007.52   2
  -4   0 -15 2912.48 970.152   5
  -4   0 -16 1351.17 749.071   7
  -4   0 -16 1073.77 529.887   2
  -4   0 -16 1012.23 616.791   5
  -4   0 -17 377.518 531.663   7
  -4   0 -17 438.961 415.580   5
  -4   0 -18-326.868 405.238   7
  -4   0 -18 416.037 348.563   5
  -4   0 -19-539.415 547.006   7
  -4   0 -19 319.762 485.654   5
   4   1 -22 139.433 347.341   4
   4   1 -21 348.696 504.758   4
   4   1 -20 778.115 640.941   4
   4   1 -19-192.600 560.607   4
   4   1 -18 300.808 292.724   4
   4   1 -17 137.712 309.364   4
   4   1 -16-77.0706 224.366   4
   4   1 -15-130.691 341.767   4
   4   1 -14 325.611 297.640   4
  -4  -1  14 764.880 348.589   8
   4   1 -13 1742.85 692.875   4
  -4  -1  13 2505.60 578.131   8
   4   1 -12 1305.12 598.727   4
  -4  -1  12 1488.71 446.280   8
   4   1 -11 409.278 349.411   4
   4   1 -11 314.193 210.318   3
  -4  -1  11 290.451 187.036   8
   4   1 -10 774.370 412.280   4
   4   1 -10 567.814 304.074   3
  -4  -1  10 1395.55 438.575   8
   4   1  -9-109.499 167.472   4
   4   1  -9-64.7823 113.138   3
  -4  -1   9 127.643 109.914   8
   4   1  -8 835.346 439.675   4
   4   1  -8 797.418 286.734   3
  -4  -1   8 538.943 265.950   8
   4   1  -7 6239.37 1143.82   4
  -4  -1   7 8194.34 1041.93   8
   4   1  -6 902.225 428.818   4
  -4  -1   6 1411.53 452.590   8
  -4  -1   5 3601.65 736.959   8
   4   1  -5 2833.93 713.457   4
  -4  -1   4 535.417 328.602   8
   4   1  -4 390.737 282.314   4
   4   1  -3 1974.35 575.028   4
  -4  -1   3 2846.79 624.029   8
  -4  -1   2 57.2565 181.517   2
  -4  -1   1 42.1933 224.752   2
  -4  -1   0 4171.99 790.974   2
   4   1   0 3499.72 685.884   5
   4   1   1 782.630 266.794   7
  -4  -1  -1 811.390 415.586   2
   4   1   2 2652.84 509.518   7
  -4  -1  -2 2439.52 585.469   2
   4   1   3 844.348 286.003   7
  -4  -1  -3 992.011 357.398   7
  -4  -1  -3 1111.40 452.794   2
  -4  -1  -4 159.058 193.075   3
  -4  -1  -4 350.393 268.429   7
  -4  -1  -4 133.061 195.019   2
  -4  -1  -5 8506.83 1207.31   3
  -4  -1  -5 8471.99 1234.04   2
  -4  -1  -5 8324.29 1089.72   7
  -4  -1  -6 5683.29 988.665   3
  -4  -1  -6 6213.06 1075.20   2
  -4  -1  -7 1108.12 445.220   2
  -4  -1  -7 595.000 373.841   5
  -4  -1  -8 1821.39 628.332   2
  -4  -1  -8 1179.86 507.894   7
  -4  -1  -8 1257.48 597.293   5
  -4  -1  -9 1435.42 581.409   7
  -4  -1  -9 1880.84 647.855   2
  -4  -1  -9 1363.39 604.551   5
   4   1   9 1069.68 402.622   6
  -4  -1 -10 3.36591 205.476   7
  -4  -1 -10 759.383 345.298   2
  -4  -1 -10-39.3283 279.146   5
   4   1  10 534.015 294.184   6
  -4  -1 -11 6407.50 1292.75   7
   4   1  11 5081.87 876.141   6
  -4  -1 -11 5061.55 1182.80   5
  -4  -1 -11 6476.49 1218.68   2
  -4  -1 -12 9597.16 1537.38   2
  -4  -1 -12 7494.37 1488.44   7
   4   1  12 7341.02 1094.36   6
  -4  -1 -12 9486.01 1666.13   5
  -4  -1 -13 1142.92 584.012   7
   4   1  13 374.542 261.464   6
  -4  -1 -13 710.055 532.988   2
  -4  -1 -13 1005.27 545.220   5
  -4  -1 -14 639.596 515.748   7
   4   1  14 437.650 285.876   6
  -4  -1 -14 10.0360 220.359   5
  -4  -1 -14 347.937 394.904   2
  -4  -1 -15 3738.11 1174.36   7
   4   1  15 3131.53 749.757   6
  -4  -1 -15 3350.12 1054.53   5
  -4  -1 -15 3502.84 964.996   2
  -4  -1 -16 2855.35 1141.26   7
  -4  -1 -16 1454.53 734.096   5
  -4  -1 -17 1207.77 733.160   7
  -4  -1 -17 1223.57 705.607   5
  -4  -1 -18 214.310 356.108   7
  -4  -1 -18 934.672 629.184   5
  -4  -1 -19-1399.23 788.347   5
   4   2 -22 495.846 636.341   4
   4   2 -21 680.716 332.267   4
   4   2 -20 74.6293 361.765   4
   4   2 -19-173.487 234.878   4
   4   2 -18-67.3212 476.141   4
   4   2 -17 80.4197 239.735   4
   4   2 -16 457.825 459.247   4
   4   2 -15 3574.98 1151.95   4
  -4  -2  15 3100.78 689.941   8
  -4  -2  14 3529.47 737.812   8
   4   2 -14 1345.34 697.701   4
   4   2 -13 5801.02 1364.47   4
  -4  -2  13 6421.96 983.125   8
   4   2 -12 419.897 436.471   4
  -4  -2  12 690.020 277.993   8
   4   2 -11 78.7300 174.369   4
  -4  -2  11 511.050 335.539   8
   4   2 -10 606.166 376.395   4
  -4  -2  10 94.0556 150.431   8
   4   2  -9 2090.89 668.615   4
  -4  -2   9 2019.01 541.296   8
   4   2  -8-51.2562 277.857   4
  -4  -2   8-225.325 232.242   8
   4   2  -7 410.388 322.119   4
  -4  -2   7 741.676 292.374   8
  -4  -2   6 580.286 285.046   8
   4   2  -6 444.723 313.814   4
  -4  -2   5 290.810 309.095   8
   4   2  -5-182.004 209.470   4
  -4  -2   4 6637.64 996.899   8
  -4  -2   3 6465.47 960.551   8
  -4  -2   2 11193.4 1284.04   8
   4   2  -2 12565.3 1228.93   5
   4   2  -1 357.781 163.327   5
  -4  -2   1 1138.27 464.536   8
  -4  -2   0 6770.15 1031.66   2
   4   2   0 6812.60 677.054   7
  -4  -2  -1 6918.57 1042.92   2
   4   2   1 5956.26 687.771   7
  -4  -2  -2 15579.3 1572.62   2
   4   2   2 13914.4 1124.18   7
  -4  -2  -2 13883.6 1123.45   7
  -4  -2  -3 30122.1 2207.97   2
  -4  -2  -3 27830.4 1711.61   7
  -4  -2  -4 254.958 179.441   7
  -4  -2  -4 171.586 214.106   2
  -4  -2  -5 558.306 300.211   7
  -4  -2  -5 289.215 204.546   2
  -4  -2  -6 10984.7 1398.78   2
  -4  -2  -7 344.358 313.080   5
  -4  -2  -7 240.003 229.262   2
  -4  -2  -8 470.779 352.491   7
   4   2   8 291.471 223.613   6
  -4  -2  -8 229.269 285.397   5
  -4  -2  -8 455.394 448.483   2
  -4  -2  -9 84.8475 183.764   7
   4   2   9-204.906 279.320   6
  -4  -2  -9 205.211 280.513   5
  -4  -2  -9-246.881 207.199   2
   4   2  10 11372.7 1335.62   6
  -4  -2 -10 12345.4 1606.45   2
  -4  -2 -10 10895.6 1728.71   5
  -4  -2 -10 11749.0 1692.67   7
  -4  -2 -11 5586.37 1261.62   7
   4   2  11 5110.47 929.692   6
  -4  -2 -11 6203.01 1347.13   5
  -4  -2 -11 5702.51 1120.96   2
  -4  -2 -12-403.538 291.996   7
   4   2  12-180.794 183.159   6
  -4  -2 -12-25.5741 292.319   5
  -4  -2 -12-166.457 283.321   2
  -4  -2 -13 142.532 252.082   7
   4   2  13 115.502 206.528   6
  -4  -2 -13 244.481 261.389   5
  -4  -2 -13 54.6797 247.582   2
  -4  -2 -14 2004.05 837.881   7
   4   2  14 1058.47 456.200   6
  -4  -2 -14 932.661 500.951   2
  -4  -2 -14 326.834 371.569   5
  -4  -2 -15 5499.45 1474.85   7
   4   2  15 3199.88 845.653   6
  -4  -2 -15 2760.36 985.352   5
  -4  -2 -16 125.068 375.794   7
  -4  -2 -16-143.669 268.597   5
  -4  -2 -17-195.567 338.076   7
  -4  -2 -17 175.859 293.943   5
  -4  -2 -18-296.048 514.934   7
  -4  -2 -18 88.7376 230.206   5
  -4  -2 -19-154.883 304.258   5
   4   3 -21 1124.61 894.587   4
   4   3 -21 90.0043 253.819   7
   4   3 -20 53.2863 234.323   4
   4   3 -19-1023.20 674.022   4
   4   3 -18 569.516 473.950   4
   4   3 -17-81.8615 305.124   4
   4   3 -16 798.298 453.336   4
  -4  -3  16 154.023 168.061   8
   4   3 -15 90.4541 198.644   4
  -4  -3  15 164.937 194.096   8
   4   3 -14 1402.40 655.039   4
  -4  -3  14 1457.10 540.353   8
   4   3 -13 1236.99 646.080   4
  -4  -3  13 1171.02 458.919   8
   4   3 -12 2967.89 929.574   4
  -4  -3  12 2802.39 671.619   8
   4   3 -11-125.700 187.504   4
  -4  -3  11 210.051 176.792   8
  -4  -3  10 5465.96 948.391   8
   4   3 -10 4556.24 1050.53   4
   4   3  -9 2809.44 773.779   4
  -4  -3   9 3398.17 735.373   8
   4   3  -8-51.9961 194.070   4
  -4  -3   8 49.4713 168.445   8
  -4  -3   7 3816.41 750.392   8
   4   3  -7 3985.78 898.744   4
  -4  -3   6 623.327 309.405   8
   4   3  -6 1315.40 543.186   4
  -4  -3   5 1192.47 437.413   8
  -4  -3   4 22284.9 1882.34   8
   4   3  -4 22073.3 1571.11   5
  -4  -3   3 11131.9 1316.72   8
   4   3  -3 10383.3 1124.24   5
   4   3  -2 790.310 324.342   5
  -4  -3   2 795.163 357.073   8
  -4  -3   1 67626.8 3301.20   8
   4   3  -1 66457.0 1778.25   7
  -4  -3   0 10119.6 1246.35   8
   4   3   0 10488.4 773.541   7
  -4  -3  -1 24379.4 1966.29   8
  -4  -3  -2 51396.7 2911.01   2
  -4  -3  -2 52490.8 2911.09   8
  -4  -3  -2 53320.6 2157.35   7
  -4  -3  -3 216.109 126.228   7
  -4  -3  -3 116.170 173.411   2
  -4  -3  -4 2836.29 578.300   7
  -4  -3  -4 2643.87 704.488   2
  -4  -3  -5 18.1321 159.705   7
  -4  -3  -5 263.135 214.407   2
  -4  -3  -6 1652.64 581.135   2
  -4  -3  -7 596.829 281.581   5
  -4  -3  -7 826.819 387.941   2
   4   3   8-50.1076 125.648   6
  -4  -3  -8-32.6505 272.877   5
  -4  -3  -8 62.9720 188.194   2
  -4  -3  -8-118.071 136.499   7
  -4  -3  -9 1915.82 585.545   7
  -4  -3  -9 2023.62 724.087   5
   4   3   9 1438.48 412.871   6
  -4  -3  -9 1630.72 555.985   2
  -4  -3 -10 2214.42 809.557   5
   4   3  10 2858.21 694.661   6
  -4  -3 -10 1972.06 690.598   7
  -4  -3 -10 3165.17 787.198   2
  -4  -3 -11 955.450 557.582   7
  -4  -3 -11 560.340 313.270   5
   4   3  11 473.435 311.220   6
  -4  -3 -11 827.527 433.671   2
  -4  -3 -12 2740.93 969.714   7
   4   3  12 2790.54 733.162   6
  -4  -3 -12 4784.90 1393.24   5
  -4  -3 -12 3164.00 888.058   2
  -4  -3 -13 3097.72 1023.31   7
   4   3  13 3845.87 900.384   6
  -4  -3 -13 2648.08 973.396   5
  -4  -3 -13 3607.42 897.111   2
   4   3  14 718.611 327.107   6
  -4  -3 -14 368.419 393.619   5
  -4  -3 -14 442.336 337.271   7
  -4  -3 -15 800.111 628.348   7
   4   3  15 381.144 355.950   6
  -4  -3 -15 1217.69 743.603   5
  -4  -3 -16 246.947 409.716   7
  -4  -3 -16 590.005 527.609   5
  -4  -3 -17 1292.40 805.001   7
  -4  -3 -17-56.8138 202.790   5
  -4  -3 -18 246.743 395.421   7
  -4  -3 -18-474.783 485.481   5
  -4  -3 -19 261.257 572.303   5
   4   4 -21-257.989 359.807   7
   4   4 -21 445.193 375.283   4
   4   4 -20 407.005 349.930   4
   4   4 -20 489.086 518.603   7
   4   4 -19 1221.37 705.571   4
   4   4 -19 35.7798 219.653   7
   4   4 -18 624.556 596.498   4
   4   4 -17 368.507 418.153   4
  -4  -4  17 877.756 454.418   8
  -4  -4  16 351.850 242.068   8
   4   4 -16 1697.98 786.756   4
  -4  -4  15 1515.99 524.014   8
   4   4 -15 1916.30 785.777   4
  -4  -4  14 7109.01 1131.33   8
   4   4 -14 6252.89 1371.97   4
  -4  -4  13 13908.1 1576.03   8
   4   4 -13 10609.4 1753.62   4
  -4  -4  12 8767.88 1234.58   8
   4   4 -12 7949.93 1468.04   4
  -4  -4  11 2969.11 733.590   8
   4   4 -11 2756.23 825.783   4
  -4  -4  10 3981.82 845.966   8
   4   4 -10 2555.25 798.417   4
  -4  -4   9 5432.81 959.124   8
   4   4  -9 6169.90 1184.70   4
  -4  -4   8 2749.60 709.229   8
   4   4  -8 3165.84 828.629   4
  -4  -4   7 1736.62 487.259   8
   4   4  -6 6467.12 811.106   5
  -4  -4   6 5786.34 974.857   8
  -4  -4   5 2853.36 674.311   8
   4   4  -5 2172.90 472.983   5
   4   4  -4 2212.12 521.411   5
  -4  -4   4 3068.79 825.391   8
   4   4  -3 239.953 182.423   5
  -4  -4   3-286.064 293.524   8
  -4  -4   2 61455.1 3177.84   8
   4   4  -2 57596.5 2720.67   5
  -4  -4   1 4662.59 828.325   5
  -4  -4   1 5371.50 968.042   8
  -4  -4   0 1961.16 613.120   5
  -4  -4   0 2116.00 635.918   8
  -4  -4  -1 3653.92 767.112   8
  -4  -4  -1 3769.90 510.988   7
  -4  -4  -2 6540.51 755.139   7
  -4  -4  -2 6526.26 1040.31   8
  -4  -4  -3 295.030 157.384   7
  -4  -4  -3-112.908 261.444   8
  -4  -4  -4 765.733 318.735   7
  -4  -4  -4 554.266 318.174   8
  -4  -4  -5 885.652 371.241   7
  -4  -4  -5 537.205 315.343   2
  -4  -4  -5 432.482 260.788   8
  -4  -4  -6-171.695 268.653   2
  -4  -4  -6 8.86958 176.034   8
   4   4   7 391.193 276.363   6
  -4  -4  -7 556.678 349.163   5
  -4  -4  -7 29.2891 148.203   2
  -4  -4  -7 126.253 92.1539   8
  -4  -4  -8 525.078 315.902   2
  -4  -4  -8 85.2398 174.474   5
   4   4   8 578.684 322.017   6
  -4  -4  -8 534.008 336.035   7
   4   4   9 1226.21 517.184   6
  -4  -4  -9 494.139 350.327   2
  -4  -4  -9 946.129 602.559   5
  -4  -4  -9 395.784 172.681   7
   4   4  10 5440.92 1045.74   6
  -4  -4 -10 5784.14 1109.18   2
  -4  -4 -10 6591.40 1434.41   5
  -4  -4 -10 6736.48 1342.70   7
  -4  -4 -11 3672.07 1098.00   5
   4   4  11 2544.95 744.227   6
  -4  -4 -11 2683.79 761.208   2
  -4  -4 -11 3175.18 736.451   8
  -4  -4 -11 2777.12 912.778   7
  -4  -4 -12 6026.94 1443.85   5
   4   4  12 5706.69 1122.36   6
  -4  -4 -12 6754.52 1246.80   2
  -4  -4 -12 8041.60 1584.70   7
  -4  -4 -13 823.948 534.901   7
   4   4  13 692.619 450.914   6
  -4  -4 -13-104.860 340.943   5
  -4  -4 -14 384.597 551.395   7
  -4  -4 -14 168.625 255.101   5
   4   4  14 64.8241 156.772   6
  -4  -4 -15 589.467 472.842   7
   4   4  15 1216.23 568.931   6
  -4  -4 -15 708.765 606.856   5
  -4  -4 -16 391.809 434.770   7
  -4  -4 -16-1325.15 775.995   5
  -4  -4 -17 446.621 589.950   7
  -4  -4 -17-116.715 274.526   5
  -4  -4 -18 194.300 201.890   5
   4   5 -22 870.602 743.962   7
   4   5 -21 642.597 490.022   7
   4   5 -20-53.0902 417.377   4
   4   5 -20-488.710 461.704   7
   4   5 -19-111.414 385.420   4
   4   5 -19 574.223 571.801   7
  -4  -5  18 1666.59 629.587   8
   4   5 -18 2684.17 970.449   4
   4   5 -18 1631.13 771.771   7
  -4  -5  17-425.903 313.702   8
   4   5 -17-188.746 215.080   7
   4   5 -17 57.5094 548.907   4
  -4  -5  16 5059.65 1040.60   8
   4   5 -16 6210.62 1456.96   4
  -4  -5  15 191.619 252.493   8
   4   5 -15 673.319 470.365   4
  -4  -5  14 9182.07 1373.80   8
   4   5 -14 9901.50 1735.11   4
  -4  -5  13 797.526 442.421   8
   4   5 -13 34.7707 290.541   4
  -4  -5  12 2875.86 742.629   8
   4   5 -12 2249.03 791.233   4
  -4  -5  11 4723.90 925.256   8
   4   5 -11 5160.16 1155.60   4
   4   5 -10 3059.10 488.058   5
  -4  -5  10 3161.95 778.640   8
  -4  -5   9 718.974 317.739   8
   4   5  -9 503.494 186.907   5
  -4  -5   8 51.5927 119.087   8
   4   5  -8-53.6260 50.6934   5
   4   5  -7 933.333 299.822   5
  -4  -5   7 366.788 246.891   8
   4   5  -6 684.817 260.477   5
  -4  -5   6 416.186 201.113   8
   4   5  -5 326.200 162.414   5
  -4  -5   5 754.054 475.409   8
  -4  -5   4 372.133 358.206   8
  -4  -5   3 6991.74 1124.67   8
  -4  -5   2 2.33247 144.365   5
  -4  -5   2-473.698 407.725   8
  -4  -5   1 9352.08 1256.16   8
  -4  -5   1 8086.90 1145.85   5
  -4  -5   0 5356.07 938.658   8
  -4  -5  -1 239.713 133.013   7
  -4  -5  -1 127.940 315.710   8
  -4  -5  -2 271.727 178.054   7
  -4  -5  -2 313.137 200.159   8
  -4  -5  -3 2224.02 495.278   7
  -4  -5  -3 2962.53 683.157   8
  -4  -5  -4 2174.60 618.977   8
  -4  -5  -4 1469.03 408.029   7
  -4  -5  -5 1579.10 556.704   8
   4   5   6 1344.31 463.341   6
  -4  -5  -6 1524.33 605.942   5
  -4  -5  -6 2048.64 603.979   8
   4   5   7 41.6594 230.332   6
  -4  -5  -7-425.931 274.148   5
  -4  -5  -7-37.3078 124.381   8
  -4  -5  -7 369.428 310.725   7
  -4  -5  -8 4982.64 1241.01   5
   4   5   8 2772.04 742.478   6
  -4  -5  -8 3268.17 755.437   8
  -4  -5  -8 2911.00 821.210   7
   4   5   9 4315.30 972.310   6
  -4  -5  -9 5519.11 1320.77   5
  -4  -5  -9 6061.90 1025.07   8
  -4  -5  -9 4125.13 987.607   7
   4   5  10 988.230 446.077   6
  -4  -5 -10 423.554 341.704   5
  -4  -5 -10 1171.89 436.709   8
  -4  -5 -10 1714.54 729.710   7
   4   5  11 253.603 285.556   6
  -4  -5 -11 1225.79 648.895   5
  -4  -5 -11 219.257 405.478   7
  -4  -5 -12 102.841 208.981   5
   4   5  12 620.182 369.734   6
  -4  -5 -12 735.679 371.143   7
   4   5  13-408.143 333.677   6
  -4  -5 -13 379.266 408.270   5
  -4  -5 -13-482.947 428.399   7
  -4  -5 -14 465.252 388.363   5
   4   5  14-37.2647 146.768   6
  -4  -5 -15 56.8432 218.515   5
   4   5  15 645.874 512.898   6
  -4  -5 -15 287.128 375.875   7
  -4  -5 -16 845.661 571.611   7
  -4  -5 -16 1954.71 943.666   5
   4   5  16 1678.96 734.626   6
  -4  -5 -17-531.903 522.420   7
  -4  -5 -17-1.38985 223.285   5
   4   6 -22-811.041 622.597   7
   4   6 -21 309.732 447.383   7
   4   6 -20-378.631 418.459   4
   4   6 -20 1867.84 922.290   7
   4   6 -19 2372.38 937.077   4
   4   6 -19 2499.84 952.579   7
  -4  -6  18-18.1776 112.775   8
   4   6 -18-12.1595 223.908   7
   4   6 -18 585.948 575.603   4
  -4  -6  17 389.105 327.208   8
   4   6 -17 938.644 658.734   4
   4   6 -17 1553.36 684.452   7
   4   6 -16 531.700 509.584   7
  -4  -6  16 895.009 424.118   8
   4   6 -16 911.446 513.053   4
  -4  -6  15 1255.36 564.936   8
   4   6 -15 757.591 382.155   4
   4   6 -15 783.622 589.577   7
  -4  -6  14 5836.31 1145.72   8
   4   6 -14 6399.37 1389.61   4
   4   6 -14 6314.45 1195.04   7
  -4  -6  13 2807.99 802.602   8
   4   6 -13 2936.23 796.112   7
  -4  -6  12 1156.53 442.895   8
   4   6 -12 1992.41 279.673   5
   4   6 -12 2328.57 676.916   7
   4   6 -11 1856.63 298.865   5
  -4  -6  11 2854.96 798.838   8
   4   6 -11 2114.98 604.031   7
  -4  -6  10 2107.62 679.223   8
   4   6 -10 2134.70 351.370   5
   4   6 -10 2038.44 517.117   7
  -4  -6   9 1636.82 596.055   8
   4   6  -9 683.504 282.526   7
  -4  -6   8 786.198 454.996   8
   4   6  -8 412.533 196.585   7
  -4  -6   7 605.473 368.459   8
   4   6  -7 1227.60 290.564   7
  -4  -6   6-215.647 169.776   8
   4   6  -6-26.7900 69.3922   7
  -4  -6   5 3373.79 817.429   8
  -4  -6   4 1544.04 624.981   8
  -4  -6   4 789.280 312.467   5
  -4  -6   3 6727.32 1137.08   8
  -4  -6   3 7030.42 1005.88   5
  -4  -6   2 731.993 372.490   5
  -4  -6   2-54.1941 269.205   8
  -4  -6   1 477.943 394.517   8
  -4  -6   0 50.9285 42.7954   7
  -4  -6   0 246.232 211.254   8
  -4  -6  -1 580.274 198.666   7
  -4  -6  -1-49.8173 154.982   8
  -4  -6  -2 53.6618 96.0850   7
  -4  -6  -2-248.564 265.434   8
  -4  -6  -3 711.505 415.990   5
  -4  -6  -3 1189.55 454.348   8
  -4  -6  -3 1032.65 346.357   7
  -4  -6  -4 220.662 318.906   5
  -4  -6  -4 4.31805 164.150   8
  -4  -6  -4 386.069 224.880   7
  -4  -6  -5 634.952 375.358   5
  -4  -6  -5 1116.47 439.880   8
   4   6   6 57.4566 125.684   6
  -4  -6  -6-114.084 173.165   5
  -4  -6  -6 88.1267 169.054   8
   4   6   7 747.774 330.007   6
  -4  -6  -7 1087.97 593.046   5
  -4  -6  -7 750.055 322.160   8
  -4  -6  -7 241.498 208.810   7
   4   6   8 2376.17 706.583   6
  -4  -6  -8 798.852 474.489   5
  -4  -6  -8 1405.38 525.639   8
  -4  -6  -8 1960.82 618.828   7
  -4  -6  -9 238.535 255.949   8
   4   6   9-60.4683 232.275   6
  -4  -6  -9 10.9360 362.032   5
  -4  -6  -9-126.290 239.101   7
   4   6  10-239.795 130.737   6
  -4  -6 -10-1100.69 559.269   7
   4   6  11 72.4234 346.569   6
  -4  -6 -11 346.635 342.671   5
  -4  -6 -11 174.778 258.924   7
   4   6  12 844.551 455.447   6
  -4  -6 -12 101.019 221.081   7
   4   6  13 1014.79 548.836   6
  -4  -6 -13 404.949 273.543   7
   4   6  14-65.2205 177.829   6
  -4  -6 -14-551.934 481.523   7
   4   6  15 1128.83 658.107   6
  -4  -6 -15 1752.86 949.821   5
  -4  -6 -15 800.742 602.280   7
  -4  -6 -16 69.6534 229.346   7
  -4  -6 -16 12.5297 176.457   5
   4   6  16-213.774 293.457   6
   4   7 -22 549.831 593.941   7
   4   7 -21-148.235 268.164   7
   4   7 -20 1926.23 861.799   7
   4   7 -19 266.392 298.152   7
  -4  -7  19 177.134 348.244   8
   4   7 -19 40.0870 345.871   4
   4   7 -18-404.015 379.748   7
  -4  -7  18 305.923 299.087   8
  -4  -7  17 113.801 244.082   8
   4   7 -17 107.831 194.861   7
  -4  -7  16 2141.61 760.443   8
   4   7 -16 1298.09 562.487   7
  -4  -7  15 1964.69 704.469   8
   4   7 -15 1464.40 541.010   7
  -4  -7  14 2219.64 726.445   8
   4   7 -14 3411.00 877.358   7
  -4  -7  13-316.297 253.523   8
   4   7 -13-4.33307 130.329   7
  -4  -7  12 3492.81 930.473   8
   4   7 -12 3003.55 716.482   7
   4   7 -11 2122.21 575.399   7
  -4  -7  11 2042.30 696.059   8
   4   7 -10 3073.83 635.081   7
  -4  -7  10 4092.52 932.412   8
   4   7  -9 598.428 230.361   7
  -4  -7   9 564.503 316.311   8
   4   7  -8-77.0260 107.634   7
  -4  -7   8-61.6438 297.624   8
   4   7  -7 1129.89 255.690   7
  -4  -7   7 797.920 219.643   8
  -4  -7   6 5184.79 1011.82   8
  -4  -7   5 872.564 486.700   8
  -4  -7   4 1812.16 587.576   8
  -4  -7   4 1342.18 449.482   5
  -4  -7   3 1499.74 594.087   8
  -4  -7   3 986.687 394.318   5
  -4  -7   2 5108.62 981.355   8
  -4  -7   1 13012.1 1613.80   8
  -4  -7   0 3992.75 863.600   8
  -4  -7   0 3668.04 436.133   7
  -4  -7  -1 2863.92 766.797   5
  -4  -7  -1 2509.45 718.387   8
  -4  -7  -1 2974.94 470.837   7
  -4  -7  -2 404.750 252.865   8
  -4  -7  -2 497.899 334.033   5
  -4  -7  -2 724.505 253.843   7
  -4  -7  -3 800.276 377.874   5
  -4  -7  -3 382.954 204.487   8
  -4  -7  -3 1211.87 410.432   7
  -4  -7  -4 9418.31 1319.78   8
  -4  -7  -4 10319.3 1220.49   7
   4   7   5 319.339 349.166   6
  -4  -7  -5 650.844 373.352   8
   4   7   6 244.365 282.250   6
  -4  -7  -6 416.069 276.878   8
  -4  -7  -6 384.217 308.099   7
   4   7   7 3979.75 965.399   6
  -4  -7  -7 5224.82 955.013   8
  -4  -7  -7 4793.01 1023.42   7
   4   7   8 196.511 222.776   6
  -4  -7  -8-223.169 141.781   8
  -4  -7  -8 190.360 284.129   7
   4   7   9-96.7711 363.992   6
  -4  -7  -9 701.288 355.537   8
  -4  -7  -9 1297.90 710.151   7
   4   7  10-191.831 309.394   6
  -4  -7 -10 325.770 366.354   5
  -4  -7 -10-481.068 388.757   7
   4   7  11 271.304 391.470   6
  -4  -7 -11-414.443 522.648   5
  -4  -7 -11-454.682 411.676   7
   4   7  12 1335.25 646.991   6
  -4  -7 -12 2019.04 948.766   5
  -4  -7 -12 876.784 593.527   7
  -4  -7 -13 2508.43 1085.32   5
   4   7  13 1387.85 664.447   6
  -4  -7 -13 934.755 584.383   7
  -4  -7 -14 1233.31 692.806   5
   4   7  14 955.729 532.982   6
  -4  -7 -14 105.336 147.965   7
   4   7  15-187.273 280.191   6
  -4  -7 -15-148.414 316.323   5
  -4  -7 -15-79.8613 221.582   7
   4   7  16 600.226 592.466   6
  -4  -7 -16 70.4857 277.030   7
   4   8 -21 1090.25 674.315   7
   4   8 -20 377.014 391.236   7
  -4  -8  20 442.868 343.679   8
   4   8 -19 755.757 518.413   7
  -4  -8  19 479.198 416.056   8
   4   8 -18-124.992 230.330   7
  -4  -8  18 167.075 119.912   8
   4   8 -17-203.657 262.208   7
  -4  -8  17 230.677 225.589   8
   4   8 -16 654.219 470.309   7
  -4  -8  16 1405.82 628.244   8
   4   8 -15 1133.84 510.168   7
  -4  -8  15 1340.88 621.452   8
   4   8 -14 372.549 300.297   7
  -4  -8  14 650.505 421.488   8
   4   8 -13-68.7815 116.787   7
  -4  -8  13 119.715 292.823   8
   4   8 -12 3082.53 703.991   7
  -4  -8  12 3990.90 1027.97   8
   4   8 -11 76.6986 161.027   7
  -4  -8  11 170.443 297.255   8
   4   8 -10 1021.06 361.315   7
  -4  -8  10 630.719 403.443   8
   4   8  -9 433.151 228.777   7
  -4  -8   9 688.257 434.788   8
  -4  -8   8 1705.95 641.434   8
  -4  -8   7 5132.48 1043.07   8
  -4  -8   6 2243.41 659.367   8
  -4  -8   5 413.524 286.567   8
  -4  -8   5 274.233 158.412   5
  -4  -8   4 1560.42 610.583   8
  -4  -8   4 373.343 232.853   5
  -4  -8   3 2037.92 719.518   8
  -4  -8   2 244.128 276.080   8
  -4  -8   1 1716.39 552.242   8
  -4  -8   1 1602.38 557.754   5
  -4  -8   1 1232.26 186.096   7
  -4  -8   0 6014.60 1125.55   5
  -4  -8   0 4588.35 983.851   8
  -4  -8   0 5631.80 573.645   7
  -4  -8  -1 4014.98 955.263   5
  -4  -8  -1 4162.13 918.652   8
  -4  -8  -1 4704.21 629.248   7
  -4  -8  -2 4756.92 957.480   8
  -4  -8  -2 2734.19 522.950   7
  -4  -8  -3 3304.89 793.058   8
  -4  -8  -3 3554.98 680.207   7
   4   8   4 14315.9 1760.87   6
  -4  -8  -4 13873.6 1593.32   8
   4   8   5 381.069 360.988   6
  -4  -8  -5 578.732 367.340   8
   4   8   6 13339.9 1756.04   6
  -4  -8  -6 11701.3 1449.19   8
  -4  -8  -7 871.999 387.518   8
   4   8   7 458.504 327.776   6
  -4  -8  -7 305.917 262.850   7
   4   8   8 4558.42 1087.07   6
  -4  -8  -8 3378.82 732.993   8
  -4  -8  -8 3779.93 984.708   7
   4   8   9 117.373 138.007   6
  -4  -8  -9 1173.40 580.810   7
   4   8  10 427.143 441.613   6
  -4  -8 -10 580.937 464.969   7
   4   8  11 1182.79 590.297   6
  -4  -8 -11 1736.49 875.048   5
  -4  -8 -11 839.930 529.687   7
   4   8  12 779.036 513.192   6
  -4  -8 -12 175.528 348.963   5
  -4  -8 -12 56.1818 188.590   7
   4   8  13 628.685 477.055   6
  -4  -8 -13 474.986 491.751   5
  -4  -8 -13 469.923 515.206   7
   4   8  14 250.860 317.480   6
  -4  -8 -14 63.1627 157.891   5
  -4  -8 -14 6.95002 143.753   7
   4   8  15 740.543 507.774   6
  -4  -8 -15 277.410 518.534   7
   4   8  16 190.076 301.368   6
  -4  -9  20 670.816 393.145   8
  -4  -9  19 189.110 235.944   8
   4   9 -18 106.395 206.701   7
  -4  -9  18 303.295 441.546   8
   4   9 -17 502.614 404.498   7
  -4  -9  17 950.913 500.666   8
   4   9 -16 401.741 314.581   7
  -4  -9  16 96.3958 108.515   8
   4   9 -15-437.331 325.059   7
  -4  -9  15-37.5992 313.183   8
   4   9 -14-76.7453 159.203   7
  -4  -9  14-294.564 281.923   8
   4   9 -13 1060.16 466.976   7
  -4  -9  13 2540.92 803.979   8
   4   9 -12 2953.66 664.224   7
  -4  -9  12 2229.91 769.094   8
   4   9 -11 3497.72 672.019   7
  -4  -9  11 3211.01 892.106   8
   4   9 -10 2045.90 488.722   7
  -4  -9  10 1843.70 608.475   8
  -4  -9   9 7253.67 1338.35   8
  -4  -9   8 5781.00 1152.28   8
  -4  -9   7 612.140 414.350   8
  -4  -9   6 88.0017 163.706   5
  -4  -9   6 379.672 286.567   8
  -4  -9   5 1036.04 560.992   8
  -4  -9   5 1081.88 409.552   5
  -4  -9   4 436.111 317.931   8
  -4  -9   3 86.5194 193.715   8
  -4  -9   2 4537.96 938.194   5
  -4  -9   2 4426.40 1020.86   8
  -4  -9   1 16900.6 1893.73   8
  -4  -9   1 18634.2 2006.60   5
  -4  -9   1 15024.5 748.181   7
  -4  -9   0 3893.28 971.955   5
  -4  -9   0 3352.27 843.921   8
  -4  -9   0 3698.52 497.991   7
  -4  -9  -1 27137.6 2351.67   8
  -4  -9  -2 10613.1 1434.48   8
   4   9   2 11480.7 1592.12   6
   4   9   3 7970.36 1397.96   6
  -4  -9  -3 7633.10 1228.44   8
   4   9   4 949.474 507.373   6
  -4  -9  -4 772.630 374.571   8
   4   9   5 1639.11 622.468   6
  -4  -9  -5 2396.03 648.495   8
   4   9   6 1422.59 658.364   6
  -4  -9  -6 2507.29 642.717   8
   4   9   7 2883.78 843.559   6
  -4  -9  -7 2046.11 588.017   8
   4   9   8 760.820 409.849   6
  -4  -9  -8 864.685 400.576   7
   4   9   9 348.678 287.007   6
  -4  -9  -9 990.534 525.342   7
   4   9  10 949.361 522.676   6
  -4  -9 -10 259.557 291.917   7
   4   9  11 820.182 590.024   6
  -4  -9 -11 13.1785 251.312   7
   4   9  12 857.266 644.405   6
  -4  -9 -12-390.101 452.025   5
  -4  -9 -12-506.514 442.929   7
   4   9  13 59.1780 177.247   6
  -4  -9 -13-1032.56 737.196   5
  -4  -9 -13-607.936 499.404   7
   4   9  14 2207.04 966.812   6
  -4  -9 -14 130.626 260.742   7
   4   9  15 1522.41 939.722   6
  -4 -10  21-202.762 290.973   8
  -4 -10  20 540.492 493.537   8
  -4 -10  19 565.668 334.192   8
  -4 -10  18 19.6146 235.772   8
  -4 -10  17 84.1354 276.411   8
  -4 -10  16 409.317 357.874   8
  -4 -10  15 131.769 307.227   8
   4  10 -14 251.570 230.751   7
  -4 -10  14 592.959 451.391   8
   4  10 -13 566.821 274.997   7
  -4 -10  13 596.642 327.140   8
   4  10 -12 5016.24 846.686   7
  -4 -10  12 5511.23 1268.60   8
  -4 -10  11 2494.33 788.615   8
  -4 -10  10 1676.67 717.792   8
  -4 -10   9 2484.89 782.670   8
  -4 -10   8 10.9032 349.319   8
  -4 -10   7 227.186 230.678   5
  -4 -10   7 295.705 310.003   8
  -4 -10   6 173.338 251.846   8
  -4 -10   5 9468.89 1522.23   8
  -4 -10   4 4792.73 1041.10   8
  -4 -10   3 9561.13 1524.44   8
  -4 -10   3 9795.10 1414.08   5
  -4 -10   2-20.6255 108.908   5
  -4 -10   2 27.2293 224.546   8
  -4 -10   1 12708.7 1670.79   8
  -4 -10   1 13291.9 1769.00   5
  -4 -10   1 11009.2 724.254   7
  -4 -10   0 22713.3 2219.67   8
  -4 -10  -1 9589.78 1405.34   8
   4  10   1 9216.67 1432.70   6
   4  10   2 542.307 366.281   6
  -4 -10  -2 646.394 411.127   8
   4  10   3 1526.94 543.125   6
  -4 -10  -3 1237.99 479.523   8
   4  10   4-243.349 398.573   6
  -4 -10  -4 40.4994 168.319   8
   4  10   5 646.025 454.395   6
  -4 -10  -5 619.322 347.771   8
   4  10   6-146.293 179.518   6
  -4 -10  -6-3.51312 130.655   8
   4  10   7 911.806 541.491   6
   4  10   8-139.392 232.163   6
   4  10   9 119.965 230.664   6
  -4 -10  -9-887.503 518.604   7
   4  10  10-121.815 391.811   6
  -4 -10 -10-318.044 341.649   7
   4  10  11 1001.97 601.373   6
  -4 -10 -11 598.246 585.441   7
   4  10  12-740.950 533.937   6
  -4 -10 -12 511.348 535.729   5
   4  10  13-426.953 426.477   6
  -4 -11  21 285.914 339.131   8
  -4 -11  20-543.697 460.853   8
  -4 -11  19 198.054 408.137   8
  -4 -11  18 180.359 325.583   8
  -4 -11  17 1386.99 695.957   8
  -4 -11  16-234.544 231.438   8
  -4 -11  15 1594.27 704.309   8
  -4 -11  14 1255.51 605.751   8
  -4 -11  13 4941.31 1228.09   8
  -4 -11  12 3153.94 969.187   8
  -4 -11  11-283.644 400.263   8
  -4 -11  10 4004.89 1061.04   8
  -4 -11   9 3019.80 884.680   8
  -4 -11   8-448.222 373.847   8
  -4 -11   7 3329.18 961.266   8
  -4 -11   7 2820.40 654.992   5
  -4 -11   6 2927.87 858.775   8
  -4 -11   5 1097.62 504.157   8
  -4 -11   4 2044.74 613.136   5
  -4 -11   4 2309.19 754.872   8
  -4 -11   3 7366.38 1276.89   5
  -4 -11   3 8538.18 1434.42   8
  -4 -11   2-233.508 355.344   8
  -4 -11   2 124.599 201.100   5
  -4 -11   1-87.2784 287.542   8
   4  11   0 3520.65 946.253   6
  -4 -11   0 4968.50 1065.54   8
   4  11   1 2798.60 910.603   6
  -4 -11  -1 2756.53 765.717   8
   4  11   2 524.728 253.104   6
  -4 -11  -2 1585.44 553.285   8
   4  11   3-412.201 368.628   6
  -4 -11  -3-457.734 361.056   8
   4  11   4 1026.61 460.081   6
  -4 -11  -4 1454.69 542.979   8
   4  11   5 619.617 325.852   6
  -4 -11  -5 753.886 396.801   8
   4  11   6 860.517 530.292   6
   4  11   7 1376.52 689.555   6
   4  11   8-461.972 245.969   6
   4  11   9 196.291 168.907   6
   4  11  10 1559.12 813.149   6
   4  11  11 2632.72 1194.82   6
   4  11  12 352.210 499.194   6
  -4 -12  21-377.929 402.507   8
  -4 -12  20 1546.77 824.392   8
  -4 -12  19 556.112 431.223   8
  -4 -12  18 673.897 534.359   8
  -4 -12  17 156.839 260.668   8
  -4 -12  16 3287.27 1103.44   8
  -4 -12  15 546.863 530.676   8
  -4 -12  14 2109.34 932.109   8
  -4 -12  13 666.581 443.564   8
  -4 -12  12 598.937 335.173   8
  -4 -12  11 2860.28 915.607   8
  -4 -12  10 583.364 461.767   8
  -4 -12   9 1126.94 610.973   8
  -4 -12   8 496.329 276.077   8
  -4 -12   7 196.982 254.264   8
  -4 -12   6 806.056 503.008   8
  -4 -12   5 665.343 387.286   5
  -4 -12   5 336.584 342.010   8
  -4 -12   4 2875.51 823.775   5
  -4 -12   4 1953.59 737.931   8
  -4 -12   3 2626.26 769.502   5
  -4 -12   3 3156.18 869.236   8
   4  12  -2 3397.20 924.487   6
  -4 -12   2 3088.06 891.522   8
   4  12  -1 4341.81 1048.25   6
  -4 -12   1 5499.94 1171.22   8
   4  12   0 170.786 344.690   6
  -4 -12   0 701.848 419.694   8
   4  12   1-422.733 380.844   6
  -4 -12  -1 182.355 299.826   8
   4  12   2-493.395 349.555   6
  -4 -12  -2-116.917 219.879   8
   4  12   3 422.965 373.681   6
  -4 -12  -3 1514.53 603.002   8
   4  12   4 744.203 548.208   6
  -4 -12  -4 787.664 433.098   8
   4  12   5 128.290 241.102   6
   4  12   6 122.436 273.966   6
   4  12   7 1245.17 654.166   6
   4  12   8 1054.75 606.454   6
   4  12   9 2360.06 985.835   6
   4  12  10 236.674 281.552   6
  -4 -13  20-43.3554 213.543   8
  -4 -13  19-770.847 566.750   8
  -4 -13  18-537.463 514.216   8
  -4 -13  17 228.022 152.330   8
  -4 -13  16 431.452 470.502   8
  -4 -13  15 556.581 360.212   8
  -4 -13  14 1674.93 790.800   8
  -4 -13  13 4.67628 336.935   8
  -4 -13  12 4425.79 1248.75   8
  -4 -13  11 91.4596 672.435   8
  -4 -13  10 343.611 370.122   8
  -4 -13   9 102.377 299.363   8
  -4 -13   8 2270.34 864.071   8
  -4 -13   7-228.623 201.583   8
  -4 -13   6 1805.10 627.562   5
  -4 -13   6 1639.91 709.336   8
  -4 -13   5 39.2642 214.574   5
  -4 -13   5-119.206 171.022   8
  -4 -13   4 373.685 390.502   8
  -4 -13   4 184.372 170.400   5
   4  13  -4 409.248 414.098   6
  -4 -13   3 11584.3 1785.09   8
   4  13  -3 8453.46 1462.81   6
  -4 -13   3 8316.60 1495.71   5
   4  13  -2 12676.6 1812.38   6
  -4 -13   2 10515.0 1655.40   8
   4  13  -1 538.270 455.552   6
  -4 -13   1 12.7758 136.505   8
   4  13   0 3000.74 908.440   6
  -4 -13   0 3280.62 914.400   8
   4  13   1 24.0609 308.807   6
  -4 -13  -1 736.238 475.627   8
   4  13   2 1906.72 725.186   6
  -4 -13  -2 1832.85 654.817   8
  -4 -13  -3 319.570 291.146   8
   4  13   3 1122.25 543.288   6
   4  13   4-173.580 325.818   6
   4  13   5 174.729 254.601   6
   4  13   6 604.913 502.613   6
   4  13   7 173.727 227.490   6
   4  13   8 1066.52 655.787   6
  -4 -14  18 233.918 393.297   8
  -4 -14  17 1864.83 939.825   8
  -4 -14  16-1025.00 640.893   8
  -4 -14  15 970.138 688.082   8
  -4 -14  14-212.276 557.006   8
  -4 -14  13 1087.19 637.348   8
  -4 -14  12 985.407 628.075   8
  -4 -14  11 1331.32 640.788   8
  -4 -14  10-902.091 559.346   8
  -4 -14   9 1144.36 594.010   8
  -4 -14   8 1947.92 805.021   8
   4  14  -7 880.584 414.733   6
  -4 -14   7 12.9131 227.301   8
   4  14  -6 537.459 285.834   6
  -4 -14   6 1202.00 659.615   8
  -4 -14   6 653.378 297.985   5
  -4 -14   5 19.7563 167.840   8
  -4 -14   5-257.672 272.786   5
   4  14  -5-477.215 446.968   6
   4  14  -4 3455.40 925.152   6
  -4 -14   4 1572.76 672.813   5
  -4 -14   4 2959.98 931.447   8
   4  14  -3 2752.57 890.013   6
  -4 -14   3 3277.94 1002.59   5
  -4 -14   3 3165.62 951.347   8
   4  14  -2 2416.77 896.199   6
  -4 -14   2 2972.57 922.951   8
  -4 -14   1 890.549 519.926   8
   4  14  -1 1701.50 767.692   6
  -4 -14   0 145.308 141.733   8
   4  14   0 615.718 322.955   6
  -4 -14  -1 5224.84 1161.54   8
   4  14   1 5445.30 1288.36   6
  -4 -14  -2 633.342 453.503   8
   4  14   2 225.963 346.263   6
   4  14   3 1502.27 696.109   6
   4  14   4 687.843 609.283   6
   4  14   5 1683.12 861.198   6
   4  14   6 418.947 465.927   6
  -4 -15  17 605.009 619.500   8
  -4 -15  16-261.164 350.444   8
  -4 -15  15-308.425 369.715   8
  -4 -15  14 103.884 328.431   8
  -4 -15  13 989.150 684.887   8
  -4 -15  12 1053.26 575.581   8
   4  15 -11 202.768 200.259   6
  -4 -15  11 666.111 553.997   8
   4  15 -10 638.316 324.831   6
  -4 -15  10 332.621 377.828   8
  -4 -15   9 1120.84 593.519   8
   4  15  -9 783.655 443.868   6
   4  15  -8 998.109 548.763   6
  -4 -15   8 760.044 546.223   8
   4  15  -7 974.263 516.292   6
  -4 -15   7 1295.03 814.346   8
  -4 -15   6 143.310 182.250   8
   4  15  -6-20.7879 253.782   6
   4  15  -5 224.259 137.987   6
  -4 -15   5-93.6221 192.322   5
  -4 -15   5 445.508 424.078   8
   4  15  -4 81.7615 190.215   6
  -4 -15   4-213.162 268.490   5
  -4 -15   4 35.1478 148.215   8
  -4 -15   3 1999.73 768.221   8
   4  15  -3 824.302 479.542   6
  -4 -15   3 1086.69 629.980   5
   4  15  -2-610.621 448.610   6
  -4 -15   2-181.674 374.478   8
   4  15  -1-559.988 435.816   6
  -4 -15   1-75.0792 279.924   8
  -4 -15   0 1768.63 695.707   8
   4  15   0 2650.32 936.502   6
   4  15   1-454.793 413.167   6
  -4 -15  -1-317.281 309.210   8
   4  15   2 1736.97 736.782   6
   4  15   3-489.465 448.424   6
   4  15   4 2134.23 975.437   6
  -4 -16  15 1385.22 836.434   8
  -4 -16  14-63.0248 282.250   8
  -4 -16  13 999.514 618.110   8
  -4 -16  12 726.282 486.162   8
   4  16 -11-692.111 420.708   6
  -4 -16  11 137.643 160.267   8
   4  16 -10 110.513 177.172   6
  -4 -16  10 5.21070 196.150   8
   4  16  -9 76.8553 255.307   6
  -4 -16   9-267.499 330.546   8
   4  16  -8 566.646 358.852   6
  -4 -16   8 601.187 618.241   8
  -4 -16   7 526.717 452.175   8
   4  16  -7 117.246 215.834   6
  -4 -16   6 831.541 580.112   8
   4  16  -6-327.893 376.301   6
   4  16  -5-92.7519 203.216   6
  -4 -16   5-33.5113 253.056   8
   4  16  -4 857.735 621.116   6
  -4 -16   4 941.596 538.977   8
  -4 -16   4 1074.79 599.140   5
   4  16  -3 180.427 273.555   6
  -4 -16   3 630.867 414.886   5
  -4 -16   3 599.952 507.820   8
   4  16  -2 372.583 423.152   6
  -4 -16   2 89.3777 261.199   8
   4  16  -1 129.406 254.257   6
  -4 -16   1 521.229 393.379   8
   4  16   0 350.724 393.410   6
  -4 -16   0 939.562 478.140   8
   4  16   1 434.502 446.492   6
   4  16   2-359.972 398.240   6
  -4 -17  12 360.473 417.706   8
  -4 -17  11 845.984 631.698   8
   4  17 -10 348.696 415.026   6
  -4 -17  10-1034.98 656.150   8
   4  17  -9 992.982 543.820   6
  -4 -17   9 979.452 636.528   8
   4  17  -8-7.38696 123.226   6
  -4 -17   8-56.0246 161.352   8
   4  17  -7 179.031 339.184   6
  -4 -17   7 609.509 486.741   8
   4  17  -6 187.647 312.337   6
  -4 -17   6 502.434 457.457   8
   4  17  -5 314.591 249.487   6
  -4 -17   5 385.355 430.262   8
   4  17  -4 744.208 578.854   6
  -4 -17   4-835.151 548.860   8
   4  17  -3 1623.90 762.970   6
  -4 -17   3 694.874 658.262   8
  -4 -17   2 41.3896 111.416   8
   4  17  -2-87.3063 254.615   6
  -4 -17   2 284.055 359.886   5
   4  17  -1 1127.63 687.460   6
  -4 -17   1 1349.12 715.400   8
   4  17   0 411.177 422.668   6
   4  18  -9 333.258 230.083   6
  -4 -18   9-126.119 261.621   8
   4  18  -8-85.2452 212.132   6
  -4 -18   8 529.648 536.366   8
   4  18  -7-376.564 371.963   6
  -4 -18   7-558.338 483.295   8
   4  18  -6-261.194 325.776   6
  -4 -18   6 25.7343 441.974   8
   4  18  -5-968.659 593.981   6
  -4 -18   5-200.395 313.248   8
   4  18  -4-246.171 322.395   6
  -4 -18   4 629.230 627.244   8
   4  18  -3-860.823 581.730   6
  -4 -18   3-35.9589 165.609   8
  -4 -18   2 381.574 375.073   8
  -4 -18   1 974.043 635.432   5
   4  19  -8 227.038 449.937   6
   4  19  -7-609.448 483.547   6
   4  19  -6-6.17980 483.034   6
  -4 -19   6 255.011 429.680   8
  -4 -19   5 856.985 613.622   8
   4  19  -5-1374.03 734.476   6
  -4 -19   4 157.792 290.564   8
  -5  19  -1-67.5512 254.806   6
  -5  19  -2 112.566 292.470   6
  -5  19  -3-268.008 392.532   6
  -5  19  -5 1221.40 708.649   2
  -5  19  -6-111.433 250.683   2
  -5  19  -7 448.150 459.927   2
  -5  19  -8 1637.39 896.279   2
  -5  19  -9 1448.88 889.331   2
  -5  18   1-611.359 581.023   6
  -5  18   0 69.7543 256.868   6
  -5  18  -1 17.9462 185.677   6
  -5  18  -2-141.428 305.022   6
  -5  18  -3 361.967 362.574   6
  -5  18  -4 714.027 410.783   2
  -5  18  -4 343.650 344.291   6
  -5  18  -5-395.698 412.303   2
  -5  18  -6 887.011 531.443   2
  -5  18  -7 1253.62 760.593   2
  -5  18  -8 26.0858 362.165   2
  -5  18  -9 956.395 660.064   2
  -5  18 -10-470.220 479.354   2
  -5  18 -11 91.6856 188.958   2
  -5  17   2-400.104 460.695   6
  -5  17   1 1066.06 719.776   6
  -5  17   0 1018.49 749.516   6
  -5  17  -1-219.937 346.219   6
  -5  17  -2-232.245 343.924   6
  -5  17  -3 419.352 388.804   2
  -5  17  -3-44.4170 192.169   6
  -5  17  -4 1255.83 723.933   2
  -5  17  -4 1388.12 730.509   6
  -5  17  -5 922.041 607.892   2
  -5  17  -5 375.122 374.567   6
  -5  17  -6 121.258 312.781   2
  -5  17  -7-70.4111 208.988   2
  -5  17  -8 242.283 334.226   2
  -5  17  -9-884.604 621.361   2
  -5  17 -10-246.232 366.635   2
  -5  17 -11-254.724 362.877   2
  -5  17 -12-481.992 492.727   2
  -5  17 -13 248.125 348.178   2
  -5  16   4 3004.25 1195.65   6
  -5  16   3 243.995 377.421   6
  -5  16   2 2151.37 1014.10   6
  -5  16   1 15.6453 304.754   6
  -5  16   0 512.091 535.547   6
  -5  16  -1 451.038 522.837   6
  -5  16  -2 892.874 536.857   6
  -5  16  -2 56.3555 315.737   2
  -5  16  -3 1156.48 679.877   2
  -5  16  -3 1706.86 843.931   6
  -5  16  -4 1925.51 753.667   2
  -5  16  -4 2405.05 880.176   6
  -5  16  -5 424.329 344.564   6
  -5  16  -5 1983.20 891.818   2
  -5  16  -6 71.0230 318.352   2
  -5  16  -6 25.9958 125.293   6
  -5  16  -7 2.04599 290.917   2
  -5  16  -8 67.8551 323.089   2
  -5  16  -9 897.393 611.387   2
  -5  16 -10-1043.26 665.312   2
  -5  16 -11 269.824 355.378   2
  -5  16 -12 103.723 237.529   2
  -5  16 -13 51.9907 176.059   2
  -5  16 -14 1183.28 809.698   2
  -5  15   6 798.336 621.604   6
  -5  15   5 752.187 559.570   6
  -5  15   4 273.312 383.330   6
  -5  15   3 670.167 620.549   6
  -5  15   2 291.107 505.469   6
  -5  15   1 870.647 605.763   6
  -5  15   0 128.501 269.308   6
  -5  15  -1 3908.29 1226.41   6
  -5  15  -1 3183.86 951.186   2
  -5  15  -2 406.538 363.415   6
  -5  15  -2 1098.24 561.866   2
  -5  15  -3 2010.71 763.154   2
  -5  15  -3 2474.93 919.948   6
  -5  15  -4 3865.95 1111.16   2
  -5  15  -4 1821.60 610.849   6
  -5  15  -5-376.385 371.583   2
  -5  15  -5-328.104 366.863   6
  -5  15  -6-64.1791 358.980   2
  -5  15  -6 111.738 266.202   6
  -5  15  -7 878.642 493.474   2
  -5  15  -8 1294.26 721.623   2
  -5  15  -9 710.667 378.803   2
  -5  15 -10 1206.73 685.853   2
  -5  15 -11 439.077 554.569   2
  -5  15 -12 2236.57 958.066   2
  -5  15 -13 853.467 572.336   2
  -5  15 -14-769.747 602.952   2
  -5  15 -15-645.868 578.506   2
  -5  14   8 1954.51 1102.40   6
  -5  14   7 705.882 501.565   6
  -5  14   6-77.6658 259.907   6
  -5  14   5 719.736 540.601   6
  -5  14   4 460.106 585.059   6
  -5  14   3 1211.50 703.818   6
  -5  14   2 1106.72 667.249   6
  -5  14   1 216.516 297.708   6
  -5  14   0 5825.07 1438.72   6
  -5  14   0 6613.33 1303.89   2
  -5  14  -1-231.326 353.114   6
  -5  14  -1-29.6476 133.908   2
  -5  14  -2 1290.10 582.654   6
  -5  14  -2 236.264 200.818   2
  -5  14  -3 679.862 475.038   2
  -5  14  -3-331.227 381.196   6
  -5  14  -4 669.937 502.513   2
  -5  14  -4 124.780 178.181   6
  -5  14  -5 22.8376 249.242   2
  -5  14  -5 522.320 414.975   6
  -5  14  -6 1676.31 742.223   2
  -5  14  -6 132.442 208.217   6
  -5  14  -7 1148.04 597.913   2
  -5  14  -7 2022.41 706.722   6
  -5  14  -8 1025.01 584.828   2
  -5  14  -9 1118.50 668.252   2
  -5  14 -10 9.18500 254.716   2
  -5  14 -11 1282.28 704.844   2
  -5  14 -12 1452.87 832.495   2
  -5  14 -13 555.033 494.900   2
  -5  14 -14 892.009 698.119   2
  -5  14 -15 127.195 451.111   2
  -5  14 -16 542.243 537.953   2
  -5  14 -17-567.013 548.435   2
  -5  13   9-22.7048 397.741   6
  -5  13   8-805.768 658.507   6
  -5  13   7-407.291 501.945   6
  -5  13   6 701.922 649.960   6
  -5  13   5 1122.82 691.474   6
  -5  13   4-129.408 277.445   6
  -5  13   3 975.081 701.739   6
  -5  13   2-46.0838 280.931   6
  -5  13   1 1632.49 797.687   6
  -5  13   1 890.418 463.223   2
  -5  13   0 1511.90 722.750   6
  -5  13   0 1284.96 571.724   2
  -5  13  -1 968.886 554.074   6
  -5  13  -1 1136.74 526.583   2
  -5  13  -2-155.868 407.368   6
  -5  13  -2-163.684 140.452   2
  -5  13  -3 2372.63 747.124   2
  -5  13  -3 857.202 524.565   6
  -5  13  -4-399.803 351.347   2
  -5  13  -4 339.688 435.253   6
  -5  13  -5 4053.30 1049.66   2
  -5  13  -5 2743.72 891.125   6
  -5  13  -6 955.259 584.774   2
  -5  13  -6 1091.46 425.530   6
  -5  13  -7 395.581 413.769   2
  -5  13  -7 958.015 483.849   6
  -5  13  -8 643.131 461.194   2
  -5  13  -8 554.422 338.252   6
  -5  13  -9-679.453 496.645   2
  -5  13 -10 55.3150 308.401   2
  -5  13 -11 1840.43 728.706   2
  -5  13 -12 398.354 391.948   2
  -5  13 -13 854.696 616.186   2
  -5  13 -14-192.246 527.830   2
  -5  13 -15-1194.96 726.610   2
  -5  13 -16 68.6635 235.764   2
  -5  13 -17 28.6885 334.512   2
  -5  13 -18-585.128 562.714   2
  -5  12  11 1407.31 739.827   6
  -5  12  10 1582.19 897.804   6
  -5  12   9 463.803 679.460   6
  -5  12   8 436.924 460.241   6
  -5  12   7 669.960 249.182   6
  -5  12   6 2172.10 870.192   6
  -5  12   5-95.3857 363.105   6
  -5  12   4 2540.34 931.742   6
  -5  12   3 206.786 345.674   6
  -5  12   2 264.376 390.705   6
  -5  12   2-504.807 328.112   2
  -5  12   1 3239.42 1049.93   6
  -5  12   1 1394.18 582.134   2
  -5  12   0 65.6595 269.282   6
  -5  12   0-18.4041 244.902   2
  -5  12  -1 226.695 176.693   6
  -5  12  -1 37.0855 144.056   2
  -5  12  -2 2454.09 839.330   6
  -5  12  -2 2025.60 683.392   2
  -5  12  -3-149.788 307.159   2
  -5  12  -3-87.8779 240.304   6
  -5  12  -4 925.646 560.679   2
  -5  12  -4 613.811 351.559   6
  -5  12  -5 2438.43 865.784   2
  -5  12  -5 1475.43 575.884   6
  -5  12  -6-869.546 511.775   2
  -5  12  -6-178.488 176.122   6
  -5  12  -7-183.342 316.762   2
  -5  12  -7-57.7228 174.511   6
  -5  12  -8 827.563 660.661   2
  -5  12  -8-134.444 192.217   6
  -5  12  -9 642.611 497.318   2
  -5  12 -10 6419.15 1514.29   2
  -5  12 -11 283.987 312.582   2
  -5  12 -12 312.084 175.025   2
  -5  12 -13 789.295 590.842   2
  -5  12 -14 398.983 484.195   2
  -5  12 -15 322.247 266.052   2
  -5  12 -16 244.729 281.169   2
  -5  12 -17-142.014 314.502   2
  -5  12 -18 800.214 636.950   2
  -5  12 -19 392.409 472.824   2
  -5  11  12 764.010 647.565   6
  -5  11  11-333.419 437.398   6
  -5  11  10-448.881 492.440   6
  -5  11   9 599.433 394.421   6
  -5  11   8-44.7191 506.913   6
  -5  11   7 1748.40 859.930   6
  -5  11   6 1515.37 836.102   6
  -5  11   5 9593.37 1840.31   6
  -5  11   4 117.493 260.931   6
  -5  11   3 30.8237 381.352   6
  -5  11   3 180.378 209.665   2
  -5  11   2 208.301 365.027   6
  -5  11   2 1980.70 642.147   2
  -5  11   1 10839.5 1790.07   6
  -5  11   1 11396.7 1526.19   2
  -5  11   0 1394.22 627.659   6
  -5  11   0 931.828 446.045   2
  -5  11  -1 4511.91 1097.04   6
  -5  11  -1 4185.48 986.220   2
  -5  11  -2 573.089 377.555   6
  -5  11  -2 599.650 453.418   2
  -5  11  -3 1312.03 536.975   6
  -5  11  -3 1318.37 579.259   2
  -5  11  -4 6525.85 1288.23   2
  -5  11  -4 6706.53 1261.34   6
  -5  11  -5 1192.88 524.778   2
   5 -11   5 1332.92 462.494   4
  -5  11  -5 2244.33 706.528   6
  -5  11  -6 4806.13 1133.02   2
  -5  11  -6 6039.20 1120.96   6
   5 -11   6 6898.84 900.257   4
  -5  11  -7 753.584 387.758   2
  -5  11  -7 1000.38 467.921   6
  -5  11  -8 878.972 595.534   2
  -5  11  -9 3187.94 994.011   2
  -5  11 -10 389.711 324.743   2
  -5  11 -11 829.286 628.124   2
  -5  11 -12 60.6576 240.633   2
  -5  11 -13-82.7271 351.440   2
  -5  11 -14 51.5352 233.697   2
  -5  11 -15 479.292 482.029   2
  -5  11 -16 978.566 661.930   2
  -5  11 -17 80.2403 279.498   2
  -5  11 -18 1538.71 955.662   2
  -5  11 -19 1412.41 834.734   2
   5 -10 -14 81.5736 251.310   9
  -5  10  13 598.837 663.362   6
   5 -10 -13 624.385 582.684   9
  -5  10  12 718.661 676.878   6
   5 -10 -12 825.762 612.373   9
  -5  10  11 1815.60 981.610   6
   5 -10 -11 1208.33 652.231   9
  -5  10  10-1023.81 687.424   6
   5 -10 -10 819.952 599.332   9
  -5  10   9 395.198 300.399   6
   5 -10  -9-684.626 453.707   9
  -5  10   8 327.450 420.695   6
   5 -10  -8 649.311 447.318   9
  -5  10   7-12.5665 286.717   6
   5 -10  -7 256.958 148.964   9
  -5  10   6 2638.60 1051.85   6
   5 -10  -6 2465.33 725.675   9
  -5  10   5 2230.64 988.580   6
  -5  10   4 1181.24 631.408   6
  -5  10   4 1670.47 528.599   2
  -5  10   3 2851.20 929.339   6
  -5  10   3 4743.13 904.347   2
  -5  10   2 17650.1 2266.11   6
  -5  10   2 15762.1 1693.65   2
  -5  10   1 3906.87 1073.26   6
  -5  10   1 3800.14 847.595   2
  -5  10   0 1107.30 548.835   2
  -5  10   0 859.518 334.969   6
  -5  10  -1 715.184 513.023   6
  -5  10  -1 873.130 455.057   2
  -5  10  -2 1004.37 522.608   6
  -5  10  -2 192.686 238.110   2
  -5  10  -3 5938.64 1176.87   6
  -5  10  -3 6459.79 1241.42   2
   5 -10   4 364.098 258.203   4
  -5  10  -4-40.2111 214.353   6
  -5  10  -4 340.608 389.537   2
   5 -10   5 418.751 191.221   4
  -5  10  -5 432.215 350.227   6
  -5  10  -5 795.362 477.995   2
  -5  10  -6 2311.10 754.841   2
   5 -10   6 2735.33 532.327   4
  -5  10  -6 3286.17 763.692   6
  -5  10  -7 1322.36 631.607   2
  -5  10  -8 1390.92 657.637   2
  -5  10  -9 624.864 329.152   2
  -5  10 -10 601.233 457.013   2
  -5  10 -11 6786.10 1433.04   2
  -5  10 -12 345.098 306.546   2
  -5  10 -13 443.434 702.373   2
  -5  10 -14-144.490 427.746   2
  -5  10 -15 156.925 371.821   2
  -5  10 -16 621.817 271.001   2
  -5  10 -17 545.525 433.105   2
  -5  10 -18 2.46387 235.436   2
  -5  10 -19 1320.11 845.613   2
  -5  10 -20 243.985 451.844   2
   5  -9 -15 79.1464 348.666   9
   5  -9 -14 238.922 338.661   9
  -5   9  14 160.170 331.738   6
   5  -9 -13 1077.87 810.957   9
  -5   9  13 1361.68 837.643   6
  -5   9  12 451.307 442.519   6
   5  -9 -12 44.1995 175.014   9
  -5   9  11 3129.56 1261.85   6
   5  -9 -11 3739.93 1083.42   9
  -5   9  10 1230.47 620.206   6
   5  -9 -10 1790.13 772.298   9
  -5   9   9 147.896 362.234   6
   5  -9  -9-73.3498 155.691   9
  -5   9   8 641.931 353.689   6
   5  -9  -8 546.159 387.074   9
  -5   9   7 203.616 286.086   6
   5  -9  -7 204.309 119.952   9
  -5   9   6 5987.60 1411.15   6
   5  -9  -6 3770.60 895.453   9
  -5   9   5 567.811 275.335   2
  -5   9   5 82.2537 210.352   6
   5  -9  -5 155.070 144.887   9
  -5   9   4 4965.62 1276.67   6
  -5   9   4 4496.42 801.973   2
  -5   9   3 558.340 453.665   6
  -5   9   3 89.5297 109.020   2
  -5   9   2 10704.2 1681.35   6
  -5   9   2 12171.9 1457.98   2
  -5   9   1 377.141 338.583   6
  -5   9   1 575.938 290.395   2
  -5   9   0 1574.11 525.024   6
  -5   9   0 1496.69 584.035   2
  -5   9  -1 3421.87 911.099   6
  -5   9  -1 2590.83 727.381   2
  -5   9  -2 4607.98 1025.88   6
  -5   9  -2 5840.48 1104.51   2
   5  -9   3-52.1452 253.341   4
  -5   9  -3 708.790 375.196   6
  -5   9  -3 427.431 382.810   2
   5  -9   4 2896.34 621.466   4
  -5   9  -4 3755.83 885.882   6
  -5   9  -4 3764.55 903.581   2
   5  -9   5 3210.27 620.817   4
  -5   9  -5 2703.46 677.989   6
  -5   9  -5 3637.15 936.517   2
  -5   9  -6 522.538 436.950   2
   5  -9   6 491.263 235.778   4
  -5   9  -7 2772.00 838.511   2
  -5   9  -8 1810.31 723.693   2
  -5   9  -9 8331.98 1558.76   2
  -5   9 -10 5853.39 1277.66   2
  -5   9 -11 1597.04 694.639   2
  -5   9 -12 1123.85 615.394   2
  -5   9 -13-30.9323 276.077   2
  -5   9 -14 406.292 575.659   2
  -5   9 -15 1279.37 823.194   2
  -5   9 -16 953.279 582.732   2
  -5   9 -17 105.590 250.137   2
  -5   9 -18 568.604 569.391   2
  -5   9 -19 705.693 624.650   2
  -5   9 -20 651.542 585.047   2
  -5   9 -21 798.829 799.708   2
  -5   8  16-487.724 548.201   6
  -5   8  15 249.300 396.891   6
   5  -8 -15 88.7906 197.994   9
  -5   8  14-803.347 646.708   6
   5  -8 -14 272.087 341.070   9
  -5   8  13-251.261 184.866   6
   5  -8 -13 15.9108 356.542   9
  -5   8  12-251.010 258.667   6
   5  -8 -12-100.235 232.945   9
  -5   8  11 1906.30 952.824   6
   5  -8 -11 2120.40 855.028   9
  -5   8  10-495.171 552.348   6
   5  -8 -10-90.5912 163.271   9
  -5   8   9 315.124 397.680   6
   5  -8  -9 614.287 455.389   9
  -5   8   8 385.410 242.756   6
   5  -8  -8 360.750 265.052   9
  -5   8   7 820.074 529.906   6
   5  -8  -7 664.855 326.100   9
  -5   8   6-250.974 484.959   6
   5  -8  -6 70.1634 172.857   9
  -5   8   6 234.355 188.071   2
  -5   8   5 629.913 243.672   2
  -5   8   5 599.768 197.194   6
  -5   8   4 2723.66 617.220   2
  -5   8   4 1476.54 606.695   6
  -5   8   3-184.869 299.787   6
  -5   8   3 970.411 396.853   2
   5  -8  -3 394.152 208.974   9
  -5   8   2 1119.39 572.371   6
  -5   8   2 1219.10 483.147   2
   5  -8  -2 1085.48 352.231   9
  -5   8   1 4254.97 1029.95   6
   5  -8  -1 3681.03 560.343   9
  -5   8   1 3588.39 790.369   2
  -5   8   0 7642.88 1322.53   6
  -5   8   0 9679.31 1333.24   2
  -5   8  -1 2010.06 680.798   6
  -5   8  -1 1983.67 616.467   2
  -5   8  -2 6756.94 1219.41   6
   5  -8   2 9638.25 1261.37   4
  -5   8  -2 8566.17 1305.43   2
  -5   8  -3 12816.3 1577.31   6
  -5   8  -3 16011.5 1856.79   2
   5  -8   3 15914.6 1534.57   4
   5  -8   4 228.571 188.327   4
  -5   8  -4 21.3713 203.471   6
  -5   8  -4 162.310 339.729   2
  -5   8  -5 934.382 498.228   2
   5  -8   5 264.511 110.135   4
  -5   8  -6 470.930 484.647   2
  -5   8  -7 1011.98 485.547   2
  -5   8  -8 985.594 559.874   2
  -5   8  -9 3380.23 1041.60   2
  -5   8 -10-278.772 399.911   2
  -5   8 -11 1108.40 588.099   2
  -5   8 -12 849.933 548.378   2
  -5   8 -13 2889.92 997.439   2
  -5   8 -14 571.896 524.247   2
  -5   8 -15 718.365 461.931   2
  -5   8 -16 34.6867 204.192   2
  -5   8 -17 573.815 490.620   2
  -5   8 -18 1804.93 853.495   2
  -5   8 -19 229.173 164.433   2
  -5   8 -20-570.099 533.262   2
  -5   8 -21 1052.25 695.868   2
  -5   7  17-1514.25 921.428   6
  -5   7  16-432.686 499.438   6
   5  -7 -16 152.981 303.500   9
  -5   7  15-160.309 412.529   6
   5  -7 -15 574.542 476.331   9
  -5   7  14 1308.56 741.361   6
   5  -7 -14 441.004 427.063   9
  -5   7  13 763.695 568.026   6
   5  -7 -13-195.881 296.287   9
  -5   7  12 648.994 566.675   6
   5  -7 -12 507.259 469.637   9
  -5   7  11 2736.15 947.050   6
   5  -7 -11 1326.28 605.290   9
   5  -7 -10-163.777 303.817   9
  -5   7  10 608.398 413.565   6
  -5   7   9-254.812 326.503   6
   5  -7  -9 141.054 238.408   9
  -5   7   8-25.6816 301.465   6
  -5   7   8 603.527 353.484   3
  -5   7   7 19658.3 2498.25   6
  -5   7   7 18332.9 1846.92   3
   5  -7  -7 17521.9 1890.71   9
  -5   7   6-246.141 342.493   6
   5  -7  -6 523.895 255.286   9
  -5   7   6 191.504 198.536   2
  -5   7   5 528.576 282.445   2
  -5   7   5-96.9018 388.684   6
  -5   7   4 113.142 179.510   2
  -5   7   4 507.653 509.808   6
  -5   7   3 7035.19 1355.42   6
  -5   7   3 5490.55 904.967   2
   5  -7  -3 5797.20 843.113   9
  -5   7   2 1029.53 541.979   6
   5  -7  -2 902.332 315.890   9
  -5   7   2 547.823 310.615   2
  -5   7   1 3018.77 859.352   6
  -5   7   1 2978.73 721.482   2
   5  -7  -1 3306.49 506.114   9
  -5   7   0 67.5149 344.466   6
  -5   7   0 161.884 232.381   2
   5  -7   0 430.145 164.636   9
  -5   7  -1 8241.43 1311.82   6
  -5   7  -1 7286.56 1173.43   2
   5  -7   1 7795.55 1141.92   4
   5  -7   2 453.251 225.603   4
  -5   7  -2 600.663 351.352   6
  -5   7  -2 677.724 442.973   2
  -5   7  -3 22784.4 2060.12   6
  -5   7  -3 27563.4 2365.32   2
   5  -7   3 25394.4 1859.63   4
  -5   7  -4 978.075 486.071   2
   5  -7   4 609.924 311.938   4
  -5   7  -5-566.085 367.255   2
   5  -7   5 197.790 178.910   4
  -5   7  -6-65.4977 387.839   2
   5  -7   7 425.705 232.250   6
  -5   7  -7 665.321 498.465   2
  -5   7  -8 343.576 296.876   2
   5  -7   8 36.3864 71.4087   6
  -5   7  -9 475.002 581.871   2
  -5   7 -10-138.172 495.188   2
  -5   7 -11-123.354 307.162   2
  -5   7 -12 2314.57 815.049   2
  -5   7 -13 1057.99 430.490   2
  -5   7 -14 532.347 368.205   9
  -5   7 -14 647.292 478.706   2
  -5   7 -15 1109.69 476.397   9
  -5   7 -15 193.722 342.769   2
  -5   7 -16-158.148 281.417   2
  -5   7 -17-116.159 276.911   7
  -5   7 -17-131.355 332.619   2
  -5   7 -18 1506.33 872.902   7
  -5   7 -18 130.055 154.900   2
  -5   7 -19 219.998 433.145   7
  -5   7 -19 953.358 724.367   2
  -5   7 -20 54.8688 221.495   2
  -5   7 -21-435.749 478.277   2
  -5   6  18 245.246 405.402   6
  -5   6  17 3280.14 1329.13   6
   5  -6 -17 3128.25 1179.89   9
  -5   6  16-1.36590 412.549   6
   5  -6 -16 416.784 437.513   9
  -5   6  15-160.642 320.785   6
   5  -6 -15 225.398 480.574   9
  -5   6  14 1680.34 856.317   6
   5  -6 -14-216.124 320.218   9
  -5   6  13 1246.13 655.933   6
   5  -6 -13-132.469 254.448   9
  -5   6  12 311.429 489.788   6
   5  -6 -12 408.057 244.083   9
  -5   6  11 536.527 690.644   6
   5  -6 -11 891.068 486.548   9
  -5   6  10 438.964 381.808   6
   5  -6 -10 1111.22 559.489   9
  -5   6   9 7715.82 1064.16   3
  -5   6   9 6130.45 1460.39   6
   5  -6  -9 7352.74 1311.01   9
  -5   6   8 5360.26 1299.90   6
  -5   6   8 6388.21 1010.41   3
   5  -6  -8 6448.26 1232.72   9
  -5   6   8 4248.18 671.587   8
  -5   6   7 749.039 470.708   6
  -5   6   7 89.1464 133.647   3
  -5   6   6 1619.68 572.643   6
  -5   6   6 1913.07 594.876   3
  -5   6   6 2049.04 495.062   2
  -5   6   5 1182.84 446.372   6
  -5   6   5 577.046 252.160   2
  -5   6   4 930.701 367.631   2
  -5   6   4 1301.73 571.369   6
  -5   6   3 273.536 111.648   2
  -5   6   3 428.398 310.611   6
  -5   6   2-243.251 264.969   6
  -5   6   2-54.1302 152.041   2
  -5   6   1 2813.62 761.361   6
  -5   6   1 3153.93 723.349   2
   5  -6   0 58.5532 214.469   4
  -5   6   0 156.250 175.414   6
  -5   6   0 93.2168 155.378   2
   5  -6   0-50.6722 101.702   9
  -5   6  -1 21501.9 2098.51   6
   5  -6   1 19027.6 809.667   9
  -5   6  -1 21594.8 1957.56   2
   5  -6   1 20309.3 1806.38   4
   5  -6   2 6015.58 935.401   4
  -5   6  -2 7596.25 1193.74   6
  -5   6  -2 6175.63 1085.13   2
  -5   6  -3 17.4251 176.006   2
   5  -6   3 383.430 190.660   4
  -5   6  -4 411.499 424.762   2
   5  -6   4 258.382 179.487   4
  -5   6  -5 5541.16 1085.03   2
   5  -6   6 221.782 178.940   6
  -5   6  -6-1293.28 543.757   2
   5  -6   7 2991.43 564.618   6
  -5   6  -7 4603.05 1077.51   2
   5  -6   8 1637.84 401.163   6
  -5   6  -8 985.635 557.073   2
   5  -6   9 156.332 115.488   6
  -5   6  -9 135.513 193.883   2
  -5   6 -10 62.2703 230.484   2
  -5   6 -11 341.459 324.548   2
  -5   6 -12 5999.70 1316.11   2
  -5   6 -13 422.059 352.977   2
  -5   6 -14 948.207 622.432   7
  -5   6 -14-792.307 524.216   2
  -5   6 -15 2849.60 1025.28   7
  -5   6 -15 1475.13 686.162   2
  -5   6 -16-303.122 366.608   7
  -5   6 -16 851.245 565.613   2
  -5   6 -17 1492.02 895.932   7
  -5   6 -17 1722.72 887.752   2
  -5   6 -18 1099.77 763.253   7
  -5   6 -18 646.915 668.757   2
  -5   6 -19 198.840 543.142   7
  -5   6 -19 466.401 561.186   2
  -5   6 -20-54.6693 231.627   2
  -5   5  19 897.898 768.473   6
  -5   5  18 1096.20 762.048   6
  -5   5  17 1038.91 867.552   6
   5  -5 -17 1190.89 805.865   9
  -5   5  16 63.4856 213.958   6
   5  -5 -16 80.2628 324.098   9
  -5   5  15 690.065 751.649   6
   5  -5 -15 590.636 479.414   9
  -5   5  14-61.4866 236.140   6
   5  -5 -14 392.430 317.346   9
  -5   5  13-142.603 372.264   6
   5  -5 -13 214.326 389.281   9
  -5   5  12 4535.80 1313.67   6
   5  -5 -12 4055.90 1077.78   9
  -5   5  11 4888.16 1325.56   6
  -5   5  10 199.017 211.700   6
  -5   5   9 11404.1 1270.37   3
  -5   5   9 9985.08 1773.39   6
  -5   5   9 10565.0 1014.14   8
  -5   5   8 4883.03 1254.31   6
  -5   5   8 5598.38 929.280   3
  -5   5   8 4441.87 714.034   8
  -5   5   7 47.6344 240.037   6
   5  -5  -7 13.3328 60.8890   2
  -5   5   7 37.8832 180.763   3
  -5   5   6-55.5680 79.7952   2
   5  -5  -6 75.7436 76.3608   2
  -5   5   6 246.148 382.809   6
  -5   5   6 108.041 205.465   3
   5  -5  -5 313.954 217.324   2
  -5   5   5 373.304 259.382   6
  -5   5   5 245.001 210.566   3
  -5   5   5 30.0349 191.977   2
  -5   5   4 5537.04 1146.31   6
  -5   5   4 4810.76 801.621   2
  -5   5   3 8186.40 1358.01   6
  -5   5   3 7221.47 1025.89   2
  -5   5   2 12059.1 1630.21   6
  -5   5   2 11514.3 1312.80   2
   5  -5  -2 11216.7 1487.45   4
   5  -5  -1 649.279 380.468   4
  -5   5   1 2009.23 715.659   6
  -5   5   1 1412.78 472.078   2
  -5   5   0 12149.8 1565.08   6
  -5   5   0 10850.7 1351.66   2
   5  -5   0 9768.18 1297.73   4
  -5   5  -1 11118.2 1403.16   2
   5  -5   1 9545.41 1211.23   4
  -5   5  -2 5532.41 1004.01   2
   5  -5   2 6049.92 905.349   4
  -5   5  -3 20165.1 1955.75   2
   5  -5   3 18723.7 1519.06   4
  -5   5  -4 4544.45 960.845   2
  -5   5  -5 1494.12 607.039   2
   5  -5   6-124.860 118.435   6
  -5   5  -6 89.5939 147.554   2
   5  -5   7 8087.72 976.785   6
  -5   5  -7 6649.13 1229.61   2
  -5   5  -7 6993.96 735.349   4
  -5   5  -8 1674.03 366.678   4
   5  -5   8 1413.09 394.121   6
  -5   5  -8 2439.76 781.469   2
  -5   5  -9 1332.15 428.693   4
   5  -5   9 470.371 219.906   6
  -5   5  -9 438.289 366.241   2
  -5   5 -10 1836.34 728.582   2
  -5   5 -10 1595.74 344.897   4
  -5   5 -11 3484.28 1020.68   2
  -5   5 -12 2945.22 991.550   7
  -5   5 -12 3794.28 1062.95   2
  -5   5 -13 1784.91 731.651   7
  -5   5 -13 1769.54 625.598   2
  -5   5 -14-424.483 239.743   7
  -5   5 -14 73.6930 322.085   2
  -5   5 -15 2185.09 948.983   7
  -5   5 -15 1455.47 754.834   2
  -5   5 -16 1522.63 746.824   7
  -5   5 -16 3719.16 1166.68   2
  -5   5 -16 2719.60 1011.46   3
  -5   5 -17 1194.92 787.737   7
  -5   5 -17 1327.44 744.536   2
  -5   5 -18 616.423 563.638   7
  -5   5 -18 1139.46 658.583   2
  -5   5 -19 170.666 476.679   7
  -5   5 -19-721.860 561.237   2
  -5   5 -20 100.259 252.843   2
  -5   4  19-1.44145 513.735   6
  -5   4  18-842.072 658.610   6
   5  -4 -18 239.871 498.477   9
   5  -4 -17 294.252 221.938   4
  -5   4  17-373.116 441.848   6
   5  -4 -17 575.435 532.496   9
  -5   4  16 285.655 302.029   6
   5  -4 -16 226.884 260.146   9
  -5   4  15 1432.92 894.490   6
   5  -4 -15 248.226 263.203   9
  -5   4  14 1818.84 817.878   6
  -5   4  13 4529.09 1297.82   6
  -5   4  12 72.6892 541.053   6
  -5   4  11-36.1408 239.058   6
  -5   4  10 5679.64 1321.61   6
  -5   4  10 4629.07 648.837   8
  -5   4   9 895.049 413.668   6
  -5   4   9 683.019 284.863   8
  -5   4   8 1764.90 726.029   6
  -5   4   8 1226.31 447.214   3
   5  -4  -8 1508.56 349.365   2
  -5   4   8 1375.19 413.277   8
  -5   4   7 299.086 406.933   6
  -5   4   7-24.2403 277.519   3
   5  -4  -7 263.222 177.646   2
  -5   4   7-166.329 200.102   8
  -5   4   6 355.093 279.085   6
  -5   4   6 623.800 347.203   3
  -5   4   6 498.836 259.986   2
   5  -4  -6 706.195 283.047   2
   5  -4  -5 5787.42 1161.16   4
  -5   4   5 6317.81 1227.78   6
  -5   4   5 7982.19 1169.77   3
   5  -4  -5 5515.04 784.751   2
  -5   4   5 5437.56 812.312   2
  -5   4   4 10135.7 1561.68   6
  -5   4   4 7139.45 1119.24   3
  -5   4   4 10476.5 1190.66   2
   5  -4  -4 9912.33 1488.78   4
  -5   4   3 13225.4 1707.39   6
  -5   4   3 12302.6 1493.15   3
  -5   4   3 11716.9 1290.80   2
   5  -4  -3 11510.9 1550.77   4
  -5   4   2 1123.13 398.980   2
   5  -4  -2 690.158 385.963   4
  -5   4   2 854.009 385.959   6
   5  -4  -1 4767.70 918.653   4
  -5   4   1 6079.79 1108.58   6
  -5   4   1 5325.02 928.002   2
  -5   4   0 21062.0 1861.44   2
   5  -4   0 21722.9 1867.44   4
  -5   4  -1 6868.21 1104.58   2
   5  -4   1 6304.88 957.184   4
  -5   4  -2 14410.8 1677.09   2
   5  -4   2 13756.7 1353.68   4
  -5   4  -3 941.584 311.511   4
  -5   4  -3 881.563 365.192   2
  -5   4  -4 4639.35 735.652   4
  -5   4  -4 5606.33 1066.88   2
   5  -4   4 5046.49 485.695   9
  -5   4  -5 2247.22 499.019   4
  -5   4  -5 2282.11 734.580   2
   5  -4   5 2184.17 352.331   9
   5  -4   6 5805.55 881.469   6
  -5   4  -6 6190.70 1180.05   2
  -5   4  -6 6749.85 828.556   4
   5  -4   7 9126.37 1086.12   6
  -5   4  -7 9429.92 1479.82   2
  -5   4  -7 10688.9 1029.71   4
  -5   4  -8-619.029 495.565   2
  -5   4  -8-23.5282 74.1601   4
  -5   4  -9 1385.64 585.155   2
  -5   4 -10 2600.40 862.496   7
  -5   4 -10 3477.81 929.013   2
  -5   4 -11 1527.39 690.662   7
  -5   4 -11 1965.52 735.852   2
  -5   4 -12 1491.63 685.203   7
  -5   4 -12 1360.61 643.386   2
   5  -4  12 1176.07 285.673   6
  -5   4 -13 5143.73 1262.22   7
  -5   4 -13 4306.38 1157.09   2
  -5   4 -13 6633.84 1428.29   3
  -5   4 -14 14157.1 2202.43   7
  -5   4 -14 16767.0 2259.60   3
  -5   4 -14 14022.7 2089.99   2
  -5   4 -15-119.957 450.966   7
  -5   4 -15-683.894 493.641   2
  -5   4 -15-31.8497 428.498   3
  -5   4 -16 765.302 642.734   7
  -5   4 -16 541.685 512.322   2
  -5   4 -16 668.731 493.823   3
  -5   4 -17 371.991 583.152   7
  -5   4 -17 1051.28 615.840   2
  -5   4 -18 396.923 681.043   7
  -5   4 -18-139.193 201.533   2
  -5   4 -19-976.661 709.678   7
  -5   4 -19 398.446 381.984   2
   5  -3 -19 555.154 588.941   4
  -5   3  19 259.170 528.150   6
   5  -3 -18 1081.65 807.325   4
  -5   3  18 1623.65 1080.42   6
   5  -3 -18 1129.30 696.585   9
   5  -3 -17-184.610 487.214   4
  -5   3  17 1136.45 601.136   6
   5  -3 -17 483.770 483.977   9
   5  -3 -16 731.774 501.314   4
  -5   3  16 535.769 879.263   6
   5  -3 -15 1964.00 1050.78   4
  -5   3  15 8.85467 289.302   6
   5  -3 -14 1430.73 695.101   4
  -5   3  14 1883.17 806.794   6
  -5   3  13 437.676 493.458   6
  -5   3  12 1058.28 619.791   6
  -5   3  11 10891.9 1881.08   6
  -5   3  11 12564.3 1104.49   8
  -5   3  10 660.740 479.354   6
  -5   3  10 387.110 220.947   8
   5  -3  -9 1428.37 680.033   4
  -5   3   9 868.805 509.016   6
   5  -3  -9 1514.86 364.415   2
  -5   3   9 1836.21 446.211   8
   5  -3  -8 10858.4 1764.56   4
  -5   3   8 9643.79 1636.20   6
   5  -3  -8 10245.8 1030.15   2
  -5   3   8 11955.3 1254.23   8
   5  -3  -7 1101.24 480.656   4
  -5   3   7 1451.33 468.958   3
  -5   3   7 1178.84 534.294   6
   5  -3  -7 1795.68 450.513   2
  -5   3   7 1056.12 392.390   8
   5  -3  -6 1081.26 540.260   4
  -5   3   6 1232.97 504.655   6
  -5   3   6 796.629 369.999   3
   5  -3  -6 652.220 285.496   2
  -5   3   5 13034.0 1745.31   6
  -5   3   5 12556.1 1436.93   3
  -5   3   5 11153.0 1190.79   2
   5  -3  -5 11826.3 1657.30   4
  -5   3   4 10363.4 1512.07   6
  -5   3   4 9701.39 1291.25   3
  -5   3   4 9591.39 1147.10   2
   5  -3  -4 9705.86 1443.70   4
   5  -3  -3-21.5380 181.107   4
  -5   3   3 874.151 415.172   6
  -5   3   3 538.074 344.028   3
  -5   3   3 139.872 211.495   2
  -5   3   2 742.257 291.240   2
   5  -3  -2 473.859 318.532   4
  -5   3   2 733.922 395.423   3
   5  -3  -1 1095.20 416.493   4
  -5   3   1 2405.91 621.036   2
  -5   3   1 1319.48 484.192   3
  -5   3   0 2371.53 594.095   2
  -5   3   0 3127.39 777.400   3
   5  -3   0 2628.75 645.987   4
  -5   3  -1 476.836 363.573   2
   5  -3   1 643.446 309.588   4
  -5   3  -2 6131.87 912.435   4
  -5   3  -2 6961.41 1169.68   2
  -5   3  -3 6776.44 1152.10   2
  -5   3  -3 6304.86 911.248   4
   5  -3   4 30877.6 1436.63   9
  -5   3  -4 32798.7 2551.19   2
  -5   3  -4 34897.0 2098.64   4
  -5   3  -5 1699.79 561.949   2
   5  -3   5 2109.06 407.718   9
  -5   3  -5 2239.04 506.198   4
  -5   3  -6 857.078 455.671   2
   5  -3   6 824.906 274.744   9
  -5   3  -6 351.488 242.314   4
  -5   3  -7 507.956 372.253   2
  -5   3  -8-143.370 189.614   2
  -5   3  -9 302.359 353.219   7
  -5   3  -9 1173.41 535.212   2
  -5   3  -9 1637.38 627.732   3
  -5   3 -10 639.402 492.831   7
  -5   3 -10 343.925 313.025   2
  -5   3 -10 371.590 312.857   3
  -5   3 -11 3879.04 1035.51   7
  -5   3 -11 3321.73 978.025   2
  -5   3 -11 4615.49 1096.94   3
  -5   3 -12 4886.44 1228.63   7
  -5   3 -12 2463.47 909.035   2
  -5   3 -12 4281.06 1107.58   3
   5  -3  12 3737.81 581.070   6
  -5   3 -13 26193.7 2696.77   3
  -5   3 -13 25213.8 2782.91   2
  -5   3 -13 24215.3 2799.82   7
  -5   3 -14 1836.80 826.769   7
  -5   3 -14 1149.11 693.591   2
  -5   3 -14 1724.79 704.942   3
  -5   3 -15 1575.40 694.022   7
  -5   3 -15 2961.33 981.269   2
  -5   3 -15 1581.48 628.492   3
  -5   3 -16 96.7473 277.194   7
  -5   3 -16 101.774 262.361   2
  -5   3 -17-237.469 337.960   7
  -5   3 -17 715.213 581.118   2
  -5   3 -18 321.009 493.796   7
  -5   3 -18-475.930 436.055   2
  -5   3 -19 375.057 391.885   7
   5  -2 -19 307.789 463.526   4
  -5   2  18-419.244 452.018   6
   5  -2 -18 899.047 759.461   4
   5  -2 -17 1955.73 1103.00   4
  -5   2  17 457.689 373.560   6
   5  -2 -16 942.121 732.720   4
  -5   2  16 333.331 447.472   6
   5  -2 -15 428.582 521.432   4
  -5   2  15-99.4798 219.280   6
   5  -2 -14-317.911 583.484   4
  -5   2  14 847.086 630.153   6
   5  -2 -13-739.953 577.459   4
  -5   2  13 518.786 467.877   6
   5  -2 -12 6882.99 1556.84   4
  -5   2  12 7198.55 1542.03   6
  -5   2  12 6940.30 867.689   8
   5  -2 -11-181.852 162.616   4
  -5   2  11 394.285 405.704   6
  -5   2  11-344.908 204.224   8
   5  -2 -10 6543.57 1436.72   4
  -5   2  10 6054.56 1368.35   6
  -5   2  10 5921.29 844.907   8
   5  -2  -9 7335.29 1498.04   4
  -5   2   9 7315.11 1432.78   6
   5  -2  -9 6898.88 887.196   2
  -5   2   9 7743.63 1002.98   8
   5  -2  -8 307.656 281.881   4
   5  -2  -8 1010.41 329.146   2
  -5   2   8 1471.56 561.047   6
  -5   2   8 949.052 418.465   8
   5  -2  -7 332.021 109.352   4
  -5   2   7 66.8880 167.914   6
   5  -2  -7 169.651 216.297   2
  -5   2   7 692.260 303.207   8
   5  -2  -6 565.445 325.746   4
  -5   2   6 745.130 554.108   6
  -5   2   6 367.339 226.513   8
  -5   2   5 14067.6 1551.97   3
  -5   2   5 13476.2 1360.19   2
   5  -2  -5 12526.6 1672.79   4
   5  -2  -4 1238.95 533.492   4
  -5   2   4 1264.62 452.287   3
  -5   2   4 872.746 377.544   2
  -5   2   3 15881.0 1649.94   3
  -5   2   3 18089.5 1618.20   2
   5  -2  -3 19938.2 1942.02   4
   5  -2  -2 593.143 369.847   4
  -5   2   2 1088.83 451.059   3
  -5   2   2 797.808 374.056   2
  -5   2   1 5246.62 959.940   3
   5  -2  -1 4341.40 850.243   4
  -5   2   1 5510.26 959.864   2
  -5   2   0 2736.63 676.892   2
  -5   2   0 3639.52 847.029   3
   5  -2   0 2396.47 631.730   4
  -5   2  -1 27070.9 2280.31   3
  -5   2  -1 26869.6 2190.02   2
  -5   2  -2 11155.0 1502.64   3
  -5   2  -2 13544.0 1565.11   2
  -5   2  -3 27158.9 2349.72   3
  -5   2  -3 30020.0 2369.70   2
  -5   2  -3 31161.4 2078.94   4
  -5   2  -4 2816.58 773.319   2
  -5   2  -4 2746.10 782.738   3
  -5   2  -4 2440.94 580.054   4
  -5   2  -5 32444.2 2658.55   3
   5  -2   5 34594.3 1811.44   9
  -5   2  -5 35961.2 2708.47   2
  -5   2  -6 16739.4 1916.15   3
   5  -2   6 17608.6 1375.84   9
  -5   2  -6 19026.2 2012.71   2
  -5   2  -7 8446.12 1376.65   2
  -5   2  -7 6138.44 1181.86   3
  -5   2  -8 1479.87 586.887   7
  -5   2  -8 2029.92 773.283   2
  -5   2  -8 1675.25 653.686   3
  -5   2  -9 101.475 321.955   7
  -5   2  -9-125.048 137.525   2
  -5   2  -9-183.246 262.348   3
  -5   2 -10 7498.78 1400.63   7
  -5   2 -10 7358.42 1381.16   2
  -5   2 -10 7204.26 1347.47   3
  -5   2 -11 24.4769 178.696   7
  -5   2 -11-283.957 280.531   2
  -5   2 -11 247.191 283.119   3
   5  -2  11 62.3141 155.385   6
  -5   2 -12 5803.82 1320.72   7
   5  -2  12 6991.23 878.512   6
  -5   2 -12 6104.24 1290.48   2
  -5   2 -12 6929.67 1355.88   3
  -5   2 -13 2153.76 804.773   7
  -5   2 -13 2018.52 759.867   2
  -5   2 -13 2756.22 833.759   3
   5  -2  13 2583.72 537.908   6
  -5   2 -14 23.5854 253.478   2
  -5   2 -14 686.248 469.532   3
  -5   2 -15-449.515 545.881   7
  -5   2 -15-35.2353 164.036   2
  -5   2 -15 100.938 376.313   3
  -5   2 -16 1919.97 899.858   7
  -5   2 -16 3537.85 1071.45   2
  -5   2 -17 519.591 690.638   7
  -5   2 -17 362.465 460.239   2
  -5   2 -18 1.29029 181.227   7
  -5   2 -19 480.951 658.889   7
   5  -1 -20 1742.41 1062.71   4
   5  -1 -19 55.1527 248.636   4
   5  -1 -18-445.621 497.743   4
   5  -1 -17 1468.36 845.208   4
   5  -1 -16 2729.18 1051.59   4
  -5   1  15 716.894 523.138   6
   5  -1 -15 1081.21 798.980   4
  -5   1  14 415.173 248.033   6
   5  -1 -14 190.214 250.389   4
  -5   1  13 2441.09 970.784   6
   5  -1 -13 1751.08 819.779   4
  -5   1  12 1300.50 582.035   6
   5  -1 -12 365.366 322.969   4
  -5   1  12 867.044 352.404   8
  -5   1  11 4364.20 1115.64   6
   5  -1 -11 3832.82 1079.49   4
  -5   1  11 3885.20 710.970   8
  -5   1  10 664.376 428.743   6
   5  -1 -10 854.584 505.638   4
  -5   1  10 1276.59 410.290   8
   5  -1  -9 2403.65 874.495   4
  -5   1   9 2098.36 541.242   8
   5  -1  -8 2147.86 766.511   4
  -5   1   8 2868.07 661.719   8
   5  -1  -7 2117.84 735.083   4
  -5   1   7 2298.57 610.751   8
   5  -1  -6 508.856 311.312   4
  -5   1   6 1012.01 464.592   8
   5  -1  -5 5153.29 1048.12   4
  -5   1   5 5020.15 898.987   8
   5  -1  -4 5271.34 1007.97   4
  -5   1   4 5523.11 979.850   3
  -5   1   4 5771.00 929.372   2
  -5   1   3 3479.22 760.147   3
  -5   1   3 5134.10 870.564   2
   5  -1  -3 5128.01 983.204   4
  -5   1   2 17738.1 1774.85   3
  -5   1   2 19276.8 1734.53   2
   5  -1  -2 19917.9 1882.40   4
  -5   1   1 4359.26 869.862   3
  -5   1   1 4411.00 839.495   2
   5  -1  -1 5166.34 928.421   4
  -5   1   0 2791.81 733.007   3
  -5   1   0 2920.34 698.004   2
  -5   1  -1 40438.1 2761.07   3
  -5   1  -1 47634.9 2936.19   2
  -5   1  -2 253.510 205.444   2
  -5   1  -2 551.656 322.396   3
  -5   1  -3 2726.39 711.613   2
  -5   1  -3 3447.56 811.268   3
  -5   1  -4-58.1214 365.671   2
  -5   1  -4 212.201 197.355   3
  -5   1  -5 364.978 177.792   2
  -5   1  -5 303.443 207.586   3
  -5   1  -6 1583.66 554.365   2
  -5   1  -6 1961.78 625.854   3
  -5   1  -7 2719.00 779.603   7
  -5   1  -7 2030.54 678.509   2
  -5   1  -7 1584.06 647.713   3
  -5   1  -8 639.431 429.252   7
  -5   1  -8 484.619 388.095   2
  -5   1  -8 614.773 367.498   3
  -5   1  -9 35.6070 158.584   2
  -5   1  -9-216.510 328.173   3
  -5   1 -10 912.001 544.864   7
  -5   1 -10 325.310 303.240   2
  -5   1 -10 1023.13 526.963   3
  -5   1 -11 279.472 219.696   7
  -5   1 -11 192.347 144.480   2
  -5   1 -11 216.767 256.911   3
   5  -1  11 189.946 158.460   6
  -5   1 -12-58.9947 309.880   7
  -5   1 -12 23.4848 198.155   2
  -5   1 -12 305.343 384.129   3
   5  -1  12-128.632 133.775   6
  -5   1 -13 1132.12 572.047   7
  -5   1 -13 694.372 480.844   2
  -5   1 -13 2158.19 738.817   3
   5  -1  13 1808.45 491.783   6
  -5   1 -13 1452.34 671.973   5
  -5   1 -14 1440.53 679.445   7
  -5   1 -14 1545.13 713.294   2
  -5   1 -14 1516.45 635.438   3
  -5   1 -14 1570.80 752.514   5
  -5   1 -15 1698.04 824.174   7
  -5   1 -15 899.617 555.007   2
  -5   1 -15 386.545 289.880   5
  -5   1 -16-61.0410 388.693   7
  -5   1 -16 1001.40 645.075   2
  -5   1 -16 288.557 364.719   5
  -5   1 -17-40.1137 242.010   7
  -5   1 -17 599.647 392.813   2
  -5   1 -18 652.474 574.182   7
  -5   1 -19 62.9312 233.801   7
   5   0 -21-86.1443 407.661   4
   5   0 -20 377.705 702.402   4
   5   0 -19 26.5652 406.903   4
   5   0 -18 274.446 340.745   4
   5   0 -17-75.7732 486.751   4
   5   0 -16-326.215 598.173   4
   5   0 -15-133.025 503.184   4
   5   0 -14-219.967 379.288   4
   5   0 -13 256.848 377.794   4
  -5   0  13 87.8204 130.765   8
   5   0 -12 4128.47 1162.81   4
  -5   0  12 3900.67 758.113   8
   5   0 -11 196.976 253.102   4
  -5   0  11 287.197 259.363   8
   5   0 -10 308.698 371.829   4
  -5   0  10-84.9570 245.264   8
   5   0  -9 6931.57 1392.91   4
  -5   0   9 7179.65 1046.94   8
   5   0  -8-21.1050 380.781   4
  -5   0   8 92.5726 85.2280   8
   5   0  -7 7381.20 1361.90   4
  -5   0   7 9188.15 1203.31   8
   5   0  -6 126.568 116.102   4
  -5   0   6 198.023 177.536   8
  -5   0   5 17585.0 1682.33   8
   5   0  -5 16267.9 1852.81   4
  -5   0   4 385.242 330.666   8
   5   0  -4 576.597 298.342   4
  -5   0   3 18908.1 1742.53   2
   5   0  -3 15977.3 1720.07   4
  -5   0   2 5785.85 1006.99   2
   5   0  -2 5894.21 1029.66   4
  -5   0   1-291.067 295.331   3
  -5   0   1 284.262 261.496   2
  -5   0   0 16197.5 1752.92   3
  -5   0   0 18582.5 1788.73   2
  -5   0  -1 28524.1 2330.07   3
  -5   0  -1 33665.3 2468.72   2
  -5   0  -2 13386.6 1601.89   3
  -5   0  -2 12135.2 1494.96   2
  -5   0  -3 4889.43 999.201   3
  -5   0  -3 4636.18 913.412   2
  -5   0  -4-69.4929 390.569   2
  -5   0  -4 196.044 226.436   3
  -5   0  -5 45930.2 3109.38   3
  -5   0  -5 47312.8 3204.61   2
  -5   0  -6 283.637 301.846   2
  -5   0  -6 254.503 225.724   3
  -5   0  -7 3667.30 953.360   2
  -5   0  -7 2615.51 744.416   7
  -5   0  -7 3582.68 905.715   3
  -5   0  -8 223.849 135.308   7
  -5   0  -8-101.416 247.351   2
  -5   0  -8 144.026 322.661   3
  -5   0  -8 668.906 452.726   5
  -5   0  -9 2852.21 807.286   7
  -5   0  -9 2774.19 839.339   2
  -5   0  -9 2609.78 791.844   3
  -5   0  -9 2517.14 824.208   5
  -5   0 -10 411.134 315.920   7
  -5   0 -10 728.309 512.024   2
  -5   0 -10 436.255 334.822   3
  -5   0 -10 117.193 341.394   5
  -5   0 -11 819.144 261.467   7
  -5   0 -11 1920.93 709.334   2
  -5   0 -11 566.202 430.276   5
  -5   0 -11 1726.86 679.866   3
   5   0  11 939.757 355.018   6
  -5   0 -12-289.599 474.644   7
  -5   0 -12 922.229 590.242   2
   5   0  12-136.083 149.669   6
  -5   0 -12 786.737 546.491   5
  -5   0 -13 661.623 572.679   7
  -5   0 -13-18.9932 238.181   2
   5   0  13 479.304 297.053   6
  -5   0 -13 754.688 451.325   5
  -5   0 -14 44.5222 317.107   2
  -5   0 -14 378.186 437.714   7
   5   0  14 607.469 275.834   6
  -5   0 -14 464.573 159.238   5
  -5   0 -15-351.160 385.840   2
  -5   0 -15 117.773 258.563   7
  -5   0 -15 477.921 522.425   5
  -5   0 -16 424.356 519.313   7
  -5   0 -16 211.031 308.129   5
  -5   0 -16 303.496 319.174   2
  -5   0 -17 61.5385 363.956   7
  -5   0 -17 863.724 597.687   5
  -5   0 -18-615.986 558.546   7
  -5   0 -18 1.18911 284.814   5
  -5   0 -19 250.380 351.151   5
   5   1 -21 989.649 765.196   4
   5   1 -20 671.180 776.931   4
   5   1 -19-864.543 670.380   4
   5   1 -18 15.3033 351.980   4
   5   1 -17 2923.30 1205.76   4
   5   1 -16-153.901 302.009   4
   5   1 -15 445.086 395.909   4
   5   1 -14 473.536 425.654   4
  -5  -1  14-112.658 258.897   8
   5   1 -13 1071.25 500.570   4
  -5  -1  13 343.876 254.614   8
   5   1 -12 428.572 391.185   4
  -5  -1  12 145.874 265.056   8
   5   1 -11 1331.73 630.077   4
  -5  -1  11 1122.50 432.718   8
   5   1 -10 4338.95 1125.88   4
  -5  -1  10 5994.51 980.025   8
   5   1  -9 2794.76 877.776   4
  -5  -1   9 2864.95 677.059   8
   5   1  -8 690.699 425.971   4
  -5  -1   8 198.635 160.827   8
  -5  -1   7 8361.34 1167.46   8
   5   1  -7 7035.79 1285.44   4
  -5  -1   6 1048.46 413.083   8
   5   1  -6 752.768 388.218   4
  -5  -1   5 2608.52 712.853   8
   5   1  -5 3136.90 827.489   4
   5   1  -4 10.9470 135.983   4
  -5  -1   4-12.1025 189.260   8
  -5  -1   3 4525.26 892.535   8
  -5  -1   2 10195.5 1329.59   2
  -5  -1   1 12505.3 1489.23   2
  -5  -1   0 229.732 206.811   2
  -5  -1  -1 12017.7 1503.73   2
   5   1   1 13244.4 1184.51   7
  -5  -1  -2 25060.2 2175.15   2
   5   1   2 25004.7 1712.83   7
  -5  -1  -3 13606.7 1624.92   2
  -5  -1  -4 17885.3 1920.78   2
  -5  -1  -5 939.917 440.555   2
  -5  -1  -6 5294.11 1070.97   2
  -5  -1  -7 3317.96 803.061   7
  -5  -1  -7 1897.01 725.039   5
  -5  -1  -7 2617.20 792.874   2
  -5  -1  -8 5953.97 1194.55   7
  -5  -1  -8 5958.94 1308.34   5
  -5  -1  -8 4011.88 1007.75   2
  -5  -1  -9-241.553 242.272   7
  -5  -1  -9 298.658 521.785   5
  -5  -1  -9-46.5617 168.428   2
  -5  -1 -10 83.2362 246.614   7
   5   1  10 196.113 139.033   6
  -5  -1 -10 817.663 435.704   5
  -5  -1 -10 419.115 368.060   2
  -5  -1 -11 683.736 606.370   5
  -5  -1 -11 800.914 376.165   7
   5   1  11 396.019 245.377   6
  -5  -1 -11 1249.98 590.967   2
  -5  -1 -12 1227.75 615.102   7
  -5  -1 -12 450.356 247.215   5
   5   1  12 1017.65 434.963   6
  -5  -1 -12 2037.11 711.497   2
  -5  -1 -13 1581.81 761.814   7
  -5  -1 -13 3489.63 1052.17   5
   5   1  13 2864.24 710.905   6
  -5  -1 -13 3103.62 917.711   2
  -5  -1 -14-6.97474 258.367   7
   5   1  14 483.388 315.033   6
  -5  -1 -14 365.152 357.454   5
  -5  -1 -14-41.1297 189.138   2
  -5  -1 -15 3002.83 1112.12   7
  -5  -1 -15 1436.56 738.376   5
  -5  -1 -15 1673.62 638.503   2
  -5  -1 -16 923.588 647.317   7
  -5  -1 -16-452.254 441.482   5
  -5  -1 -17 1318.04 805.595   7
  -5  -1 -17 865.789 691.057   5
  -5  -1 -18 179.857 410.858   7
  -5  -1 -18 75.2751 233.715   5
  -5  -1 -19 323.799 419.578   5
   5   2 -22 819.600 701.454   4
   5   2 -21 4226.99 1569.28   4
   5   2 -20-389.520 340.013   4
   5   2 -19-86.2519 356.376   4
   5   2 -18 151.861 246.305   4
   5   2 -17 33.7874 354.500   4
   5   2 -16 1148.94 785.895   4
   5   2 -15 789.547 448.998   4
  -5  -2  15 1139.00 449.505   8
   5   2 -14 5264.24 1363.32   4
  -5  -2  14 5379.97 962.383   8
   5   2 -13 2031.06 742.178   4
  -5  -2  13 3524.78 790.640   8
   5   2 -12 3912.13 1111.98   4
  -5  -2  12 2504.09 650.848   8
   5   2 -11 1961.53 729.299   4
  -5  -2  11 3495.11 772.172   8
  -5  -2  10 11601.7 1433.83   8
   5   2 -10 12248.4 1868.01   4
  -5  -2   9 2676.30 698.825   8
   5   2  -9 2523.36 791.979   4
  -5  -2   8 155.821 107.580   8
   5   2  -8 1158.98 573.305   4
  -5  -2   7 6010.70 1051.04   8
   5   2  -7 4776.94 1054.79   4
  -5  -2   6 5805.57 994.016   8
   5   2  -6 5775.46 1141.36   4
   5   2  -5 470.124 310.797   4
  -5  -2   5 636.174 451.672   8
  -5  -2   4 2621.05 698.552   8
  -5  -2   3 968.104 516.147   8
  -5  -2   2 7735.93 1207.85   8
  -5  -2   1 11521.5 1460.66   2
  -5  -2   1 10558.0 1416.99   8
   5   2   0 90.2512 61.2107   7
  -5  -2   0-54.3927 205.622   2
  -5  -2  -1 17574.7 1831.37   2
   5   2   1 14598.4 1195.29   7
  -5  -2  -2 61965.2 3478.63   2
   5   2   2 59425.2 2549.99   7
  -5  -2  -3 16833.9 1844.21   2
  -5  -2  -4 86.0286 209.022   7
  -5  -2  -4-199.592 308.184   2
  -5  -2  -5 202.725 249.924   2
  -5  -2  -6 256.814 318.805   5
  -5  -2  -6 478.078 332.052   2
  -5  -2  -7 5603.32 1052.83   7
  -5  -2  -7 5165.24 1178.91   5
  -5  -2  -7 5138.45 1073.89   2
  -5  -2  -8 363.050 299.143   7
  -5  -2  -8 310.787 352.898   2
  -5  -2  -8 733.108 301.976   5
  -5  -2  -9 540.651 380.069   7
  -5  -2  -9 511.310 426.316   5
  -5  -2  -9 111.004 250.935   2
  -5  -2 -10 174.867 223.248   7
  -5  -2 -10 304.894 330.523   5
   5   2  10 755.585 353.816   6
  -5  -2 -10 1169.38 576.689   2
  -5  -2 -11 779.313 481.354   7
   5   2  11 1382.74 511.128   6
  -5  -2 -11 3050.12 995.285   5
  -5  -2 -11 2129.51 765.005   2
  -5  -2 -12 4904.79 1241.21   7
   5   2  12 4425.65 940.337   6
  -5  -2 -12 4800.69 1164.63   2
  -5  -2 -12 4334.13 1187.97   5
  -5  -2 -13-49.7106 330.115   7
   5   2  13 406.921 287.600   6
  -5  -2 -13 290.887 390.879   5
  -5  -2 -13 358.757 357.209   2
  -5  -2 -14 4574.85 1274.66   7
   5   2  14 2655.66 743.111   6
  -5  -2 -14 3745.10 1193.34   5
  -5  -2 -14 4517.22 1170.17   2
  -5  -2 -15-258.421 355.303   7
  -5  -2 -15 527.892 478.292   5
  -5  -2 -16 3224.49 1197.09   7
  -5  -2 -16 3018.59 1093.38   5
  -5  -2 -17 330.577 349.286   7
  -5  -2 -17-91.7107 258.293   5
  -5  -2 -18-415.707 485.506   7
  -5  -2 -18 1069.98 743.984   5
  -5  -2 -19 1546.04 937.777   5
   5   3 -22-260.105 403.801   4
   5   3 -21 1096.42 908.272   4
   5   3 -20 935.572 674.176   4
   5   3 -19 1221.88 831.608   4
   5   3 -18-100.701 447.080   4
   5   3 -17-284.317 414.587   4
   5   3 -16-129.409 299.907   4
  -5  -3  16-171.120 198.982   8
   5   3 -15 4521.54 1256.32   4
  -5  -3  15 2155.36 627.200   8
  -5  -3  14 1410.25 504.570   8
   5   3 -14 877.825 560.097   4
  -5  -3  13 806.130 353.499   8
   5   3 -13 4.49719 469.561   4
  -5  -3  12 6005.51 1043.08   8
   5   3 -12 6060.04 1386.49   4
  -5  -3  11 10451.2 1381.57   8
   5   3 -11 12897.7 1935.23   4
  -5  -3  10 12969.0 1545.16   8
   5   3 -10 14462.4 2025.58   4
  -5  -3   9 4373.25 872.818   8
   5   3  -9 3919.15 1018.03   4
  -5  -3   8 5690.98 1021.53   8
   5   3  -8 3935.88 997.816   4
  -5  -3   7 2609.37 707.421   8
   5   3  -7 2450.09 777.112   4
  -5  -3   6 168.569 189.301   8
  -5  -3   5 491.912 367.126   8
  -5  -3   4 7926.47 1259.12   8
  -5  -3   3 26453.8 2254.97   8
  -5  -3   2 218.331 228.414   8
   5   3  -1 1521.77 322.460   7
  -5  -3   1 1892.97 652.991   8
  -5  -3   0 24827.5 2196.65   8
   5   3   0 24088.0 1366.09   7
  -5  -3  -1 40225.7 2863.79   2
  -5  -3  -1 38542.7 2733.88   8
   5   3   1 34993.9 1764.14   7
  -5  -3  -2 934.607 395.029   2
  -5  -3  -3 4453.20 726.599   7
  -5  -3  -3 4577.90 979.629   2
  -5  -3  -4 23.6307 74.2880   7
  -5  -3  -4 139.059 248.793   2
  -5  -3  -5 382.402 352.605   2
  -5  -3  -6 6564.16 1308.65   5
  -5  -3  -6 5461.91 1098.99   2
  -5  -3  -7 3826.58 890.478   7
  -5  -3  -7 4047.36 948.512   2
  -5  -3  -7 6236.53 1279.37   5
  -5  -3  -8 2498.27 730.831   7
  -5  -3  -8 3424.27 964.314   5
  -5  -3  -8 1678.24 631.613   2
  -5  -3  -9 76.2282 146.768   7
   5   3   9 391.957 345.677   6
  -5  -3  -9 311.155 234.476   5
  -5  -3  -9 178.020 153.269   2
  -5  -3 -10-307.607 374.133   7
   5   3  10 169.411 320.697   6
  -5  -3 -10-122.293 188.120   2
  -5  -3 -10-779.537 577.994   5
  -5  -3 -11 593.473 440.649   7
   5   3  11 1965.08 645.186   6
  -5  -3 -11 630.588 501.981   5
  -5  -3 -11 372.822 319.676   2
  -5  -3 -12 2623.22 883.786   7
   5   3  12 3224.13 840.927   6
  -5  -3 -12 2448.44 921.219   5
  -5  -3 -12 2030.21 761.029   2
  -5  -3 -13 6137.18 1457.09   7
   5   3  13 6324.43 1168.47   6
  -5  -3 -13 6196.55 1302.57   2
  -5  -3 -13 5041.54 1412.04   5
  -5  -3 -14 142.205 220.878   7
   5   3  14 448.444 389.458   6
  -5  -3 -14 610.866 523.919   5
  -5  -3 -15 5520.97 1492.26   7
   5   3  15 3942.91 990.844   6
  -5  -3 -15 3397.97 1217.08   5
  -5  -3 -16 127.144 394.537   7
  -5  -3 -16 731.786 719.192   5
  -5  -3 -17-389.606 448.719   7
  -5  -3 -17 357.424 466.104   5
  -5  -3 -18 326.668 434.194   5
   5   4 -21 513.643 518.749   7
   5   4 -21-1099.84 750.769   4
   5   4 -20 552.768 530.507   4
   5   4 -19 318.843 402.437   4
   5   4 -18 674.054 638.933   4
  -5  -4  17 1055.15 517.066   8
   5   4 -17 1272.22 755.948   4
   5   4 -16 510.460 551.579   4
  -5  -4  16 232.083 262.999   8
  -5  -4  15 2.87127 109.945   8
   5   4 -15 277.385 450.259   4
  -5  -4  14 5683.42 1079.77   8
   5   4 -14 5267.12 1349.96   4
  -5  -4  13 20594.7 2042.21   8
   5   4 -13 21868.3 2646.25   4
  -5  -4  12-184.632 265.698   8
   5   4 -12-149.937 314.185   4
  -5  -4  11-10.8260 327.999   8
   5   4 -11 419.107 379.203   4
  -5  -4  10 2465.75 681.894   8
   5   4 -10 1350.41 653.158   4
  -5  -4   9 3292.77 792.337   8
   5   4  -9 4092.90 1048.59   4
  -5  -4   8 2565.60 726.482   8
  -5  -4   7 382.477 160.310   8
   5   4  -7 918.557 356.484   5
  -5  -4   6 878.382 356.964   8
  -5  -4   5 2606.45 694.867   8
  -5  -4   4 5632.53 1099.02   8
  -5  -4   3 8817.98 1331.56   8
  -5  -4   2 18390.8 1911.93   8
   5   4  -2 13245.8 793.931   7
  -5  -4   1 13901.4 1694.49   8
   5   4  -1 11103.8 779.547   7
  -5  -4   0 4983.56 990.949   8
  -5  -4  -1 3775.75 867.341   8
  -5  -4  -2 1012.35 330.946   7
  -5  -4  -2 696.366 430.594   8
  -5  -4  -3 6229.96 1128.88   8
  -5  -4  -3 6124.00 853.641   7
  -5  -4  -4 92.4672 125.181   7
  -5  -4  -4-132.932 336.134   2
  -5  -4  -4-239.244 381.598   8
  -5  -4  -5 261.286 171.124   2
  -5  -4  -5 904.102 427.693   5
  -5  -4  -5 1233.13 447.063   8
  -5  -4  -6 1639.75 585.228   2
  -5  -4  -6 2100.59 820.270   5
  -5  -4  -6 1815.74 647.507   8
  -5  -4  -7 4866.86 1017.10   7
  -5  -4  -7 5001.71 1085.74   2
  -5  -4  -7 3240.03 995.835   5
  -5  -4  -8 614.943 327.979   7
  -5  -4  -8 335.180 295.257   2
  -5  -4  -8 409.521 323.395   5
  -5  -4  -9 153.566 210.287   7
   5   4   9-193.968 234.507   6
  -5  -4  -9 344.081 343.773   2
  -5  -4  -9 193.319 276.471   5
  -5  -4 -10 207.459 252.991   7
   5   4  10 83.1443 322.639   6
  -5  -4 -10 196.828 146.585   2
  -5  -4 -10-338.491 300.973   5
  -5  -4 -11 6626.14 1403.48   7
   5   4  11 4743.67 1055.49   6
  -5  -4 -11 4443.26 1098.30   2
  -5  -4 -11 8223.99 1704.49   5
  -5  -4 -11 5674.45 1117.08   8
  -5  -4 -12 5979.64 1399.16   7
   5   4  12 6105.07 1167.59   6
  -5  -4 -12 6987.88 1346.42   2
  -5  -4 -12 6626.45 1570.74   5
  -5  -4 -13-112.517 366.442   7
   5   4  13 548.084 431.215   6
  -5  -4 -13 355.451 442.221   5
  -5  -4 -14 2690.74 1057.35   7
  -5  -4 -14 1361.94 778.887   5
   5   4  14 1390.78 626.156   6
  -5  -4 -15-354.795 416.162   7
   5   4  15 433.916 398.069   6
  -5  -4 -15-981.329 678.606   5
  -5  -4 -16 317.051 452.746   7
  -5  -4 -16-842.962 648.544   5
  -5  -4 -17-165.170 318.535   7
  -5  -4 -17 382.234 497.865   5
   5   5 -22-126.424 264.181   7
   5   5 -21-1076.46 735.337   4
   5   5 -21 639.815 539.799   7
   5   5 -20 1825.03 895.912   4
   5   5 -20 1409.34 784.320   7
   5   5 -19-522.488 592.716   4
   5   5 -19 151.883 308.248   7
   5   5 -18 850.895 724.659   4
  -5  -5  17-93.4683 230.817   8
   5   5 -17-33.4555 359.672   4
  -5  -5  16 99.8799 269.180   8
   5   5 -16-155.584 408.093   4
  -5  -5  15 3280.13 930.343   8
   5   5 -15 1805.98 831.306   4
  -5  -5  14 16574.7 1930.93   8
   5   5 -14 17695.6 2427.50   4
  -5  -5  13-265.318 320.270   8
   5   5 -13 140.651 207.123   4
  -5  -5  12 397.511 240.443   8
   5   5 -12-249.173 214.296   4
  -5  -5  11 3573.70 939.651   8
  -5  -5  10 200.320 260.322   8
   5   5 -10 640.722 273.308   5
  -5  -5   9 12265.6 1602.32   8
   5   5  -9 10132.8 1075.29   5
   5   5  -8 91.9804 129.010   5
  -5  -5   8-225.345 239.914   8
   5   5  -7 990.903 362.363   5
  -5  -5   7 425.766 167.910   8
  -5  -5   6 468.067 288.702   8
  -5  -5   5 733.841 445.571   8
  -5  -5   4 119.584 337.190   8
  -5  -5   3 1308.72 556.987   8
  -5  -5   2 4226.94 980.576   8
  -5  -5   1-90.3317 212.240   8
  -5  -5   0 21551.7 2114.06   8
  -5  -5  -1 126.467 149.098   5
  -5  -5  -1 406.109 254.593   8
  -5  -5  -2 11162.3 1519.90   8
  -5  -5  -2 10641.2 1584.35   5
  -5  -5  -2 9604.31 971.397   7
  -5  -5  -3 8655.33 1390.30   8
  -5  -5  -3 8383.90 1425.44   5
  -5  -5  -3 8833.74 1029.70   7
  -5  -5  -4 4042.24 763.621   7
  -5  -5  -4 4145.77 1046.64   5
  -5  -5  -4 4590.07 987.401   8
  -5  -5  -5 7450.88 1398.58   5
  -5  -5  -5 6395.31 1164.86   8
  -5  -5  -6 470.302 423.716   5
  -5  -5  -6-104.104 240.114   8
  -5  -5  -7 460.547 111.373   7
  -5  -5  -7 537.646 230.237   5
  -5  -5  -7 784.651 473.827   8
  -5  -5  -8 2729.58 793.616   7
   5   5   8 3098.35 805.141   6
  -5  -5  -8 2215.48 839.819   5
  -5  -5  -8 2625.80 758.848   8
  -5  -5  -9-180.707 264.317   7
   5   5   9 142.388 162.066   6
  -5  -5  -9 65.6496 212.308   5
  -5  -5  -9 633.834 399.130   8
  -5  -5 -10 4205.26 1078.52   7
   5   5  10 2734.87 801.681   6
  -5  -5 -10 2997.15 1012.77   5
  -5  -5 -10 3236.00 830.027   8
  -5  -5 -11 3217.00 939.959   7
   5   5  11 5126.90 1108.00   6
  -5  -5 -11 4924.04 1340.10   5
  -5  -5 -12 846.166 577.220   7
   5   5  12 1788.27 649.895   6
  -5  -5 -12 851.806 517.077   5
  -5  -5 -13 313.751 352.110   7
  -5  -5 -13 1299.70 833.428   5
   5   5  13 381.748 326.051   6
  -5  -5 -14 2377.86 975.260   7
   5   5  14 1309.70 605.327   6
  -5  -5 -14 2183.85 1035.85   5
  -5  -5 -15 446.350 406.117   5
  -5  -5 -15 258.700 370.327   7
   5   5  15-800.394 493.354   6
  -5  -5 -16 1305.45 839.666   7
  -5  -5 -16 1163.75 789.705   5
  -5  -5 -17 70.9092 418.312   7
   5   6 -21-141.030 269.446   7
   5   6 -20 1348.68 783.849   4
   5   6 -20 35.0589 310.455   7
   5   6 -19 114.438 456.539   4
   5   6 -19-332.178 362.142   7
  -5  -6  18 290.884 289.274   8
   5   6 -18 561.234 552.573   4
   5   6 -18 268.153 316.678   7
  -5  -6  17 133.920 267.097   8
   5   6 -17-362.525 343.392   7
  -5  -6  16 1637.10 649.711   8
   5   6 -16 707.914 690.671   4
   5   6 -16 1106.16 570.580   7
  -5  -6  15 680.675 356.792   8
   5   6 -15 244.116 216.879   4
  -5  -6  14 590.303 392.854   8
  -5  -6  13 5814.72 1171.62   8
  -5  -6  12 1129.69 438.130   8
  -5  -6  11 1559.08 516.212   8
   5   6 -10 8438.77 902.154   5
  -5  -6  10 9041.53 1429.95   8
  -5  -6   9-144.987 366.690   8
   5   6  -9 110.406 151.157   5
   5   6  -8 42.3888 76.2746   5
  -5  -6   8-43.0121 177.204   8
   5   6  -7 2562.40 561.632   5
  -5  -6   7 1471.78 545.332   8
  -5  -6   6 472.712 308.699   8
   5   6  -6 532.489 148.281   7
  -5  -6   5 216.056 278.329   8
  -5  -6   4 13973.9 1743.64   8
  -5  -6   3 579.205 371.008   8
  -5  -6   2 3454.80 872.932   8
  -5  -6   1 20324.3 2103.97   8
  -5  -6   0 782.512 414.970   5
  -5  -6   0 435.509 364.649   8
  -5  -6  -1 12251.6 1611.01   8
  -5  -6  -1 11051.0 1611.63   5
  -5  -6  -1 10894.4 908.831   7
  -5  -6  -2 8919.49 1484.76   5
  -5  -6  -2 7940.90 1305.55   8
  -5  -6  -2 7678.92 861.649   7
  -5  -6  -3 604.377 247.711   7
  -5  -6  -3 1737.26 642.380   5
  -5  -6  -3 1399.73 608.160   8
  -5  -6  -4 6560.85 1348.94   5
  -5  -6  -4 5547.76 1130.92   8
  -5  -6  -4 6167.84 977.220   7
  -5  -6  -5 3153.59 981.560   5
  -5  -6  -5 2914.62 797.622   8
  -5  -6  -6 534.262 370.971   5
  -5  -6  -6 232.094 201.144   8
  -5  -6  -7-60.2251 308.889   5
   5   6   7 358.094 187.290   6
  -5  -6  -7-176.567 175.120   8
  -5  -6  -8 1788.10 680.869   7
   5   6   8 1164.52 534.027   6
  -5  -6  -8 1234.78 626.557   5
  -5  -6  -8 1120.18 543.065   8
  -5  -6  -9 151.224 147.134   7
   5   6   9-195.214 141.948   6
  -5  -6  -9-63.1860 119.319   8
  -5  -6 -10 893.611 551.372   7
   5   6  10 1607.76 619.306   6
  -5  -6 -10 1264.38 670.239   5
  -5  -6 -10 1172.63 545.720   8
  -5  -6 -11 2705.90 922.249   7
  -5  -6 -11 4476.48 1313.15   5
   5   6  11 3169.48 931.617   6
  -5  -6 -12 1978.32 876.375   7
   5   6  12 1395.85 617.545   6
  -5  -6 -12 582.369 570.736   5
  -5  -6 -13 323.845 373.577   7
   5   6  13 379.124 271.871   6
  -5  -6 -13-264.566 371.458   5
  -5  -6 -14 15.5931 153.156   7
   5   6  14 249.485 150.354   6
  -5  -6 -14 409.473 587.783   5
  -5  -6 -15 735.435 666.750   7
   5   6  15 569.392 491.665   6
  -5  -6 -15 960.739 636.240   5
  -5  -6 -16 199.955 357.987   7
   5   7 -20-221.665 309.962   7
  -5  -7  19 287.904 395.108   8
   5   7 -19 954.089 542.255   7
  -5  -7  18 48.6788 209.821   8
   5   7 -18 19.6555 218.222   7
  -5  -7  17-126.561 322.825   8
   5   7 -17 32.6073 135.661   7
  -5  -7  16 1501.81 633.365   8
   5   7 -16 1409.61 643.394   7
  -5  -7  15 520.424 403.895   8
   5   7 -15 35.2846 97.4971   7
  -5  -7  14 8652.84 1485.25   8
   5   7 -14 6959.61 1216.92   7
  -5  -7  13 289.428 253.706   8
   5   7 -13 87.3601 157.880   7
  -5  -7  12-29.4963 327.940   8
   5   7 -12 307.092 212.123   7
  -5  -7  11 6036.61 1297.44   8
   5   7 -11 5615.66 905.112   7
  -5  -7  10 8684.33 1435.31   8
   5   7 -10 8762.27 1017.95   7
  -5  -7   9 355.730 245.022   8
   5   7  -9 118.082 122.590   7
   5   7  -8 51.7363 58.9270   7
  -5  -7   8-228.582 359.795   8
  -5  -7   7 4063.49 995.664   8
   5   7  -7 3793.46 397.805   7
  -5  -7   6 1765.92 601.640   8
  -5  -7   5 11944.5 1618.89   8
  -5  -7   4 4776.22 1051.18   8
  -5  -7   3 164.602 347.299   8
  -5  -7   2 8891.22 1399.81   8
  -5  -7   1 464.339 149.787   5
  -5  -7   1 1383.68 650.789   8
  -5  -7   0 21512.3 2200.09   8
  -5  -7   0 22414.0 2255.67   5
  -5  -7  -1 672.130 226.625   7
  -5  -7  -1 798.548 554.362   5
  -5  -7  -1 1215.44 518.838   8
  -5  -7  -2-43.0849 104.068   7
  -5  -7  -2 143.088 261.730   5
  -5  -7  -2-159.477 182.983   8
  -5  -7  -3 6464.79 1327.03   5
  -5  -7  -3 6766.68 1226.05   8
  -5  -7  -3 7037.52 931.400   7
  -5  -7  -4 2166.25 577.401   7
  -5  -7  -4 1478.62 576.872   5
  -5  -7  -4 2660.84 751.820   8
  -5  -7  -5 135.076 186.102   5
  -5  -7  -5 98.3150 273.725   8
  -5  -7  -6 155.011 251.083   7
   5   7   6 461.937 269.200   6
  -5  -7  -6 1.78240 324.099   5
  -5  -7  -6 398.733 238.643   8
  -5  -7  -7 3351.54 846.213   7
   5   7   7 3954.28 956.073   6
  -5  -7  -7 3408.20 1049.35   5
  -5  -7  -7 4691.54 1007.42   8
  -5  -7  -8 415.933 341.771   7
   5   7   8 2047.30 769.796   6
  -5  -7  -8 747.598 480.334   5
  -5  -7  -8 1707.48 569.073   8
  -5  -7  -9 14.0057 152.784   7
   5   7   9 889.799 577.494   6
  -5  -7  -9 360.031 227.124   8
  -5  -7  -9-491.128 456.669   5
  -5  -7 -10 188.249 263.266   7
   5   7  10-66.4537 149.308   6
  -5  -7 -11 879.665 543.441   7
   5   7  11 2749.35 867.577   6
  -5  -7 -11 1252.90 690.103   5
  -5  -7 -12 1220.90 723.689   7
  -5  -7 -12 1740.40 886.080   5
   5   7  12 1347.83 693.573   6
  -5  -7 -13-302.035 353.467   7
   5   7  13 511.828 421.426   6
  -5  -7 -13 496.821 511.724   5
  -5  -7 -14 1339.69 872.009   7
   5   7  14 1587.85 758.759   6
  -5  -7 -14-48.0961 221.452   5
  -5  -7 -15-395.488 436.490   7
   5   7  15 341.125 214.869   6
  -5  -8  19-203.776 262.991   8
  -5  -8  18 738.932 466.975   8
   5   8 -17 6.27796 107.116   7
  -5  -8  17 1154.54 605.087   8
   5   8 -16 1147.45 552.353   7
  -5  -8  16 782.790 508.352   8
   5   8 -15 1541.72 620.764   7
  -5  -8  15 1555.03 623.258   8
   5   8 -14 3139.05 796.658   7
  -5  -8  14 3851.89 1026.25   8
   5   8 -13-78.0783 162.212   7
  -5  -8  13 821.457 572.079   8
   5   8 -12 571.666 298.818   7
  -5  -8  12 1071.21 628.060   8
   5   8 -11 297.417 118.079   7
  -5  -8  11 1558.33 654.519   8
   5   8 -10-43.0873 131.433   7
  -5  -8  10-327.568 267.065   8
   5   8  -9 374.384 172.788   7
  -5  -8   9 442.784 397.273   8
  -5  -8   8-163.682 369.342   8
  -5  -8   7 11106.9 1671.46   8
  -5  -8   6 4870.20 1112.72   8
  -5  -8   5 4974.32 1118.59   8
  -5  -8   4 3.19529 298.332   8
  -5  -8   3 10494.9 1611.98   8
  -5  -8   2 471.533 336.291   5
  -5  -8   2 493.658 364.908   8
  -5  -8   1 838.935 475.805   5
  -5  -8   1 1230.54 653.740   8
  -5  -8   0 140.599 212.877   8
  -5  -8   0 154.556 211.702   5
  -5  -8  -1 9176.56 1553.86   5
  -5  -8  -1 8424.54 1371.72   8
  -5  -8  -1 7713.09 771.925   7
  -5  -8  -2 209.296 164.895   7
  -5  -8  -2-155.260 152.483   8
  -5  -8  -2 528.052 409.350   5
  -5  -8  -3 237.058 194.581   7
  -5  -8  -3 166.070 282.538   5
  -5  -8  -3-211.448 290.394   8
  -5  -8  -4 314.052 373.310   5
  -5  -8  -4 401.411 290.880   8
   5   8   5 5108.77 1142.03   6
  -5  -8  -5 4555.34 1213.96   5
  -5  -8  -5 6448.56 1173.65   8
  -5  -8  -6 903.061 411.476   7
  -5  -8  -6 1327.60 517.389   8
  -5  -8  -6 474.292 358.953   5
   5   8   6 1571.02 658.123   6
   5   8   7 1373.63 555.772   6
  -5  -8  -7 2241.95 903.886   5
  -5  -8  -7 1090.50 478.984   8
  -5  -8  -8-197.474 203.401   5
   5   8   8 135.128 179.069   6
  -5  -8  -8 211.818 289.137   8
  -5  -8  -8 72.9755 181.094   7
   5   8   9 177.960 228.742   6
  -5  -8  -9 358.068 290.662   7
  -5  -8 -10 698.532 517.888   7
  -5  -8 -10 1464.44 845.882   5
   5   8  10 212.571 361.753   6
  -5  -8 -11 2100.84 869.670   7
   5   8  11 2487.27 887.067   6
  -5  -8 -11 2235.33 996.190   5
  -5  -8 -12-2.00038 134.516   7
   5   8  12-518.944 428.476   6
  -5  -8 -12-40.2800 403.287   5
  -5  -8 -13-213.773 313.883   7
   5   8  13-291.997 336.108   6
  -5  -8 -13-146.319 301.684   5
  -5  -8 -14 134.103 265.206   7
   5   8  14 915.998 582.436   6
   5   8  15 1.05290 536.806   6
  -5  -9  20 325.214 343.897   8
  -5  -9  19-728.606 495.313   8
  -5  -9  18-393.009 363.176   8
  -5  -9  17-15.4861 238.484   8
  -5  -9  16 1312.56 616.496   8
  -5  -9  15 1449.28 629.956   8
  -5  -9  14 1354.02 600.270   8
  -5  -9  13-408.321 393.093   8
  -5  -9  12-224.377 400.410   8
  -5  -9  11 70.0623 199.911   8
  -5  -9  10 524.342 463.476   8
  -5  -9   9-210.342 420.710   8
  -5  -9   8 3055.66 922.366   8
  -5  -9   7 97.1682 224.408   8
  -5  -9   6 104.408 271.057   8
  -5  -9   5 96.0092 312.641   8
  -5  -9   4 289.670 356.959   8
  -5  -9   3 3068.42 785.790   5
  -5  -9   3 2941.35 823.302   8
  -5  -9   2-32.2686 279.506   5
  -5  -9   2-387.653 573.434   8
  -5  -9   1 113.195 234.410   8
  -5  -9   1-273.926 362.480   5
  -5  -9   0 24872.6 2429.44   8
  -5  -9   0 22375.7 2410.70   5
  -5  -9   0 20375.3 971.796   7
  -5  -9  -1 32.8651 99.0565   7
  -5  -9  -1-237.466 196.248   8
  -5  -9  -2 8440.27 1583.52   5
  -5  -9  -2 8341.42 1395.32   8
  -5  -9  -2 7616.83 893.983   7
  -5  -9  -3 4251.70 754.447   7
  -5  -9  -3 5322.89 1263.56   5
  -5  -9  -3 5037.14 1078.06   8
  -5  -9  -4 1488.77 620.169   8
   5   9   4 752.312 463.294   6
  -5  -9  -4 1974.38 798.883   5
   5   9   5 1764.01 641.327   6
  -5  -9  -5 2378.58 938.594   5
  -5  -9  -5 1187.64 520.982   8
   5   9   6 547.354 453.777   6
  -5  -9  -6-203.292 506.282   5
  -5  -9  -6 390.585 382.796   8
  -5  -9  -6 192.067 254.323   7
   5   9   7 1099.61 652.288   6
  -5  -9  -7 489.977 277.302   8
  -5  -9  -7 287.260 243.370   7
  -5  -9  -8 375.863 308.316   5
  -5  -9  -8 180.279 252.648   7
  -5  -9  -9 2268.44 1004.33   5
   5   9   9 2584.88 903.393   6
  -5  -9  -9 2332.46 810.092   7
   5   9  10 1111.54 637.575   6
  -5  -9 -10 2899.62 1239.10   5
  -5  -9 -10 1024.41 621.885   7
   5   9  11 754.322 606.154   6
  -5  -9 -11 233.876 305.481   5
  -5  -9 -12 448.934 499.772   5
   5   9  12 808.843 682.272   6
   5   9  13 503.668 593.002   6
   5   9  14 115.873 253.128   6
  -5 -10  21 130.792 244.070   8
  -5 -10  20 395.438 387.187   8
  -5 -10  19 162.448 118.731   8
  -5 -10  18 354.460 389.212   8
  -5 -10  17-630.295 468.141   8
  -5 -10  16-16.0603 222.121   8
  -5 -10  15 44.3361 191.596   8
  -5 -10  14 371.023 380.447   8
  -5 -10  13 62.1506 278.357   8
  -5 -10  12 1804.68 777.602   8
  -5 -10  11 155.286 129.878   8
  -5 -10  10 966.348 557.950   8
  -5 -10   9 478.449 310.735   8
  -5 -10   8-285.819 306.071   8
  -5 -10   7-766.339 496.866   8
  -5 -10   6 610.836 418.928   8
  -5 -10   5 3340.33 959.582   8
  -5 -10   4 2987.68 882.521   8
  -5 -10   4 4625.06 998.997   5
  -5 -10   3 1207.32 572.509   5
  -5 -10   3 388.513 427.813   8
  -5 -10   2 48.4754 334.260   8
  -5 -10   2-241.427 195.817   5
  -5 -10   1 4474.87 1083.87   5
  -5 -10   1 7254.10 1334.90   8
  -5 -10   0 2822.45 849.365   5
  -5 -10   0 2599.66 892.920   8
  -5 -10  -1 2554.04 773.851   8
  -5 -10  -1 1794.18 730.864   5
  -5 -10  -2 185.157 376.702   8
  -5 -10  -2-9.55263 325.030   5
   5  10   3 34.3562 165.403   6
  -5 -10  -3-287.451 386.675   5
  -5 -10  -3 667.643 407.763   8
  -5 -10  -4 1746.30 708.608   5
  -5 -10  -4 981.691 438.952   8
   5  10   5 1886.78 628.285   6
  -5 -10  -5 2204.86 962.324   5
  -5 -10  -5 1319.11 543.192   8
   5  10   6-120.338 295.513   6
  -5 -10  -6 195.231 303.434   5
  -5 -10  -6-9.78199 162.999   8
   5  10   7 788.838 484.853   6
  -5 -10  -7-93.4097 450.067   5
   5  10   8-375.173 369.554   6
  -5 -10  -8 260.758 229.290   5
   5  10   9 508.072 514.879   6
  -5 -10  -9 240.599 297.540   5
   5  10  10-70.3920 206.891   6
  -5 -10 -10-156.654 310.743   5
  -5 -10 -11 472.538 518.050   5
   5  10  11-42.5281 264.553   6
   5  10  12 969.878 551.045   6
  -5 -11  21 565.514 473.827   8
  -5 -11  20-177.022 290.233   8
  -5 -11  19-125.591 241.321   8
  -5 -11  18 292.306 262.901   8
  -5 -11  17 957.746 654.800   8
  -5 -11  16 2277.85 901.422   8
  -5 -11  15 1643.04 798.444   8
  -5 -11  14 0.90031 247.759   8
  -5 -11  13 5690.90 1344.67   8
  -5 -11  12-565.894 439.601   8
  -5 -11  11 101.710 223.693   8
  -5 -11  10 23.0572 252.762   8
  -5 -11   9 444.529 383.943   8
  -5 -11   8 4883.67 1218.02   8
  -5 -11   7-392.351 546.493   8
  -5 -11   6 5424.21 1303.95   8
  -5 -11   5 105.364 413.832   8
  -5 -11   5 58.2131 85.9412   5
  -5 -11   4-292.121 579.336   8
  -5 -11   4 67.4322 179.524   5
  -5 -11   3 5868.50 1195.95   5
  -5 -11   3 7715.72 1442.05   8
  -5 -11   2 545.198 207.514   5
  -5 -11   2 1041.52 546.787   8
  -5 -11   1 1029.17 609.982   5
  -5 -11   1 1319.44 608.926   8
  -5 -11   0-152.595 297.176   8
  -5 -11   0 626.986 391.012   5
  -5 -11  -1 201.335 315.636   5
   5  11   1 65.9419 159.931   6
  -5 -11  -1 209.540 254.279   8
  -5 -11  -2 664.777 508.791   5
   5  11   2-193.589 383.003   6
  -5 -11  -2 36.2711 223.777   8
   5  11   3 3706.84 1088.32   6
  -5 -11  -3 3188.41 1076.52   5
  -5 -11  -3 2662.82 814.107   8
   5  11   4 1785.06 699.532   6
  -5 -11  -4 2097.81 932.861   5
  -5 -11  -4 2876.18 833.340   8
  -5 -11  -5-223.386 374.599   5
  -5 -11  -5-0.63977 93.0791   8
   5  11   6-190.304 395.257   6
  -5 -11  -6-338.871 407.923   5
   5  11   7 1127.03 532.160   6
  -5 -11  -7 1051.24 682.666   5
   5  11   8 185.532 282.207   6
  -5 -11  -8-234.641 352.612   5
   5  11   9-306.237 246.706   6
  -5 -11  -9 63.2302 239.061   5
   5  11  10 997.492 600.877   6
   5  11  11-317.991 381.588   6
  -5 -12  20 1228.79 761.990   8
  -5 -12  19-229.529 329.669   8
  -5 -12  18 135.464 250.470   8
  -5 -12  17 455.773 312.376   8
  -5 -12  16 919.853 487.546   8
  -5 -12  15 209.589 283.241   8
  -5 -12  14 2909.40 1016.96   8
  -5 -12  13 83.0808 148.602   8
  -5 -12  12 3000.32 968.383   8
  -5 -12  11 3445.06 1075.48   8
  -5 -12  10 386.975 413.760   8
  -5 -12   9 2018.51 807.668   8
  -5 -12   8 1255.70 704.703   8
  -5 -12   7 912.744 653.935   8
  -5 -12   6 341.731 253.455   5
  -5 -12   6 834.250 534.842   8
  -5 -12   5-613.476 442.112   8
  -5 -12   5 158.291 313.741   5
  -5 -12   4 50.8631 176.615   8
  -5 -12   4 430.512 419.942   5
  -5 -12   3 1856.22 722.648   5
  -5 -12   3 1209.08 613.976   8
  -5 -12   2 3224.66 983.152   5
  -5 -12   2 3292.47 980.127   8
  -5 -12   1 2964.29 992.480   5
  -5 -12   1 1385.77 628.227   8
   5  12   0 10793.4 1689.52   6
  -5 -12   0 8889.12 1705.55   5
  -5 -12   0 9125.21 1561.98   8
  -5 -12  -1 1697.84 703.449   8
   5  12   1 3012.69 953.151   6
  -5 -12  -1 2709.21 966.607   5
  -5 -12  -2 1497.87 696.822   5
   5  12   2 1552.31 653.842   6
   5  12   3 3055.18 1007.58   6
  -5 -12  -3 3046.47 1055.94   5
  -5 -12  -3 2596.26 797.081   8
   5  12   4 95.8122 332.421   6
  -5 -12  -4 781.365 594.702   5
  -5 -12  -4 1280.67 573.779   8
   5  12   5 285.096 357.167   6
  -5 -12  -5-45.1150 184.819   5
   5  12   6 18.0716 207.281   6
  -5 -12  -6 323.217 636.117   5
   5  12   7 285.433 384.832   6
  -5 -12  -7 261.559 329.785   5
   5  12   8-708.450 530.286   6
  -5 -12  -8 150.520 280.931   5
   5  12   9 757.486 563.388   6
  -5 -13  19 221.882 154.866   8
  -5 -13  18 1223.14 675.248   8
  -5 -13  17 277.330 294.270   8
  -5 -13  16-196.845 409.962   8
  -5 -13  15 667.750 490.074   8
  -5 -13  14 205.626 168.288   8
  -5 -13  13 687.158 553.601   8
  -5 -13  12 691.427 526.077   8
  -5 -13  11 254.668 303.920   8
  -5 -13  10 519.391 416.613   8
  -5 -13   9 773.636 526.701   8
  -5 -13   8 670.556 596.939   8
  -5 -13   7 533.000 378.890   8
  -5 -13   6 1158.65 499.700   8
  -5 -13   6 669.375 441.490   5
  -5 -13   5 823.380 492.387   8
  -5 -13   5 109.077 304.572   5
  -5 -13   4 4271.79 1143.15   8
  -5 -13   4 3080.32 897.772   5
  -5 -13   3 3583.78 1031.90   5
  -5 -13   3 4948.27 1243.65   8
  -5 -13   2-404.779 370.304   5
   5  13  -2 256.765 228.926   6
  -5 -13   2 150.168 372.524   8
   5  13  -1 3026.65 942.341   6
  -5 -13   1 2054.16 787.441   5
  -5 -13   1 3851.75 1057.47   8
   5  13   0 1168.07 517.045   6
  -5 -13   0 506.839 442.612   5
  -5 -13   0 981.960 488.558   8
   5  13   1 3316.74 1016.18   6
  -5 -13  -1 2859.04 1039.19   5
  -5 -13  -1 2629.26 817.539   8
   5  13   2 136.007 295.967   6
  -5 -13  -2 613.739 461.608   5
  -5 -13  -2 92.9800 178.599   8
   5  13   3 265.114 326.255   6
  -5 -13  -3 497.731 438.327   5
  -5 -13  -3 529.086 381.113   8
   5  13   4-1214.26 654.261   6
  -5 -13  -4-54.3451 212.028   5
   5  13   5 321.747 362.915   6
  -5 -13  -5 370.605 582.001   5
   5  13   6 530.575 363.889   6
  -5 -13  -6-93.9404 252.227   5
   5  13   7 92.7487 311.094   6
  -5 -13  -7-200.661 367.474   5
  -5 -14  17-202.086 311.249   8
  -5 -14  16 500.316 296.177   8
  -5 -14  15-726.630 550.892   8
  -5 -14  14 732.736 615.314   8
  -5 -14  13 414.930 685.727   8
  -5 -14  12-259.124 397.483   8
  -5 -14  11 2084.68 890.522   8
  -5 -14  10 645.627 589.559   8
  -5 -14   9 306.571 395.094   8
  -5 -14   8-325.909 325.200   8
  -5 -14   7 2058.79 939.872   8
  -5 -14   6 879.451 614.871   8
  -5 -14   5 244.226 299.737   8
  -5 -14   5 245.502 482.925   5
   5  14  -4 2054.16 855.173   6
  -5 -14   4 1146.48 530.772   5
  -5 -14   4 1100.06 622.190   8
  -5 -14   3 714.401 524.180   5
   5  14  -3-162.469 318.248   6
  -5 -14   3-513.155 411.449   8
  -5 -14   2 3288.63 1109.89   5
   5  14  -2 3123.69 964.255   6
  -5 -14   2 2463.15 897.204   8
  -5 -14   1-149.989 252.717   8
   5  14  -1 858.765 472.279   6
  -5 -14   1 486.016 291.203   5
   5  14   0 4104.58 1161.12   6
  -5 -14   0 2721.88 972.133   5
  -5 -14   0 2361.17 813.853   8
   5  14   1 941.529 552.936   6
  -5 -14  -1 862.639 599.610   5
  -5 -14  -1 1127.81 625.549   8
   5  14   2 663.298 448.981   6
  -5 -14  -2 371.016 477.313   5
  -5 -14  -2 390.954 384.033   8
   5  14   3 372.828 280.135   6
  -5 -14  -3 366.372 357.269   5
   5  14   4 330.281 273.785   6
  -5 -14  -4 686.798 466.256   5
   5  14   5 880.860 690.726   6
  -5 -14  -5 242.909 376.234   5
  -5 -15  15 1274.25 847.783   8
  -5 -15  14 1614.80 823.907   8
  -5 -15  13-848.942 594.575   8
  -5 -15  12-26.0483 204.561   8
  -5 -15  11-106.241 252.271   8
  -5 -15  10 1149.01 633.346   8
  -5 -15   9 836.402 516.745   8
  -5 -15   8 738.829 470.850   8
   5  15  -7 317.658 318.157   6
  -5 -15   7 159.703 539.775   8
   5  15  -6-183.659 139.839   6
  -5 -15   6-742.589 520.493   8
   5  15  -5 875.540 550.453   6
  -5 -15   5 674.880 450.433   8
   5  15  -4 506.059 369.724   6
  -5 -15   4 583.772 463.765   8
  -5 -15   4-406.472 374.586   5
   5  15  -3 962.428 592.955   6
  -5 -15   3 50.8671 257.053   8
  -5 -15   3 747.340 533.390   5
   5  15  -2 316.950 341.882   6
  -5 -15   2 399.521 399.563   5
  -5 -15   2 148.672 238.764   8
  -5 -15   1 506.157 415.961   5
   5  15  -1 1116.23 687.595   6
  -5 -15   1 1897.54 796.158   8
   5  15   0 2157.06 883.535   6
  -5 -15   0 2408.71 938.114   5
  -5 -15   0 1932.71 792.426   8
   5  15   1-192.277 504.765   6
  -5 -15  -1 22.5787 491.120   5
  -5 -15  -1 202.556 275.233   8
   5  15   2 2469.78 1033.03   6
  -5 -15  -2 5.01425 528.260   5
   5  15   3 578.183 479.352   6
  -5 -15  -3 1806.85 961.429   5
  -5 -15  -4 8.33111 173.090   5
  -5 -16  13-18.7924 200.937   8
  -5 -16  12-74.7057 242.377   8
   5  16 -11 364.981 314.535   6
  -5 -16  11-17.9894 375.375   8
   5  16 -10 441.344 375.146   6
  -5 -16  10-259.670 393.110   8
   5  16  -9 162.319 237.106   6
  -5 -16   9 275.163 426.449   8
  -5 -16   8-306.825 508.871   8
   5  16  -8 104.383 222.644   6
   5  16  -7-17.7340 363.725   6
  -5 -16   7 750.058 549.622   8
   5  16  -6-68.5704 256.142   6
  -5 -16   6 867.527 529.985   8
   5  16  -5-241.276 306.378   6
  -5 -16   5 190.339 283.320   8
   5  16  -4 552.767 492.794   6
  -5 -16   4 920.543 667.264   8
   5  16  -3 987.503 681.157   6
  -5 -16   3 647.923 416.056   8
  -5 -16   3 1076.62 524.104   5
   5  16  -2 449.064 439.393   6
  -5 -16   2-148.300 250.571   8
  -5 -16   2-534.385 468.077   5
   5  16  -1-53.6849 251.765   6
  -5 -16   1 1379.32 721.406   8
  -5 -16   1 784.696 644.481   5
   5  16   0 237.563 435.659   6
  -5 -16   0 541.358 458.000   5
  -5 -16   0 632.548 467.959   8
   5  16   1-152.733 218.602   6
  -5 -16  -1-363.732 433.504   5
  -5 -16  -2 541.842 640.336   5
   5  17 -10 100.955 206.936   6
  -5 -17  10 271.522 456.802   8
   5  17  -9 611.869 570.395   6
  -5 -17   9 300.308 436.402   8
   5  17  -8-435.237 225.353   6
  -5 -17   8 14.5328 155.310   8
   5  17  -7 1771.00 800.109   6
  -5 -17   7 1972.82 899.352   8
   5  17  -6 194.764 251.661   6
  -5 -17   6 485.293 365.234   8
   5  17  -5 809.056 578.795   6
  -5 -17   5 142.369 277.891   8
   5  17  -4 489.914 438.937   6
  -5 -17   4-714.836 529.922   8
   5  17  -3 551.123 584.525   6
  -5 -17   3 37.4221 153.925   8
   5  17  -2 16.9417 156.594   6
  -5 -17   2 288.922 427.798   8
  -5 -17   1 94.4917 211.137   8
  -5 -17   1 226.543 151.240   5
  -5 -17   0-842.679 645.974   5
  -5 -17  -1 915.355 679.981   5
   5  18  -9 178.202 379.499   6
   5  18  -8 740.135 514.264   6
   5  18  -7-849.748 556.362   6
  -5 -18   7-45.1398 211.070   8
   5  18  -6 1074.30 638.790   6
  -5 -18   6 1337.26 829.384   8
   5  18  -5 272.492 423.874   6
  -5 -18   5 170.243 174.311   8
  -5 -18   4 590.392 545.922   8
  -5 -18   3-1.06556 294.229   8
  -5 -18   2 375.846 432.461   8
  -6  19  -6 3.74842 655.814   2
  -6  19  -7 276.317 385.970   2
  -6  18   0 71.1576 262.947   6
  -6  18  -1 73.4792 482.084   6
  -6  18  -2 26.1836 291.488   6
  -6  18  -3 204.998 346.143   6
  -6  18  -4 624.800 574.686   2
  -6  18  -5 707.677 557.251   2
  -6  18  -6 792.715 608.908   2
  -6  18  -7-1036.06 689.860   2
  -6  18  -8 4687.64 1511.95   2
  -6  18  -9 174.266 614.700   2
  -6  17   2 833.128 818.901   6
  -6  17   1 2867.13 1259.44   6
  -6  17   0-298.626 403.999   6
  -6  17  -1 1731.53 899.714   6
  -6  17  -2 1297.39 737.068   6
  -6  17  -3-392.757 429.663   6
  -6  17  -3-292.006 346.859   2
  -6  17  -4 4211.62 1274.94   6
  -6  17  -4 654.018 507.234   2
  -6  17  -5 81.5023 193.731   2
  -6  17  -6 300.050 376.616   2
  -6  17  -7-215.819 332.518   2
  -6  17  -8 1616.51 856.961   2
  -6  17  -9 1157.08 780.052   2
  -6  17 -10 1700.59 939.452   2
  -6  17 -11-189.084 333.132   2
  -6  16   3 1187.37 672.463   6
  -6  16   2 2216.68 1020.15   6
  -6  16   1 232.307 319.251   6
  -6  16   0 368.197 514.261   6
  -6  16  -1 2689.26 1095.68   6
  -6  16  -2 220.629 215.044   6
  -6  16  -2-67.4491 183.070   2
  -6  16  -3 257.628 345.531   6
  -6  16  -3 399.836 396.025   2
  -6  16  -4 58.2990 147.624   6
  -6  16  -4 225.221 273.434   2
  -6  16  -5 245.660 433.261   6
  -6  16  -5 871.424 580.317   2
  -6  16  -6-57.3263 264.170   2
  -6  16  -7 423.729 468.974   2
  -6  16  -8-127.038 321.758   2
  -6  16  -9 674.196 748.029   2
  -6  16 -10 285.757 380.345   2
  -6  16 -11 343.630 596.710   2
  -6  16 -12 760.886 573.596   2
  -6  16 -13 727.864 689.552   2
  -6  15   5 541.223 567.300   6
  -6  15   4 1436.65 816.324   6
  -6  15   3 2051.75 987.938   6
  -6  15   2 163.892 241.919   6
  -6  15   1 33.7141 362.465   6
  -6  15   0 3537.81 1219.19   6
  -6  15  -1 1228.69 713.957   6
  -6  15  -1 595.400 568.953   2
  -6  15  -2 57.1233 444.829   6
  -6  15  -2 1131.49 633.883   2
  -6  15  -3 130.420 258.661   6
  -6  15  -3 778.119 524.676   2
  -6  15  -4 296.279 259.886   6
  -6  15  -4 60.3961 177.589   2
  -6  15  -5 1182.88 578.102   6
  -6  15  -5 118.066 224.137   2
  -6  15  -6 187.260 182.018   6
  -6  15  -6 764.701 577.499   2
  -6  15  -7 44.8823 181.647   2
  -6  15  -8 353.159 465.335   2
  -6  15  -9 475.407 687.910   2
  -6  15 -10-316.879 322.836   2
  -6  15 -11 781.359 683.659   2
  -6  15 -12 1495.27 872.901   2
  -6  15 -13-319.464 408.157   2
  -6  15 -14 705.755 593.048   2
  -6  14   7 255.226 378.791   6
  -6  14   6 51.7811 393.697   6
  -6  14   5 678.158 674.935   6
  -6  14   4 12.7789 192.613   6
  -6  14   3 2508.93 1140.19   6
  -6  14   2 496.563 596.422   6
  -6  14   1 2623.15 1135.09   6
  -6  14   0 6385.72 1551.85   6
  -6  14   0 3074.43 932.825   2
  -6  14  -1 352.745 473.325   6
  -6  14  -1-282.618 328.292   2
  -6  14  -2-940.191 590.823   6
  -6  14  -2-691.220 465.002   2
  -6  14  -3 79.0272 231.016   6
  -6  14  -3 48.2309 260.059   2
  -6  14  -4-741.069 503.324   6
  -6  14  -4 217.086 217.233   2
  -6  14  -5 114.397 477.935   6
  -6  14  -5 183.918 297.410   2
  -6  14  -6-375.010 458.301   6
  -6  14  -6 285.154 448.715   2
  -6  14  -7-45.5480 233.692   2
  -6  14  -8 675.118 627.719   2
  -6  14  -9 666.333 686.147   2
  -6  14 -10-94.0114 355.099   2
  -6  14 -11 113.589 359.792   2
  -6  14 -12 57.1341 201.415   2
  -6  14 -13 467.491 659.448   2
  -6  14 -14 539.177 663.903   2
  -6  14 -15 53.8129 295.460   2
  -6  13   8 962.418 750.693   6
  -6  13   7-1462.03 861.301   6
  -6  13   6 254.460 180.438   6
  -6  13   5-329.765 621.976   6
  -6  13   4-104.494 465.753   6
  -6  13   3 255.475 331.365   6
  -6  13   2 467.427 362.091   6
  -6  13   1 305.091 654.335   6
  -6  13   1 731.151 426.239   2
  -6  13   0 47.8923 277.307   6
  -6  13   0 908.204 572.425   2
  -6  13  -1 697.838 476.971   6
  -6  13  -1 903.769 573.822   2
  -6  13  -2-121.268 335.294   6
  -6  13  -2-113.329 407.608   2
  -6  13  -3 515.117 457.891   6
  -6  13  -3 211.947 271.614   2
  -6  13  -4-609.271 440.547   6
  -6  13  -4-73.9124 274.769   2
  -6  13  -5-92.6898 271.197   6
  -6  13  -5 347.771 318.721   2
  -6  13  -6 378.383 305.940   6
  -6  13  -6 241.314 183.597   2
  -6  13  -7 231.793 275.021   6
  -6  13  -7-44.4774 324.958   2
  -6  13  -8-311.472 376.669   2
  -6  13  -9-348.862 386.158   2
  -6  13 -10 941.598 582.728   2
  -6  13 -11 262.126 419.195   2
  -6  13 -12 98.3755 326.182   2
  -6  13 -13 1211.21 749.336   2
  -6  13 -14-218.357 358.035   2
  -6  13 -15 907.175 628.832   2
  -6  13 -16 198.330 602.833   2
  -6  12  10 239.789 391.640   6
  -6  12   9 1721.52 879.275   6
  -6  12   8 1089.67 661.271   6
  -6  12   7 1730.83 959.729   6
  -6  12   6-681.196 476.607   6
  -6  12   5 567.341 467.277   6
  -6  12   4 995.364 762.440   6
  -6  12   3 1945.81 874.940   6
  -6  12   2 1128.07 664.633   6
  -6  12   2 593.303 536.075   2
  -6  12   1 822.878 621.457   6
  -6  12   1 137.902 305.116   2
  -6  12   0 639.931 568.856   6
  -6  12   0 732.702 543.017   2
  -6  12  -1 52.0450 223.369   6
  -6  12  -1 952.865 493.637   2
  -6  12  -2 1188.56 612.464   6
  -6  12  -2 1776.77 653.947   2
  -6  12  -3 117.715 215.072   6
  -6  12  -3-87.1800 169.911   2
   6 -12   4 311.585 263.787   4
  -6  12  -4 262.560 358.024   6
  -6  12  -4 401.717 337.882   2
  -6  12  -5-350.329 371.540   6
  -6  12  -5-856.207 522.611   2
  -6  12  -6 900.933 423.553   6
  -6  12  -6 1335.72 605.720   2
  -6  12  -7 542.425 426.166   2
  -6  12  -8-163.651 205.498   2
  -6  12  -9 2993.95 993.366   2
  -6  12 -10 78.8614 275.635   2
  -6  12 -11 39.1054 239.692   2
  -6  12 -12 1675.95 801.115   2
  -6  12 -13 58.5334 288.960   2
  -6  12 -14 523.910 413.940   2
  -6  12 -15 1052.67 798.344   2
  -6  12 -16 349.897 207.902   2
  -6  12 -17-479.811 510.315   2
   6 -11 -12 154.478 282.891   9
  -6  11  11 1803.62 971.176   6
   6 -11 -11 1622.90 740.068   9
  -6  11  10-719.015 632.806   6
   6 -11 -10 106.007 193.915   9
  -6  11   9 1639.08 899.763   6
   6 -11  -9 152.682 274.101   9
  -6  11   8-178.773 214.190   6
   6 -11  -8 1012.14 551.567   9
  -6  11   7 164.317 605.120   6
  -6  11   6 2635.03 1023.86   6
  -6  11   5 2529.86 1091.04   6
  -6  11   4 2641.33 965.962   6
  -6  11   3 572.279 505.862   6
  -6  11   3 378.387 320.101   2
  -6  11   2 1428.50 690.457   6
  -6  11   2 655.349 447.220   2
  -6  11   1-34.9066 270.147   6
  -6  11   1 418.936 400.204   2
  -6  11   0 1191.44 665.953   6
  -6  11   0 902.231 371.838   2
  -6  11  -1 4970.95 1240.42   6
  -6  11  -1 5601.04 1166.09   2
  -6  11  -2 4992.61 1205.52   6
  -6  11  -2 6797.36 1357.94   2
   6 -11   3 643.137 480.508   4
  -6  11  -3 247.833 302.494   6
  -6  11  -3-9.64761 211.431   2
   6 -11   4 908.023 390.740   4
  -6  11  -4 643.587 407.993   6
  -6  11  -4 267.299 163.503   2
  -6  11  -5 6729.88 1289.02   6
  -6  11  -5 8498.55 1596.04   2
   6 -11   5 8244.14 1148.38   4
  -6  11  -6 4987.21 1128.98   6
  -6  11  -6 6710.71 1445.92   2
  -6  11  -7 577.172 299.794   2
  -6  11  -8 4858.44 1318.35   2
  -6  11  -9 2331.67 932.478   2
  -6  11 -10 593.630 497.423   2
  -6  11 -11 1138.49 752.524   2
  -6  11 -12 2521.36 1021.04   2
  -6  11 -13 592.824 447.392   2
  -6  11 -14 2509.32 1042.53   2
  -6  11 -15 828.711 625.883   2
  -6  11 -16-930.185 667.334   2
  -6  11 -17 243.180 326.900   2
  -6  11 -18 1006.01 726.403   2
   6 -10 -14-1154.71 708.641   9
   6 -10 -13-1251.04 707.964   9
  -6  10  12-255.952 408.518   6
   6 -10 -12 340.712 417.364   9
  -6  10  11-445.945 500.715   6
   6 -10 -11 335.528 156.111   9
  -6  10  10 3256.40 1294.74   6
   6 -10 -10 2993.96 981.668   9
  -6  10   9 807.910 571.471   6
   6 -10  -9 797.880 455.720   9
  -6  10   8 131.414 392.569   6
   6 -10  -8 939.628 490.712   9
  -6  10   7 2039.99 882.721   6
   6 -10  -7 1682.01 627.894   9
  -6  10   6 2651.07 908.978   6
   6 -10  -6 2523.53 714.675   9
  -6  10   5-147.661 386.914   6
   6 -10  -5 307.440 268.810   9
  -6  10   4 1594.14 519.734   2
  -6  10   4 2777.37 1041.23   6
  -6  10   3 4105.33 1189.85   6
  -6  10   3 5417.80 1044.71   2
  -6  10   2 1562.07 661.295   6
  -6  10   2 313.984 126.190   2
  -6  10   1 7874.42 1566.38   6
  -6  10   1 6288.18 1189.03   2
  -6  10   0 32.9739 415.114   6
  -6  10   0 698.366 422.498   2
  -6  10  -1 3233.45 939.332   6
  -6  10  -1 3332.21 889.089   2
   6 -10   2 2254.36 713.263   4
  -6  10  -2 1565.41 683.108   6
  -6  10  -2 2757.73 806.272   2
   6 -10   3 3316.08 815.928   4
  -6  10  -3 1297.88 740.251   6
  -6  10  -3 2733.23 905.780   2
  -6  10  -4 28331.1 2660.70   6
  -6  10  -4 25825.1 2679.33   2
   6 -10   4 30367.3 2293.80   4
   6 -10   5 343.926 92.5186   4
  -6  10  -5 47.3791 290.263   2
  -6  10  -6 1353.15 709.473   2
  -6  10  -7 57.8957 340.881   2
  -6  10  -8 5453.10 1313.08   2
  -6  10  -9-265.010 441.072   2
  -6  10 -10-102.979 383.328   2
  -6  10 -11 590.890 525.700   2
  -6  10 -12 1898.37 824.305   2
  -6  10 -13 2094.15 888.218   2
  -6  10 -14 391.362 580.153   2
  -6  10 -15-276.766 412.391   2
  -6  10 -16 430.604 542.843   2
  -6  10 -17 249.665 323.124   2
  -6  10 -18 347.631 446.370   2
  -6  10 -19 381.938 472.468   2
   6  -9 -15-703.595 577.414   9
  -6   9  14 220.981 245.040   6
   6  -9 -14-934.776 627.475   9
  -6   9  13 141.753 523.639   6
   6  -9 -13-60.6626 197.468   9
  -6   9  12 1660.18 979.287   6
   6  -9 -12 727.928 557.845   9
  -6   9  11 342.786 189.155   6
   6  -9 -11 716.790 380.018   9
  -6   9  10 6427.46 1718.88   6
   6  -9 -10 6376.78 1371.35   9
  -6   9   9 554.269 757.483   6
   6  -9  -9 30.1538 147.063   9
  -6   9   8 792.889 581.099   6
   6  -9  -8 540.612 463.282   9
  -6   9   7 1007.31 486.359   6
   6  -9  -7 781.243 494.735   9
  -6   9   6-97.7521 211.395   6
   6  -9  -6 691.206 405.591   9
  -6   9   5-243.924 237.924   2
  -6   9   5 248.979 420.315   6
   6  -9  -5-348.430 262.804   9
  -6   9   4 7752.32 1573.23   6
  -6   9   4 8946.14 1262.86   2
  -6   9   3 2200.70 1048.40   6
  -6   9   3 2117.05 624.311   2
  -6   9   2 1693.51 690.230   6
  -6   9   2 1757.16 595.718   2
   6  -9  -2 1885.34 468.556   9
  -6   9   1 6416.33 1412.90   6
  -6   9   1 4322.74 977.515   2
  -6   9   0 2228.79 858.286   6
  -6   9   0 1636.73 692.055   2
   6  -9   1 288.515 372.099   4
  -6   9  -1 256.726 310.382   6
  -6   9  -1 395.062 410.175   2
   6  -9   2 1889.15 657.312   4
  -6   9  -2 3034.45 882.912   6
  -6   9  -2 2325.50 760.571   2
  -6   9  -3 32487.4 2832.36   6
  -6   9  -3 32512.5 2875.53   2
   6  -9   3 33968.1 2511.85   4
   6  -9   4 124.315 270.325   4
  -6   9  -4 28.6996 284.091   6
  -6   9  -4 80.9143 413.991   2
  -6   9  -5-73.6958 279.843   2
   6  -9   5 364.925 272.589   4
  -6   9  -6 1679.46 747.522   2
  -6   9  -7-324.150 444.867   2
  -6   9  -8 52.4776 434.098   2
  -6   9  -9-278.946 544.006   2
  -6   9 -10-214.848 278.601   2
  -6   9 -11 1815.69 828.687   2
  -6   9 -12 1721.69 888.644   2
  -6   9 -13 504.646 520.459   2
  -6   9 -14 1197.99 875.127   2
  -6   9 -15 427.718 534.516   2
  -6   9 -16-570.093 512.901   2
  -6   9 -17-485.293 499.300   2
  -6   9 -18 201.349 343.020   2
  -6   9 -19 814.569 937.099   2
  -6   9 -20 804.544 757.413   2
  -6   8  15-380.592 483.344   6
   6  -8 -15 288.268 434.450   9
  -6   8  14 425.379 401.068   6
   6  -8 -14 569.133 542.229   9
  -6   8  13 500.841 646.370   6
   6  -8 -13-53.5651 190.944   9
  -6   8  12 867.903 725.091   6
   6  -8 -12 493.433 580.189   9
  -6   8  11 4563.74 1422.64   6
   6  -8 -11 5284.86 1300.81   9
  -6   8  10-102.628 260.050   6
   6  -8 -10-221.700 281.459   9
  -6   8   9 399.534 457.899   6
   6  -8  -9 467.563 451.103   9
  -6   8   8 3729.80 1260.93   6
   6  -8  -8 2373.46 766.259   9
  -6   8   7 203.119 327.953   6
  -6   8   7 414.749 398.522   3
   6  -8  -7-146.492 257.659   9
  -6   8   6 758.429 571.149   6
   6  -8  -6 135.707 231.332   9
  -6   8   5-245.899 635.242   6
   6  -8  -5 608.542 361.441   9
  -6   8   5-82.3607 83.0352   2
  -6   8   4 187.997 177.943   2
  -6   8   4 295.441 317.487   6
  -6   8   3 294.794 392.744   2
  -6   8   3 437.436 409.931   6
   6  -8  -3 340.487 175.464   9
  -6   8   2 896.785 332.062   6
  -6   8   2 1808.59 618.703   2
   6  -8  -2 1835.50 439.649   9
   6  -8  -1 2912.32 844.831   4
  -6   8   1 2573.60 865.401   6
  -6   8   1 2203.39 722.906   2
   6  -8  -1 2112.86 418.993   9
   6  -8   0 608.096 353.557   4
  -6   8   0 720.085 463.801   6
  -6   8   0 597.896 318.530   2
   6  -8   0 931.129 247.047   9
   6  -8   1-4.53925 264.855   4
  -6   8  -1-626.324 384.663   2
   6  -8   2 4902.15 970.201   4
  -6   8  -2 4500.68 1079.50   6
  -6   8  -2 4376.14 1013.37   2
  -6   8  -3 24846.3 2396.62   6
  -6   8  -3 24627.4 2446.71   2
   6  -8   3 24516.3 2052.71   4
  -6   8  -4 8658.26 1516.04   2
   6  -8   4 7400.07 1059.49   4
  -6   8  -5 1981.43 803.509   2
   6  -8   5 1815.29 521.583   4
  -6   8  -6 122.193 203.415   2
  -6   8  -7 2380.60 817.144   2
  -6   8  -8 77.5852 362.194   2
  -6   8  -9 472.583 397.868   2
  -6   8 -10 1268.00 601.051   2
  -6   8 -11 4079.49 1201.31   2
  -6   8 -12 518.629 502.577   2
  -6   8 -13-14.1695 214.583   2
  -6   8 -14-46.4771 195.658   2
  -6   8 -15 1077.40 737.605   2
  -6   8 -16 554.195 517.901   2
  -6   8 -17 111.335 277.012   2
  -6   8 -18-228.567 357.279   2
  -6   8 -19 712.163 598.615   2
  -6   8 -20 205.763 353.148   2
  -6   7  16-526.690 558.557   6
   6  -7 -16-561.784 520.061   9
  -6   7  15 726.582 582.008   6
   6  -7 -15-7.94347 148.150   9
  -6   7  14 90.5309 404.310   6
   6  -7 -14 625.595 420.782   9
  -6   7  13-1472.11 848.703   6
   6  -7 -13 277.746 374.216   9
  -6   7  12 2383.03 1011.04   6
   6  -7 -12 3022.51 959.207   9
  -6   7  11-263.867 552.603   6
   6  -7 -11 576.269 478.404   9
  -6   7  10 331.492 378.110   6
   6  -7 -10 258.606 410.797   9
  -6   7   9 180.197 211.111   6
   6  -7  -9 1009.79 452.731   9
  -6   7   8 1384.13 731.239   6
  -6   7   8 827.828 439.798   3
   6  -7  -8 1404.57 640.977   9
  -6   7   7-16.5574 405.835   6
  -6   7   7 112.715 218.371   3
   6  -7  -7 324.150 362.590   9
  -6   7   6 1253.36 623.899   6
  -6   7   6 947.402 351.324   2
  -6   7   6 2271.71 754.200   3
   6  -7  -6 970.468 431.282   9
  -6   7   5 2280.50 931.188   6
  -6   7   5 3706.59 783.767   2
  -6   7   4 577.920 371.194   2
  -6   7   4 1204.21 659.986   6
  -6   7   3 1713.89 539.260   2
   6  -7  -3 2031.61 709.458   4
  -6   7   3 1298.35 576.132   6
   6  -7  -3 1468.97 416.789   9
   6  -7  -2 998.397 461.022   4
  -6   7   2 1732.57 842.357   6
  -6   7   2 1802.35 590.838   2
   6  -7  -2 2297.63 481.201   9
   6  -7  -1-10.7513 158.017   4
  -6   7   1 600.360 448.479   6
  -6   7   1 144.046 223.914   2
   6  -7  -1 77.5154 109.693   9
   6  -7   0 4924.53 1030.87   4
  -6   7   0 3776.05 961.386   6
  -6   7   0 4777.39 1000.49   2
   6  -7   0 4245.54 512.034   9
   6  -7   1 259.547 178.338   4
  -6   7  -1 1110.82 585.219   6
  -6   7  -1 570.808 390.231   2
  -6   7  -2 20556.1 2131.40   2
   6  -7   2 13550.8 1571.39   4
  -6   7  -3 224.584 190.894   2
   6  -7   3 58.4519 176.048   4
  -6   7  -4 369.033 147.565   2
   6  -7   4 728.693 353.142   4
  -6   7  -5 2277.93 825.821   2
  -6   7  -6 1519.98 649.162   2
  -6   7  -7 859.878 575.184   2
  -6   7  -8 98.1610 219.565   2
  -6   7  -9 295.419 302.106   2
  -6   7 -10 2096.67 750.825   2
  -6   7 -11 45.8654 290.712   2
  -6   7 -12 137.178 274.338   2
  -6   7 -13 1915.61 1013.71   2
  -6   7 -14 697.454 540.367   2
  -6   7 -15 208.107 563.267   2
  -6   7 -16 1936.62 1001.43   2
  -6   7 -17-446.956 461.214   2
  -6   7 -18 635.463 673.304   2
  -6   7 -19-228.466 366.372   2
  -6   7 -20 1.35742 742.886   2
  -6   6  17-461.514 530.876   6
   6  -6 -16 438.007 385.373   4
  -6   6  16 523.897 471.811   6
   6  -6 -16-290.199 381.650   9
  -6   6  15 1130.99 874.740   6
   6  -6 -15 1864.30 833.211   9
  -6   6  14 1375.93 913.322   6
   6  -6 -14 371.993 187.531   9
  -6   6  13 1922.79 1076.37   6
   6  -6 -13 1810.69 721.210   9
  -6   6  12-57.4155 224.917   6
   6  -6 -12 23.9434 158.666   9
  -6   6  11 202.606 277.829   6
   6  -6 -11 505.235 426.965   9
  -6   6  10 65.6134 186.101   6
  -6   6   9-299.402 469.843   6
  -6   6   9-587.825 336.341   3
  -6   6   8 1972.09 848.829   6
  -6   6   8 1935.01 623.946   3
  -6   6   8 1871.23 541.964   8
  -6   6   7-220.257 402.988   6
  -6   6   7 254.585 290.733   3
  -6   6   7 105.713 203.907   2
  -6   6   6 1894.37 769.720   6
  -6   6   6 1738.37 639.094   3
  -6   6   6 1710.56 512.057   2
   6  -6  -5 373.656 409.807   4
  -6   6   5 821.120 415.533   6
  -6   6   5 1009.35 556.665   3
  -6   6   5 455.930 272.726   2
   6  -6  -4 9643.90 1630.32   4
  -6   6   4 11567.6 1856.41   6
  -6   6   4 9836.51 1298.07   2
  -6   6   3 4887.29 996.299   2
   6  -6  -3 5386.24 1226.31   4
  -6   6   3 7153.43 1550.61   6
   6  -6  -2 585.946 464.155   4
  -6   6   2 1218.28 581.600   2
  -6   6   2 1052.46 538.207   6
   6  -6  -1-168.244 296.803   4
  -6   6   1 400.174 434.033   6
  -6   6   1 84.6355 212.793   2
   6  -6   0 2957.42 798.733   4
  -6   6   0 2531.01 809.106   6
  -6   6   0 3026.20 827.027   2
   6  -6   1 59.0655 152.187   4
  -6   6  -1-7.53424 229.775   2
  -6   6  -2 1012.19 477.093   2
   6  -6   2 1195.58 468.252   4
  -6   6  -3 815.535 375.422   2
   6  -6   3 1263.73 450.354   4
  -6   6  -4 354.127 291.900   2
  -6   6  -5 387.675 335.303   2
  -6   6  -6 698.385 404.872   2
  -6   6  -7 1376.16 541.643   2
  -6   6  -8 661.833 406.277   2
  -6   6  -9 7006.05 1446.00   2
  -6   6 -10 4028.64 1118.72   2
  -6   6 -11-64.3841 234.510   2
  -6   6 -12 1084.09 628.722   2
  -6   6 -13 694.517 562.297   2
  -6   6 -14 321.585 532.331   2
  -6   6 -15 224.024 468.625   2
  -6   6 -16 105.067 380.861   2
  -6   6 -16-251.664 355.165   3
  -6   6 -17 2980.37 1089.42   2
  -6   6 -17 5559.40 1539.66   3
  -6   6 -18 422.164 534.653   7
  -6   6 -18 208.413 333.555   2
  -6   6 -19 1510.07 783.470   2
  -6   6 -20 341.126 536.660   2
  -6   5  18 1298.43 925.817   6
   6  -5 -17-27.3795 511.439   4
  -6   5  17-1108.69 777.688   6
   6  -5 -17-517.443 496.915   9
   6  -5 -16 739.841 660.198   4
  -6   5  16 848.195 539.510   6
   6  -5 -16 1401.87 791.203   9
   6  -5 -15-254.256 412.298   4
  -6   5  15-875.998 665.665   6
   6  -5 -15 5.41117 238.012   9
   6  -5 -14 1055.28 618.150   4
  -6   5  14 573.335 415.387   6
   6  -5 -14 629.593 337.747   9
   6  -5 -13 940.593 753.116   4
  -6   5  13-473.557 405.977   6
   6  -5 -12 79.2826 266.969   4
  -6   5  12 125.387 593.564   6
  -6   5  11 1720.79 847.604   6
   6  -5 -10 911.650 607.799   4
  -6   5  10 731.348 547.400   6
   6  -5  -9 6459.82 1536.20   4
  -6   5   9 5028.67 1328.11   6
  -6   5   9 4603.58 813.268   8
   6  -5  -8 420.287 440.558   4
  -6   5   8-72.3653 189.793   3
  -6   5   8 72.2985 236.595   8
   6  -5  -7-219.551 461.119   4
  -6   5   7 284.674 464.887   6
  -6   5   7 281.696 389.577   3
   6  -5  -6 258.664 275.448   4
  -6   5   6 439.565 184.804   6
  -6   5   6-27.7451 213.800   3
  -6   5   6 162.282 111.581   2
   6  -5  -5 7479.93 1462.59   4
  -6   5   5 10291.0 1727.15   6
  -6   5   5 8819.62 1377.36   3
  -6   5   5 8367.25 1151.24   2
  -6   5   4 9960.41 1737.67   6
  -6   5   4 10992.1 1573.80   3
  -6   5   4 10430.0 1334.51   2
   6  -5  -4 10429.4 1664.21   4
  -6   5   3 4986.38 956.618   2
   6  -5  -3 4412.74 1026.60   4
  -6   5   3 6064.35 1266.23   6
  -6   5   3 4850.27 1051.83   3
  -6   5   2 3708.33 827.714   2
   6  -5  -2 3160.05 847.769   4
  -6   5   2 2940.80 855.045   6
   6  -5  -1 1842.92 615.672   4
  -6   5   1 600.750 281.414   2
   6  -5   0 688.249 411.516   4
  -6   5   0 994.642 474.025   2
  -6   5  -1 4308.53 951.183   2
   6  -5   1 7320.18 1156.60   4
  -6   5  -2 56.1724 335.021   2
   6  -5   2 522.540 363.685   4
  -6   5  -3 122.089 282.704   2
  -6   5  -4 3463.08 917.299   2
   6  -5   4 3355.06 366.709   9
  -6   5  -5 6675.90 1369.78   2
  -6   5  -6 4368.77 727.262   4
  -6   5  -6 4242.35 1004.52   2
  -6   5  -7 2680.49 553.647   4
  -6   5  -7 3399.23 964.829   2
  -6   5  -8 3948.43 655.855   4
  -6   5  -8 4252.89 1096.60   2
  -6   5  -9 6209.66 1363.78   2
  -6   5 -10 326.992 196.311   2
  -6   5 -11 452.376 521.315   2
  -6   5 -12 1937.05 807.140   2
  -6   5 -13 916.344 389.150   2
  -6   5 -13 1939.51 860.986   3
  -6   5 -14-993.382 611.956   2
  -6   5 -14 219.255 266.688   3
  -6   5 -15 187.580 264.436   7
  -6   5 -15-272.011 345.540   2
  -6   5 -15 425.557 472.857   3
  -6   5 -16 2494.12 1028.46   7
  -6   5 -16 4215.12 1275.25   2
  -6   5 -16 4803.87 1347.86   3
  -6   5 -17-569.382 523.205   7
  -6   5 -17-356.191 410.857   2
  -6   5 -18 351.399 441.113   7
  -6   5 -18 1094.95 773.133   2
  -6   5 -19-393.516 442.757   2
  -6   5 -20 1937.72 1020.79   2
  -6   4  19-4.63969 429.707   6
  -6   4  18 437.523 760.569   6
  -6   4  17 598.533 494.421   6
   6  -4 -17 416.355 451.783   9
   6  -4 -16-8.75081 292.283   4
  -6   4  16 722.876 606.937   6
   6  -4 -16-381.056 421.566   9
   6  -4 -15-269.475 324.260   4
  -6   4  15-882.479 652.833   6
   6  -4 -14 470.446 568.359   4
  -6   4  14 473.787 488.015   6
   6  -4 -13 2952.85 1189.92   4
  -6   4  13 1059.08 693.718   6
   6  -4 -12 4334.18 1489.85   4
  -6   4  12 4332.81 1251.13   6
   6  -4 -11-169.468 405.395   4
  -6   4  11 293.432 516.217   6
   6  -4 -10 1385.06 694.071   4
  -6   4  10 1402.66 701.838   6
  -6   4  10 889.408 357.724   8
   6  -4  -9 2506.34 924.161   4
  -6   4   9 2023.22 963.331   6
  -6   4   9 1950.94 565.532   8
   6  -4  -8 3306.14 1046.19   4
  -6   4   8 1803.47 774.352   6
  -6   4   8 3093.08 687.283   8
   6  -4  -7 4509.60 1147.35   4
  -6   4   7 6087.98 1379.44   6
  -6   4   7 5212.62 1011.78   3
  -6   4   7 5251.23 919.929   8
   6  -4  -6 10159.2 1701.69   4
  -6   4   6 11351.6 1867.10   6
  -6   4   6 9808.54 1433.01   3
  -6   4   6 11647.1 1335.52   2
  -6   4   5 12089.4 1858.23   6
  -6   4   5 13571.3 1670.17   3
  -6   4   5 11544.0 1366.65   2
   6  -4  -5 12628.1 1855.80   4
   6  -4  -4-10.3251 311.722   4
  -6   4   4 69.0566 354.795   6
  -6   4   4-130.280 249.895   3
  -6   4   4 178.270 181.868   2
   6  -4  -3 409.274 333.952   4
  -6   4   3 318.302 304.533   3
  -6   4   3 234.459 137.814   2
  -6   4   2 1545.76 577.343   2
   6  -4  -2 1912.14 649.234   4
  -6   4   2 2311.22 707.188   3
   6  -4  -1 28.0736 155.284   4
  -6   4   1-170.233 288.276   2
  -6   4   1 437.737 382.802   3
  -6   4   0 96.9041 255.888   2
  -6   4   0 62.2827 185.133   3
   6  -4   0 279.180 324.733   4
  -6   4  -1 3083.29 815.614   2
   6  -4   1 3901.22 820.657   4
  -6   4  -2 9280.06 1417.00   2
  -6   4  -3 5685.12 1135.01   2
   6  -4   4 25657.9 1278.30   9
  -6   4  -4 25658.5 2520.59   2
  -6   4  -5 234.102 348.499   2
   6  -4   5 154.551 95.5651   9
  -6   4  -6 7389.65 1391.26   2
   6  -4   6 6119.11 711.030   9
  -6   4  -7 3161.85 921.378   2
  -6   4  -7 2726.14 607.259   4
  -6   4  -8 768.147 726.544   2
  -6   4  -9 2341.07 933.561   2
  -6   4  -9 3474.29 1067.05   3
  -6   4 -10-35.2228 231.837   2
  -6   4 -10-728.831 487.506   3
  -6   4 -11 3031.02 946.914   2
  -6   4 -11 4065.68 1131.33   3
  -6   4 -12 4881.80 1264.61   2
  -6   4 -12 5566.82 1341.25   3
  -6   4 -13 88.3452 330.846   7
  -6   4 -13-45.0817 160.450   2
  -6   4 -13 480.532 540.334   3
  -6   4 -14 2474.24 1000.95   7
  -6   4 -14 1872.02 783.042   2
  -6   4 -14 1133.09 624.706   3
  -6   4 -15-49.3457 341.892   7
  -6   4 -15 254.308 297.768   2
  -6   4 -15 649.306 587.320   3
  -6   4 -16 1262.98 896.850   7
  -6   4 -16 1274.22 738.579   2
  -6   4 -16 347.618 499.070   3
  -6   4 -17 308.715 388.423   7
  -6   4 -17-657.891 533.610   2
  -6   4 -18 218.708 548.131   7
  -6   4 -18-274.749 369.763   2
  -6   4 -19 106.520 320.541   2
   6  -3 -18 238.784 376.094   4
   6  -3 -18-176.119 324.426   9
  -6   3  17-1.34153 318.831   6
   6  -3 -17 896.141 721.328   4
  -6   3  16-298.984 408.115   6
   6  -3 -16 822.928 744.192   4
   6  -3 -15-21.1235 554.938   4
  -6   3  15-209.378 341.377   6
   6  -3 -14-92.0738 225.009   4
  -6   3  14 2734.25 1158.93   6
   6  -3 -13 4182.81 1317.87   4
  -6   3  13 4585.28 1350.58   6
   6  -3 -12 1605.16 828.228   4
  -6   3  12 1096.48 848.638   6
   6  -3 -11 4465.51 1320.98   4
  -6   3  11 3570.81 1044.17   6
  -6   3  11 2859.39 618.151   8
   6  -3 -10 2655.88 957.335   4
  -6   3  10 1639.22 712.687   6
  -6   3  10 2683.95 636.108   8
   6  -3  -9 5173.01 1326.81   4
  -6   3   9 4692.50 1238.45   6
  -6   3   9 5516.74 927.543   8
   6  -3  -8 1169.36 611.003   4
  -6   3   8 1282.93 693.015   6
  -6   3   8 589.910 350.525   8
  -6   3   7 12640.1 1990.28   6
  -6   3   7 11972.6 1484.03   8
   6  -3  -7 10587.7 1769.17   4
   6  -3  -6 1236.52 562.173   4
  -6   3   6 1977.81 630.651   3
   6  -3  -5 4.98208 238.369   4
  -6   3   5-89.6528 235.842   3
  -6   3   5 293.954 234.641   2
   6  -3  -4 2594.23 766.826   4
  -6   3   4 4230.73 947.049   3
  -6   3   4 3766.25 821.879   2
   6  -3  -3 3311.41 885.296   4
  -6   3   3 3210.09 838.373   3
  -6   3   3 3182.77 772.908   2
   6  -3  -2-69.9600 149.399   4
  -6   3   2-95.6099 112.901   3
  -6   3   2-55.7753 131.569   2
  -6   3   1 3418.31 792.415   2
  -6   3   1 3832.03 924.744   3
   6  -3  -1 2796.65 760.864   4
  -6   3   0 564.060 286.131   2
   6  -3   0 879.853 406.597   4
  -6   3  -1 8913.87 1406.55   2
  -6   3  -1 8704.72 1436.25   3
  -6   3  -2 845.463 388.734   2
  -6   3  -2 717.431 365.676   3
  -6   3  -3 7868.31 1312.16   2
  -6   3  -3 7510.39 1383.34   3
  -6   3  -4 426.086 182.591   2
  -6   3  -4 213.851 157.026   3
  -6   3  -5 21662.3 2395.85   3
   6  -3   5 20324.0 1367.63   9
  -6   3  -5 19820.4 2210.43   2
  -6   3  -6 606.442 430.999   2
  -6   3  -6 638.878 456.170   3
   6  -3   6 640.503 272.514   9
  -6   3  -7 2685.36 828.806   2
  -6   3  -7 2892.82 955.904   3
  -6   3  -8 11650.4 1821.80   3
  -6   3  -8 12206.6 1864.59   2
  -6   3  -9 3070.19 1058.53   2
  -6   3  -9 1956.12 797.415   3
  -6   3 -10 775.060 448.047   2
  -6   3 -10 189.114 237.979   3
  -6   3 -11 2933.68 916.371   7
  -6   3 -11 2104.41 879.541   2
  -6   3 -11 3224.16 991.917   3
  -6   3 -12 1201.92 599.619   7
  -6   3 -12 872.200 566.265   2
  -6   3 -12 510.525 346.471   3
  -6   3 -13 3599.57 1157.25   7
  -6   3 -13 2994.35 987.459   2
  -6   3 -13 2801.16 938.567   3
  -6   3 -14 2082.24 893.140   7
  -6   3 -14 4283.75 1244.78   2
  -6   3 -14 3397.00 1019.33   3
  -6   3 -15 902.418 627.231   7
  -6   3 -15 1160.27 714.480   2
  -6   3 -15 296.867 233.584   3
  -6   3 -16-454.399 459.351   7
  -6   3 -16-481.360 446.887   2
  -6   3 -17-800.333 614.697   7
  -6   3 -17-784.342 570.965   2
  -6   3 -18 144.519 361.936   7
  -6   3 -18-1.13978 380.666   2
   6  -2 -19-389.052 784.044   4
   6  -2 -18 1215.38 782.541   4
   6  -2 -17-144.460 338.357   4
   6  -2 -16 243.094 438.379   4
   6  -2 -15-1305.83 787.412   4
   6  -2 -14 399.084 334.276   4
   6  -2 -13 810.459 683.004   4
   6  -2 -12 2992.39 1111.50   4
   6  -2 -11 1181.65 703.898   4
  -6   2  11 492.173 246.337   8
   6  -2 -10 7590.57 1608.43   4
  -6   2  10 8267.47 1158.91   8
   6  -2  -9 1498.57 689.751   4
  -6   2   9 1354.20 479.273   8
   6  -2  -8 7410.46 1510.48   4
  -6   2   8 6923.70 1106.45   8
   6  -2  -7 5048.69 1198.02   4
  -6   2   7 5489.09 1007.21   8
   6  -2  -6 408.534 297.141   4
  -6   2   6 933.332 397.057   8
   6  -2  -5 534.004 400.553   4
  -6   2   5 1005.39 415.202   3
  -6   2   5 1964.16 590.115   2
  -6   2   4 2501.44 748.268   3
  -6   2   4 2528.71 667.456   2
  -6   2   3 2978.50 799.961   3
  -6   2   3 3863.31 860.925   2
   6  -2  -3 2848.03 795.906   4
  -6   2   2 734.295 378.072   3
  -6   2   2 480.727 267.504   2
   6  -2  -2 380.391 291.218   4
  -6   2   1 2396.00 730.103   3
   6  -2  -1 2166.20 709.434   4
  -6   2   1 2436.03 704.851   2
  -6   2   0 1812.53 644.745   3
  -6   2   0 1823.37 641.193   2
  -6   2  -1 7353.20 1239.16   2
  -6   2  -1 6284.35 1209.42   3
  -6   2  -2-41.8950 361.406   2
  -6   2  -2-57.9905 290.472   3
  -6   2  -3 1401.26 637.405   2
  -6   2  -3 1783.27 652.391   3
  -6   2  -4-76.1883 190.606   2
  -6   2  -4-229.028 257.761   3
  -6   2  -5 101.886 300.799   2
  -6   2  -5 779.689 505.308   3
   6  -2   5 417.789 220.127   9
  -6   2  -6 1496.06 759.613   2
  -6   2  -6 496.302 345.851   3
  -6   2  -7 371.632 374.676   2
  -6   2  -7 525.572 386.242   3
  -6   2  -8 8443.08 1484.23   2
  -6   2  -8 8400.00 1557.77   3
  -6   2  -9-45.3233 195.832   2
  -6   2  -9-36.1252 316.139   3
  -6   2 -10 5314.19 1259.69   7
  -6   2 -10 6269.31 1354.61   2
  -6   2 -10 6196.06 1376.80   3
  -6   2 -11-200.349 379.463   7
  -6   2 -11 305.039 205.202   2
  -6   2 -11 366.942 375.297   3
  -6   2 -12-480.539 399.925   3
   6  -2  12-33.3673 106.563   6
  -6   2 -13 110.236 235.099   7
  -6   2 -13-256.569 562.449   2
  -6   2 -13-171.478 444.589   3
  -6   2 -14 4474.26 1256.73   7
  -6   2 -14 5414.15 1349.78   2
  -6   2 -14 3922.12 1116.09   3
  -6   2 -15 856.415 673.649   7
  -6   2 -15-155.502 225.526   2
  -6   2 -15 1136.62 596.912   3
  -6   2 -16 103.453 175.874   7
  -6   2 -16-504.572 456.328   2
  -6   2 -17 355.015 634.520   7
  -6   2 -17 645.908 478.364   2
  -6   2 -18-1117.58 744.688   7
   6  -1 -19 1264.73 921.138   4
   6  -1 -18 39.5081 341.880   4
   6  -1 -17 561.629 372.781   4
   6  -1 -16-648.432 576.397   4
   6  -1 -15 258.537 380.239   4
   6  -1 -14 1764.56 850.726   4
   6  -1 -13 153.164 265.341   4
   6  -1 -12-56.7538 245.689   4
  -6   1  12 178.976 234.491   8
   6  -1 -11 2554.39 996.713   4
  -6   1  11 998.364 437.633   8
   6  -1 -10 4468.53 1259.72   4
  -6   1  10 4975.48 924.086   8
   6  -1  -9-27.6056 353.581   4
  -6   1   9-175.581 231.504   8
   6  -1  -8 4776.35 1181.41   4
  -6   1   8 5176.64 983.816   8
   6  -1  -7 843.013 550.025   4
  -6   1   7 824.855 523.632   8
   6  -1  -6 1658.80 708.436   4
  -6   1   6 940.815 443.893   8
  -6   1   5 445.524 386.836   8
   6  -1  -5 239.069 274.999   4
  -6   1   4 22.4638 149.255   2
   6  -1  -4 251.464 283.352   4
  -6   1   3 13121.4 1667.54   3
  -6   1   3 13470.2 1621.21   2
   6  -1  -3 13466.8 1724.44   4
  -6   1   2 411.298 354.883   3
  -6   1   2 236.348 175.924   2
   6  -1  -2 733.409 427.148   4
  -6   1   1 10497.3 1538.16   3
  -6   1   1 12917.3 1587.62   2
  -6   1   0 10897.2 1588.41   3
  -6   1   0 13676.6 1684.12   2
  -6   1  -1 5234.92 1098.95   3
  -6   1  -1 7714.31 1278.57   2
  -6   1  -2 1654.22 630.952   3
  -6   1  -2 2123.56 646.471   2
  -6   1  -3 26621.7 2528.73   3
  -6   1  -3 32743.8 2739.53   2
  -6   1  -4 5722.42 1218.93   2
  -6   1  -4 5265.88 1162.24   3
  -6   1  -5 10086.0 1610.86   3
  -6   1  -5 12394.5 1746.89   2
  -6   1  -6 117.984 205.363   2
  -6   1  -6-99.4509 225.483   3
  -6   1  -7 1859.13 778.262   2
  -6   1  -7 1364.97 599.192   3
  -6   1  -8 1392.63 603.994   2
  -6   1  -8 758.096 488.998   7
  -6   1  -8 1793.54 687.189   3
  -6   1  -9 5891.01 1251.38   7
  -6   1  -9 6177.24 1359.63   2
  -6   1  -9 5966.64 1284.10   3
  -6   1 -10 3669.60 1010.34   7
  -6   1 -10 4988.62 1217.96   2
  -6   1 -10 5749.27 1307.65   3
  -6   1 -11-47.4592 268.194   7
  -6   1 -11 249.604 274.490   2
  -6   1 -11 126.089 399.314   3
  -6   1 -12-76.8745 216.748   7
  -6   1 -12 968.251 540.560   2
  -6   1 -12 624.639 446.068   3
  -6   1 -13-280.034 407.874   2
  -6   1 -13-488.458 480.325   7
  -6   1 -13-590.333 440.642   3
   6  -1  13-189.616 71.5392   6
  -6   1 -14 10761.9 1937.53   2
  -6   1 -14 8504.28 1769.98   7
  -6   1 -14 11799.6 1919.92   3
  -6   1 -15 547.184 497.891   2
  -6   1 -15 1471.01 833.709   7
  -6   1 -16-516.560 453.613   2
  -6   1 -16 621.012 570.360   7
  -6   1 -17 1287.00 708.166   2
  -6   1 -17 1199.61 860.147   7
  -6   1 -18-46.1530 207.044   7
   6   0 -20-56.9091 368.003   4
   6   0 -19 426.886 736.382   4
   6   0 -18 228.320 374.565   4
   6   0 -17-984.168 707.458   4
   6   0 -16 43.0174 485.574   4
   6   0 -15 744.267 723.883   4
   6   0 -14 1532.13 755.269   4
   6   0 -13-371.768 386.015   4
  -6   0  13 549.797 332.850   8
   6   0 -12 672.084 585.777   4
  -6   0  12 600.739 373.501   8
   6   0 -11 800.975 532.403   4
  -6   0  11 643.959 307.305   8
   6   0 -10 305.776 417.495   4
  -6   0  10 295.288 185.078   8
   6   0  -9 858.520 492.984   4
  -6   0   9 714.649 361.089   8
   6   0  -8 156.947 267.947   4
  -6   0   8 401.735 334.915   8
  -6   0   7 1958.90 641.678   8
   6   0  -7 1884.08 712.558   4
  -6   0   6 1818.70 653.203   8
   6   0  -6 2020.53 729.414   4
  -6   0   5 219.369 368.090   8
   6   0  -5-70.3252 237.547   4
   6   0  -4 2948.36 842.810   4
  -6   0   4 2629.46 782.037   8
  -6   0   3 7480.97 1204.16   2
   6   0  -3 7001.64 1253.07   4
  -6   0   2 2814.15 688.261   2
  -6   0   1 12391.3 1607.16   2
  -6   0   0 5219.39 1095.32   3
  -6   0   0 5288.08 1064.13   2
  -6   0  -1 1388.95 609.498   3
  -6   0  -1 2211.24 742.601   2
  -6   0  -2 6782.84 1279.79   3
  -6   0  -2 6071.38 1154.71   2
  -6   0  -3 6630.32 1295.05   3
  -6   0  -3 7665.08 1343.38   2
  -6   0  -4 2159.80 786.104   3
  -6   0  -4 1843.04 687.134   2
  -6   0  -5 112.265 351.753   3
  -6   0  -5 104.665 245.453   2
  -6   0  -6 825.018 485.530   3
  -6   0  -6 1328.80 605.180   2
  -6   0  -7 694.511 382.692   2
  -6   0  -7 292.046 218.066   7
  -6   0  -7 305.259 345.001   3
  -6   0  -8 6903.64 1374.99   2
  -6   0  -8 6837.09 1264.54   7
  -6   0  -8 5000.17 1161.62   3
  -6   0  -9 10884.0 1790.14   2
  -6   0  -9 9975.81 1665.00   3
  -6   0  -9 12659.8 1809.11   7
  -6   0 -10 791.242 572.865   2
  -6   0 -10-467.345 310.046   7
  -6   0 -10 226.913 412.012   3
  -6   0 -11 67.0912 336.515   2
  -6   0 -11 2.45772 330.070   7
  -6   0 -12 236.274 306.739   2
  -6   0 -12 212.697 244.360   7
   6   0  12 309.039 345.911   6
  -6   0 -13 3054.51 1042.41   7
   6   0  13 2291.16 606.591   6
  -6   0 -13 2842.34 973.001   2
  -6   0 -14 1761.09 758.669   7
  -6   0 -14 1972.37 933.346   2
  -6   0 -15-548.895 505.440   7
  -6   0 -15-292.679 323.608   2
  -6   0 -16 20.3069 187.323   7
  -6   0 -16 913.093 550.344   2
  -6   0 -17-294.773 408.100   7
  -6   0 -18 790.411 575.343   7
   6   1 -20 253.806 639.314   4
   6   1 -19 1264.61 827.452   4
   6   1 -18 2.74799 245.864   4
   6   1 -17 195.052 379.682   4
   6   1 -16-119.285 286.419   4
   6   1 -15 2525.77 1054.94   4
   6   1 -14-43.9258 343.241   4
  -6  -1  14-164.183 231.881   8
   6   1 -13 3133.99 1104.39   4
  -6  -1  13 4173.58 879.772   8
   6   1 -12-143.071 216.451   4
  -6  -1  12 256.886 304.030   8
   6   1 -11 1352.29 636.434   4
  -6  -1  11 1019.93 407.882   8
   6   1 -10 379.999 505.473   4
  -6  -1  10 254.501 309.230   8
  -6  -1   9 1425.30 599.418   8
   6   1  -9 1882.11 767.731   4
  -6  -1   8 530.029 347.504   8
   6   1  -8 245.517 290.141   4
  -6  -1   7 4081.23 892.949   8
   6   1  -7 5250.08 1181.69   4
  -6  -1   6 1349.97 525.952   8
   6   1  -6 984.999 515.120   4
   6   1  -5 1611.59 643.516   4
  -6  -1   5 1279.99 538.929   8
  -6  -1   4 4005.13 938.007   8
  -6  -1   3 3680.04 894.070   8
  -6  -1   2 23693.3 2219.77   2
  -6  -1   1 213.314 147.134   2
  -6  -1   0 7816.61 1308.17   2
  -6  -1  -1 1301.75 557.889   2
  -6  -1  -2 612.544 431.224   2
  -6  -1  -3 320.811 496.111   2
  -6  -1  -4-13.0365 164.369   2
  -6  -1  -5 822.907 428.511   2
  -6  -1  -6 1191.71 459.546   7
  -6  -1  -6 1448.36 735.407   2
  -6  -1  -7 5696.24 1141.30   7
  -6  -1  -7 5677.95 1242.89   2
  -6  -1  -8 2926.11 854.502   7
  -6  -1  -8 4004.40 1038.96   2
  -6  -1  -9 305.511 227.448   7
  -6  -1  -9 1434.42 597.339   5
  -6  -1  -9 1307.04 683.484   2
  -6  -1 -10-353.125 346.811   7
  -6  -1 -10 503.927 467.718   5
  -6  -1 -10 412.434 332.965   2
  -6  -1 -11 684.415 404.432   7
   6   1  11 275.481 170.921   6
  -6  -1 -11 744.549 608.319   5
  -6  -1 -11 576.069 499.274   2
  -6  -1 -12 1033.24 595.201   7
   6   1  12 413.579 284.498   6
  -6  -1 -12 825.880 604.439   5
  -6  -1 -12 1222.31 643.906   2
  -6  -1 -13 1236.89 688.975   7
   6   1  13 1067.66 462.035   6
  -6  -1 -13 243.124 357.956   5
  -6  -1 -13 1278.22 663.523   2
  -6  -1 -14 594.615 632.532   7
  -6  -1 -14-357.211 402.851   5
  -6  -1 -14-89.7072 340.472   2
  -6  -1 -15 820.540 762.927   7
  -6  -1 -15 145.800 279.762   5
  -6  -1 -15 11.4479 164.373   2
  -6  -1 -16 265.957 405.733   7
  -6  -1 -16 339.253 375.767   5
  -6  -1 -17 205.048 337.056   7
  -6  -1 -17 689.567 503.440   5
  -6  -1 -18 100.642 312.342   5
   6   2 -21 1286.07 873.367   4
   6   2 -20-705.629 638.066   4
   6   2 -19 1061.86 1061.67   4
   6   2 -18-163.132 688.842   4
   6   2 -17-512.277 514.021   4
   6   2 -16 2421.87 1020.18   4
   6   2 -15 289.529 165.974   4
  -6  -2  15 596.083 375.909   8
   6   2 -14-265.417 292.814   4
  -6  -2  14 1074.22 489.057   8
  -6  -2  13 910.119 437.353   8
   6   2 -13-17.3074 394.414   4
  -6  -2  12 4875.02 986.641   8
   6   2 -12 4374.54 1243.54   4
  -6  -2  11 8320.94 1300.00   8
   6   2 -11 10120.9 1847.57   4
  -6  -2  10-339.810 305.744   8
   6   2 -10 200.804 357.131   4
  -6  -2   9 11548.1 1539.60   8
   6   2  -9 10245.9 1770.65   4
  -6  -2   8 233.961 160.747   8
   6   2  -8 562.595 452.092   4
  -6  -2   7 6858.12 1204.07   8
   6   2  -7 9089.16 1579.77   4
   6   2  -6 415.602 364.434   4
  -6  -2   6 1058.97 481.906   8
  -6  -2   5 1715.28 681.524   8
  -6  -2   4 6696.90 1210.67   8
  -6  -2   3 683.659 485.651   8
  -6  -2   2 4993.13 1079.38   8
  -6  -2   1 348.834 345.147   2
  -6  -2   1-30.6037 201.294   8
  -6  -2   0 7094.01 1239.60   2
   6   2   0 6157.74 834.946   7
   6   2   1 31.8214 57.4911   7
  -6  -2  -1 24.7031 217.514   2
  -6  -2  -2 1377.09 614.639   2
  -6  -2  -3 5288.08 1135.13   2
  -6  -2  -4 376.553 285.407   2
  -6  -2  -5 1390.27 654.684   2
  -6  -2  -6 24.6903 218.657   7
  -6  -2  -6 226.507 223.784   2
  -6  -2  -6-255.639 207.057   5
  -6  -2  -7 2418.81 759.318   7
  -6  -2  -7 3087.43 928.080   2
  -6  -2  -7 3770.43 1066.93   5
  -6  -2  -8 1125.36 525.472   7
  -6  -2  -8 1851.98 798.108   5
  -6  -2  -8 437.094 314.235   2
  -6  -2  -9 5696.02 1241.92   7
  -6  -2  -9 4520.87 1255.68   5
  -6  -2  -9 4056.42 1084.29   2
  -6  -2 -10 450.400 237.101   7
  -6  -2 -10 193.104 439.871   5
  -6  -2 -10-623.734 442.779   2
  -6  -2 -11 3215.11 939.764   7
   6   2  11 3092.61 816.517   6
  -6  -2 -11 1661.86 808.825   5
  -6  -2 -11 2231.39 870.266   2
  -6  -2 -12 110.172 347.076   7
   6   2  12 1130.90 488.688   6
  -6  -2 -12 1513.02 835.495   5
  -6  -2 -12 1439.00 733.116   2
  -6  -2 -13 570.241 547.651   7
   6   2  13 132.977 124.235   6
  -6  -2 -13 571.761 357.426   2
  -6  -2 -13 115.471 442.282   5
  -6  -2 -14 190.242 313.740   7
   6   2  14 381.064 299.598   6
  -6  -2 -14-97.5095 245.425   5
  -6  -2 -15 1825.73 849.457   7
  -6  -2 -15 1994.43 999.474   5
  -6  -2 -16 522.417 499.024   7
  -6  -2 -16 666.203 595.730   5
  -6  -2 -17 296.319 406.064   7
  -6  -2 -17-224.538 407.259   5
  -6  -2 -18-1416.11 861.887   5
   6   3 -21 239.872 563.228   4
   6   3 -20-1619.51 935.450   4
   6   3 -19 1189.01 760.510   4
   6   3 -18 234.642 488.059   4
   6   3 -17 975.856 709.237   4
  -6  -3  16 187.097 179.464   8
   6   3 -16 781.245 676.752   4
  -6  -3  15 232.138 209.127   8
   6   3 -15 843.976 649.023   4
  -6  -3  14 579.603 400.297   8
   6   3 -14 308.933 457.892   4
  -6  -3  13 820.881 430.058   8
   6   3 -13 20.0084 259.533   4
  -6  -3  12 1735.03 601.042   8
   6   3 -12 2427.47 963.499   4
   6   3 -11 778.958 493.966   4
  -6  -3  11 844.014 389.927   8
  -6  -3  10 19421.7 2057.39   8
   6   3 -10 20201.9 2536.95   4
  -6  -3   9 5880.92 1146.17   8
   6   3  -9 4134.43 1137.36   4
  -6  -3   8 7603.58 1312.34   8
   6   3  -8 6222.91 1358.50   4
  -6  -3   7 627.030 397.027   8
  -6  -3   6 3659.81 906.948   8
  -6  -3   5 1943.99 669.061   8
  -6  -3   4 1115.25 540.187   8
  -6  -3   3 17009.1 1968.63   8
  -6  -3   2 2308.44 740.806   8
   6   3  -1 1586.27 375.123   7
  -6  -3   1 2635.37 761.384   8
   6   3   0 929.256 308.240   7
  -6  -3   0 2072.01 808.116   8
   6   3   1 210.083 132.240   7
  -6  -3  -1 322.523 230.248   2
  -6  -3  -1 876.416 540.454   8
  -6  -3  -2 210.340 154.091   2
   6   3   2 842.418 320.245   7
  -6  -3  -3 206.490 280.884   2
  -6  -3  -4 533.109 383.794   2
  -6  -3  -4 255.792 310.260   5
  -6  -3  -5 1386.28 595.818   2
  -6  -3  -5 996.775 543.396   5
  -6  -3  -6 9814.27 1630.29   2
  -6  -3  -6 13188.1 1955.74   5
  -6  -3  -6 9852.80 1371.12   7
  -6  -3  -7 1328.37 520.205   7
  -6  -3  -7 1905.11 818.143   2
  -6  -3  -7 2049.19 795.984   5
  -6  -3  -8 1537.36 733.451   7
  -6  -3  -8 1983.67 775.769   2
  -6  -3  -8 2392.81 814.587   5
  -6  -3  -9 3238.72 895.999   7
  -6  -3  -9 4912.02 1327.64   5
  -6  -3  -9 4269.50 1152.93   2
  -6  -3 -10-157.525 217.481   7
   6   3  10 40.4406 114.567   6
  -6  -3 -10 258.144 174.534   2
  -6  -3 -10-102.118 236.940   5
  -6  -3 -11 2662.08 883.190   7
   6   3  11 3610.90 884.305   6
  -6  -3 -11 2303.74 860.673   2
  -6  -3 -11 2585.06 1013.16   5
  -6  -3 -12 342.328 358.640   7
   6   3  12 1521.43 572.848   6
  -6  -3 -12 1812.10 657.798   2
  -6  -3 -12 1290.55 842.361   5
  -6  -3 -13 9.92386 302.675   7
   6   3  13-90.1471 269.739   6
  -6  -3 -13-126.733 227.478   2
  -6  -3 -13 391.406 454.816   5
  -6  -3 -14 1549.65 760.418   7
   6   3  14 3098.79 880.867   6
  -6  -3 -14 1981.29 1029.32   5
  -6  -3 -15 578.860 554.379   7
  -6  -3 -15 267.042 266.113   5
  -6  -3 -16 274.131 394.958   7
  -6  -3 -16 1011.29 634.920   5
  -6  -3 -17-381.474 459.828   7
  -6  -3 -17 114.489 301.667   5
   6   4 -21 441.538 460.095   4
   6   4 -20 519.256 536.836   4
   6   4 -19-656.115 594.977   4
   6   4 -18-66.2371 252.733   4
   6   4 -17 1756.90 859.699   4
  -6  -4  16 145.708 166.438   8
   6   4 -16 390.107 472.113   4
  -6  -4  15-244.959 305.912   8
   6   4 -15 1586.46 837.691   4
  -6  -4  14 782.326 442.008   8
   6   4 -14 1074.72 630.198   4
  -6  -4  13 195.397 198.828   8
   6   4 -13 90.0335 261.877   4
  -6  -4  12 1316.56 545.185   8
   6   4 -12 752.764 504.358   4
  -6  -4  11 16145.5 1908.71   8
   6   4 -11 13329.1 2107.68   4
  -6  -4  10 207.389 320.145   8
   6   4 -10 709.022 443.209   4
  -6  -4   9 11199.3 1644.66   8
  -6  -4   8 2816.25 803.620   8
  -6  -4   7 10279.6 1521.30   8
  -6  -4   6 9357.48 1480.63   8
  -6  -4   5-243.200 265.937   8
  -6  -4   4 6724.74 1247.53   8
  -6  -4   3 1344.25 666.828   8
   6   4  -2 64.1101 46.6803   7
  -6  -4   2 217.599 314.301   8
   6   4  -1 135.829 92.5115   7
  -6  -4   1 309.019 263.208   8
  -6  -4   0-156.964 310.417   8
   6   4   0 148.351 130.144   7
  -6  -4  -1 2266.02 770.520   8
  -6  -4  -2 2046.29 719.029   5
  -6  -4  -2 2103.10 758.889   8
  -6  -4  -3 2182.21 749.733   5
  -6  -4  -3 1131.66 606.002   8
  -6  -4  -4 2775.19 827.150   2
  -6  -4  -4 1858.35 746.808   5
  -6  -4  -4 2423.46 746.861   8
  -6  -4  -5 11343.8 1768.84   2
  -6  -4  -5 12224.3 1869.33   5
  -6  -4  -5 10244.9 1619.71   8
  -6  -4  -6 3073.35 806.322   7
  -6  -4  -6 3208.00 878.160   2
  -6  -4  -6 3128.79 1016.79   5
  -6  -4  -6 4090.61 995.927   8
  -6  -4  -7 1661.06 549.898   7
  -6  -4  -7 998.147 517.030   2
  -6  -4  -7 1949.78 875.411   5
  -6  -4  -8 1639.43 658.256   7
  -6  -4  -8 1728.19 700.001   2
  -6  -4  -8 1584.11 707.381   5
  -6  -4  -9 2795.64 866.441   7
   6   4   9 3238.10 826.431   6
  -6  -4  -9 3974.95 1109.58   2
  -6  -4  -9 1876.66 842.533   5
  -6  -4 -10 73.6329 150.065   7
   6   4  10 208.845 194.372   6
  -6  -4 -10 172.500 285.986   2
  -6  -4 -10 661.623 537.893   5
  -6  -4 -11 704.661 489.204   7
   6   4  11-28.8462 204.370   6
  -6  -4 -11 150.009 233.521   2
  -6  -4 -11 308.572 499.789   5
  -6  -4 -11 146.951 194.288   8
  -6  -4 -12 593.779 375.364   7
   6   4  12 799.365 471.017   6
  -6  -4 -12 835.263 517.635   2
  -6  -4 -12 594.154 539.339   5
  -6  -4 -13 1695.28 790.892   7
   6   4  13 2396.96 788.890   6
  -6  -4 -13 1103.54 578.748   2
  -6  -4 -13 770.137 559.586   5
  -6  -4 -14 444.567 437.651   7
   6   4  14 677.571 413.193   6
  -6  -4 -14 1318.72 903.989   5
  -6  -4 -15 181.496 298.786   7
  -6  -4 -15 55.7276 210.992   5
  -6  -4 -16 1073.06 773.174   7
  -6  -4 -16 806.499 765.022   5
   6   5 -21 2475.38 1175.88   4
   6   5 -21 2824.71 1158.53   7
   6   5 -20-21.9818 439.068   4
   6   5 -20-498.340 473.018   7
   6   5 -19-866.016 663.966   4
   6   5 -18 1164.40 710.186   4
  -6  -5  17 1778.23 717.244   8
   6   5 -17 5266.21 1634.61   4
  -6  -5  16 765.055 462.103   8
   6   5 -16 93.9581 219.268   4
  -6  -5  15 714.835 392.622   8
   6   5 -15 917.154 733.703   4
  -6  -5  14-212.554 340.053   8
   6   5 -14 254.177 366.276   4
  -6  -5  13 2467.96 760.958   8
   6   5 -13 1652.60 777.915   4
  -6  -5  12 2922.61 823.177   8
  -6  -5  11 200.172 446.253   8
  -6  -5  10 13961.5 1834.77   8
  -6  -5   9 6079.95 1162.61   8
  -6  -5   8-89.6883 258.721   8
  -6  -5   7 6438.93 1274.68   8
  -6  -5   6 57.8975 220.032   8
  -6  -5   5-181.694 197.198   8
   6   5  -4 51.0335 69.1008   7
  -6  -5   4 250.677 232.938   8
  -6  -5   3 4062.59 1012.70   8
   6   5  -3 3016.09 361.995   7
  -6  -5   2 5283.88 1163.24   8
   6   5  -2 3686.44 419.887   7
  -6  -5   1 2228.35 739.044   8
  -6  -5   0 679.815 437.181   8
  -6  -5  -1 1554.65 548.126   5
  -6  -5  -1 1937.71 707.739   8
  -6  -5  -2-76.0487 454.303   5
  -6  -5  -2 200.417 279.490   8
  -6  -5  -3 264.365 192.761   7
  -6  -5  -3 234.266 264.129   5
  -6  -5  -3 812.884 434.852   8
  -6  -5  -4 8802.68 1580.53   5
  -6  -5  -4 7323.98 1351.06   8
  -6  -5  -5 339.271 360.172   5
  -6  -5  -5 423.132 353.235   8
  -6  -5  -6 2462.87 686.067   7
  -6  -5  -6 1960.58 806.578   5
  -6  -5  -6 1911.12 646.978   8
  -6  -5  -7 224.674 250.316   7
  -6  -5  -7-267.771 430.413   5
  -6  -5  -7 267.209 456.887   8
  -6  -5  -8 19.7457 196.862   7
  -6  -5  -8-107.767 384.017   5
  -6  -5  -8-80.2256 249.692   8
  -6  -5  -9 531.602 401.915   7
   6   5   9 1017.80 517.649   6
  -6  -5  -9 301.385 356.132   5
  -6  -5  -9 170.481 230.222   8
  -6  -5 -10-186.732 257.740   7
  -6  -5 -10-827.489 584.375   5
   6   5  10 55.0183 158.352   6
  -6  -5 -10-196.991 269.973   8
  -6  -5 -11 1134.05 525.219   7
   6   5  11 2158.44 776.422   6
  -6  -5 -11 2158.92 940.455   5
  -6  -5 -12 295.218 353.668   7
   6   5  12 1878.38 726.110   6
  -6  -5 -12 1539.77 784.487   5
  -6  -5 -13 963.208 645.469   7
   6   5  13 383.608 354.017   6
  -6  -5 -13 972.933 679.687   5
  -6  -5 -14-73.6109 222.601   7
  -6  -5 -14 547.854 567.964   5
   6   5  14 41.8405 297.223   6
  -6  -5 -15 2375.15 1071.46   7
  -6  -5 -15 3173.99 1315.11   5
  -6  -5 -16 1253.09 813.414   7
   6   6 -21 134.811 254.314   4
   6   6 -20 1363.65 984.175   4
   6   6 -19-247.850 389.402   4
   6   6 -19 202.308 292.487   7
  -6  -6  18 128.954 244.559   8
   6   6 -18 18.4063 436.785   4
   6   6 -18 600.376 443.150   7
  -6  -6  17 1915.47 734.983   8
  -6  -6  16 174.485 315.799   8
  -6  -6  15 961.088 578.286   8
  -6  -6  14-138.561 274.754   8
  -6  -6  13-91.6315 166.427   8
  -6  -6  12-75.6731 272.064   8
  -6  -6  11 1871.11 759.084   8
  -6  -6  10 8320.12 1490.15   8
  -6  -6   9 2275.38 763.396   8
  -6  -6   8 6934.94 1349.75   8
  -6  -6   7 5293.22 1115.67   8
  -6  -6   6-36.7544 321.329   8
  -6  -6   5 1363.58 644.106   8
  -6  -6   4 1126.73 602.701   8
  -6  -6   3 340.736 259.915   8
  -6  -6   2 7204.90 1349.81   8
  -6  -6   1 714.301 448.089   8
  -6  -6   0 8194.78 1416.89   5
  -6  -6   0 8100.35 1482.84   8
  -6  -6  -1 4068.16 1027.31   5
  -6  -6  -1 4089.53 1024.14   8
  -6  -6  -2 5297.92 1213.09   5
  -6  -6  -2 6151.48 1226.74   8
  -6  -6  -3 9685.10 1686.20   5
  -6  -6  -3 9846.21 1582.18   8
  -6  -6  -3 9108.41 1078.54   7
  -6  -6  -4 1362.48 691.685   5
  -6  -6  -4 1626.90 723.109   8
  -6  -6  -5 6897.08 1320.21   8
  -6  -6  -5 5475.02 1361.57   5
  -6  -6  -6-199.741 119.750   7
  -6  -6  -6 572.777 618.025   5
  -6  -6  -6 176.056 282.931   8
  -6  -6  -7 6089.22 1160.31   7
  -6  -6  -7 6312.61 1515.32   5
  -6  -6  -7 4510.25 1059.75   8
  -6  -6  -8 1243.89 609.707   7
   6   6   8 588.230 343.372   6
  -6  -6  -8 739.502 434.041   5
  -6  -6  -8 820.585 439.579   8
  -6  -6  -9-11.8955 228.599   7
   6   6   9-202.943 284.419   6
  -6  -6  -9-178.647 480.952   5
  -6  -6  -9 460.245 407.312   8
  -6  -6 -10 4386.98 1133.80   7
   6   6  10 4726.63 1122.56   6
  -6  -6 -10 3290.28 1145.77   5
  -6  -6 -10 2383.39 769.744   8
  -6  -6 -11 668.750 507.359   7
   6   6  11 396.986 243.455   6
  -6  -6 -11-29.3383 210.076   5
  -6  -6 -12 2529.95 943.513   7
   6   6  12 1565.51 672.845   6
  -6  -6 -12 1938.85 857.708   5
  -6  -6 -13-146.897 283.572   7
   6   6  13 371.991 384.414   6
  -6  -6 -13 347.613 587.391   5
  -6  -6 -14 1829.28 886.234   7
  -6  -6 -14 1592.16 935.024   5
  -6  -6 -15 3000.23 1201.57   7
   6   6  15 2618.26 971.604   6
  -6  -7  19 451.867 388.276   8
  -6  -7  18 394.935 359.461   8
  -6  -7  17-300.460 190.908   8
  -6  -7  16-157.677 261.002   8
   6   7 -16 271.187 277.669   7
  -6  -7  15 705.362 465.232   8
   6   7 -15 225.631 262.228   7
  -6  -7  14 2566.44 905.382   8
   6   7 -14 1636.21 599.408   7
  -6  -7  13 723.749 517.665   8
   6   7 -13 1670.83 546.394   7
  -6  -7  12 1523.50 672.524   8
   6   7 -12 964.107 409.211   7
  -6  -7  11-207.036 390.531   8
   6   7 -11 475.857 301.590   7
  -6  -7  10 389.144 284.047   8
   6   7 -10 140.892 120.603   7
  -6  -7   9 650.288 458.890   8
   6   7  -9 1032.51 302.871   7
  -6  -7   8 22.8648 233.920   8
   6   7  -8 280.099 141.768   7
  -6  -7   7 307.803 423.568   8
  -6  -7   6 288.977 237.706   8
  -6  -7   5 2919.64 848.646   8
  -6  -7   4 43.6643 166.056   8
  -6  -7   3 1676.56 613.641   8
  -6  -7   2 514.027 466.001   8
  -6  -7   2-19.5855 168.487   5
  -6  -7   1 9641.86 1525.33   5
  -6  -7   1 10437.3 1629.39   8
  -6  -7   0 12564.4 1801.18   8
  -6  -7   0 11263.8 1714.11   5
  -6  -7  -1 2800.35 875.305   5
  -6  -7  -1 4310.72 1080.09   8
  -6  -7  -2 4305.26 1115.54   5
  -6  -7  -2 4096.69 1049.50   8
  -6  -7  -3 4210.36 728.637   7
  -6  -7  -3 5156.87 1275.25   5
  -6  -7  -3 4902.17 1147.82   8
  -6  -7  -4 3038.20 1018.29   5
  -6  -7  -4 4036.89 1027.72   8
  -6  -7  -5 6444.14 1527.97   5
  -6  -7  -5 6415.71 1309.93   8
  -6  -7  -6 2473.27 702.842   7
  -6  -7  -6 2024.82 880.222   5
  -6  -7  -6 2756.10 898.222   8
  -6  -7  -7 62.7573 142.617   7
   6   7   7 1055.76 564.810   6
  -6  -7  -7 332.172 350.141   5
  -6  -7  -7 344.451 279.574   8
  -6  -7  -8 99.0126 242.245   7
   6   7   8 427.439 341.928   6
  -6  -7  -8 124.311 321.329   5
  -6  -7  -8-301.208 294.106   8
  -6  -7  -9 543.312 501.013   7
   6   7   9 438.644 249.580   6
  -6  -7  -9 1869.31 883.465   5
  -6  -7  -9 1276.74 633.605   8
  -6  -7 -10 1072.66 620.713   7
   6   7  10 493.776 377.038   6
  -6  -7 -10 618.116 449.553   5
  -6  -7 -11 1340.17 694.599   7
   6   7  11 2447.20 829.098   6
  -6  -7 -12 516.322 503.102   7
   6   7  12 125.021 196.142   6
  -6  -7 -12 106.633 279.155   5
  -6  -7 -13-187.100 295.871   7
  -6  -7 -13 309.720 374.294   5
   6   7  14 2209.57 914.338   6
   6   7  15 531.972 534.807   6
  -6  -8  19 275.543 424.276   8
  -6  -8  18 792.127 525.920   8
  -6  -8  17 1091.98 546.604   8
  -6  -8  16 768.383 495.680   8
  -6  -8  15 1211.49 606.251   8
  -6  -8  14 1513.94 673.686   8
  -6  -8  13 4530.06 1137.54   8
  -6  -8  12 1754.90 685.645   8
  -6  -8  11-298.525 343.625   8
  -6  -8  10 321.130 344.210   8
  -6  -8   9 862.543 553.897   8
  -6  -8   8 1736.53 701.896   8
  -6  -8   7-147.546 468.559   8
  -6  -8   6 3582.29 1070.85   8
  -6  -8   5 5136.97 1233.12   8
  -6  -8   4 1296.52 661.513   8
  -6  -8   3 387.618 220.633   8
  -6  -8   3 0.63255 213.428   5
  -6  -8   2-6.71339 201.341   5
  -6  -8   2 517.948 484.886   8
  -6  -8   1 25049.2 2583.43   8
  -6  -8   1 23379.6 2456.11   5
  -6  -8   0-127.273 255.218   5
  -6  -8   0 198.433 216.736   8
  -6  -8  -1 36.6669 316.392   5
  -6  -8  -1 630.598 433.467   8
  -6  -8  -2-172.244 199.446   7
  -6  -8  -2-24.4563 141.870   5
  -6  -8  -2 23.1833 158.242   8
  -6  -8  -3 1289.14 402.248   7
  -6  -8  -3 1356.25 646.634   5
  -6  -8  -3 145.767 191.621   8
  -6  -8  -4-27.2580 334.413   5
  -6  -8  -4 1335.27 571.906   8
  -6  -8  -5 1199.42 705.315   5
  -6  -8  -5 749.375 454.007   8
  -6  -8  -6 331.246 304.748   7
  -6  -8  -6-162.330 262.084   5
  -6  -8  -6 217.605 211.416   8
  -6  -8  -7-491.877 346.250   7
   6   8   7 84.6116 472.327   6
  -6  -8  -7 53.0907 408.624   5
  -6  -8  -7 512.291 472.548   8
  -6  -8  -8-185.994 147.505   7
   6   8   8 674.052 500.513   6
  -6  -8  -8 136.617 270.958   5
  -6  -8  -8 520.024 411.462   8
   6   8   9-47.1506 333.781   6
  -6  -8  -9-12.3220 228.425   5
   6   8  10 3769.38 1079.54   6
  -6  -8 -10 1289.30 701.480   5
   6   8  11-580.802 447.921   6
  -6  -8 -11 819.342 794.219   5
   6   8  12 788.294 527.255   6
  -6  -8 -12-597.487 573.664   5
   6   8  13 2048.94 939.224   6
   6   8  14 603.121 584.273   6
  -6  -9  20 461.163 503.783   8
  -6  -9  19 1235.61 658.151   8
  -6  -9  18 1160.77 694.814   8
  -6  -9  17 406.953 405.770   8
  -6  -9  16-318.455 349.079   8
  -6  -9  15 1793.45 739.645   8
  -6  -9  14-224.623 486.721   8
  -6  -9  13 1215.53 635.798   8
  -6  -9  12 312.481 307.600   8
  -6  -9  11 8441.34 1576.03   8
  -6  -9  10 4436.87 1119.06   8
  -6  -9   9 1281.65 579.097   8
  -6  -9   8 310.417 258.029   8
  -6  -9   7 14018.2 2029.09   8
  -6  -9   6 2906.10 893.694   8
  -6  -9   5 126.230 226.642   8
  -6  -9   4 1822.67 763.303   8
  -6  -9   3 1272.11 664.085   8
  -6  -9   3 564.647 445.638   5
  -6  -9   2 14993.6 2048.62   8
  -6  -9   2 14935.7 1970.23   5
  -6  -9   1 13307.9 1914.62   5
  -6  -9   1 9099.03 1622.73   8
  -6  -9   0 16875.6 2184.89   8
  -6  -9   0 15364.9 2112.28   5
  -6  -9  -1 8251.82 1614.83   5
  -6  -9  -1 5793.13 1241.47   8
  -6  -9  -2 1052.47 521.936   8
  -6  -9  -2 2156.88 912.686   5
  -6  -9  -3 147.214 166.401   5
  -6  -9  -3-241.048 382.947   8
  -6  -9  -4 2329.43 872.154   5
  -6  -9  -4 2100.39 727.407   8
   6   9   5 139.601 192.147   6
  -6  -9  -5-252.325 454.787   5
  -6  -9  -5 75.7143 130.285   8
   6   9   6 3448.42 1031.52   6
  -6  -9  -6 2632.67 1110.40   5
  -6  -9  -6 3570.39 998.117   8
   6   9   7 90.8913 307.893   6
  -6  -9  -7-255.234 253.127   5
  -6  -9  -7 390.759 217.634   8
   6   9   8-427.822 363.360   6
  -6  -9  -8 157.563 284.055   5
   6   9   9 139.736 212.551   6
  -6  -9  -9 542.840 509.263   5
   6   9  10 344.676 419.445   6
  -6  -9 -10 758.112 714.422   5
   6   9  11 393.782 456.147   6
  -6  -9 -11 1688.60 1097.93   5
   6   9  12-543.005 459.527   6
   6   9  13 491.639 368.338   6
  -6 -10  20-144.276 247.276   8
  -6 -10  19 976.113 661.898   8
  -6 -10  18-304.811 348.543   8
  -6 -10  17 293.688 367.868   8
  -6 -10  16-55.2852 196.157   8
  -6 -10  15 33.5534 340.546   8
  -6 -10  14 330.400 428.617   8
  -6 -10  13-213.433 478.082   8
  -6 -10  12 4409.48 1163.09   8
  -6 -10  11 1247.67 687.925   8
  -6 -10  10 2642.06 872.530   8
  -6 -10   9 3957.93 1097.24   8
  -6 -10   8-78.1772 324.434   8
  -6 -10   7 2027.45 840.389   8
  -6 -10   6 1481.57 690.828   8
  -6 -10   5 898.006 549.326   8
  -6 -10   4 488.531 552.068   8
  -6 -10   4 18.3139 225.859   5
  -6 -10   3 12011.3 1885.07   8
  -6 -10   3 11656.3 1728.81   5
  -6 -10   2 201.899 149.257   5
  -6 -10   2 920.613 519.282   8
  -6 -10   1 552.181 378.419   5
  -6 -10   1 304.067 349.282   8
  -6 -10   0 4078.23 1136.06   5
  -6 -10   0 3090.94 942.054   8
  -6 -10  -1 2267.88 885.613   5
  -6 -10  -1 2999.42 865.870   8
  -6 -10  -2 378.876 253.909   5
  -6 -10  -2-70.0736 198.272   8
  -6 -10  -3-474.451 414.240   5
  -6 -10  -3-690.598 444.202   8
   6  10   4 1703.24 767.895   6
  -6 -10  -4 412.349 428.183   5
  -6 -10  -4 1160.58 596.678   8
   6  10   5 486.004 478.368   6
  -6 -10  -5 647.125 458.772   5
  -6 -10  -5-344.928 304.340   8
   6  10   6 1494.51 687.856   6
  -6 -10  -6 1152.70 791.937   5
  -6 -10  -6 585.804 364.888   8
   6  10   7 2269.18 838.480   6
  -6 -10  -7 1113.92 603.106   5
   6  10   8 908.005 550.524   6
  -6 -10  -8 51.4379 227.052   5
   6  10   9 93.0132 373.451   6
  -6 -10  -9 115.300 435.457   5
   6  10  10 645.422 493.883   6
  -6 -10 -10-1.46485 448.065   5
   6  10  11 51.7502 194.069   6
  -6 -11  20 18.7014 357.724   8
  -6 -11  19 605.109 544.512   8
  -6 -11  18-550.932 466.051   8
  -6 -11  17 2909.68 1060.87   8
  -6 -11  16 153.274 271.810   8
  -6 -11  15-1653.77 775.152   8
  -6 -11  14 1623.98 792.813   8
  -6 -11  13 1061.14 679.745   8
  -6 -11  12 49.2170 308.079   8
  -6 -11  11 456.367 361.843   8
  -6 -11  10 817.323 513.732   8
  -6 -11   9 999.715 767.434   8
  -6 -11   8 9182.61 1685.45   8
  -6 -11   7 504.578 619.784   8
  -6 -11   6 2291.61 886.547   8
  -6 -11   5-27.6454 165.622   8
  -6 -11   5 879.183 477.658   5
  -6 -11   4 2490.30 863.758   8
  -6 -11   4 2362.67 786.219   5
  -6 -11   3 1312.48 688.123   8
  -6 -11   3 333.959 259.936   5
  -6 -11   2 22.2116 170.772   5
  -6 -11   2 240.541 226.461   8
  -6 -11   1 492.132 457.680   5
  -6 -11   1 61.4334 154.095   8
  -6 -11   0 341.666 336.628   5
  -6 -11   0 907.365 534.809   8
  -6 -11  -1 3815.57 1136.24   5
  -6 -11  -1 4076.50 1070.80   8
  -6 -11  -2-22.5571 172.967   5
  -6 -11  -2 10.9473 200.566   8
   6  11   3 4595.28 1222.76   6
  -6 -11  -3 5174.67 1400.34   5
  -6 -11  -3 4416.18 1103.09   8
   6  11   4 1266.62 708.771   6
  -6 -11  -4 564.383 190.865   5
  -6 -11  -4 897.419 549.366   8
   6  11   5 2555.65 923.842   6
  -6 -11  -5 763.386 500.862   5
  -6 -11  -5 1546.17 641.703   8
   6  11   6-330.349 617.557   6
  -6 -11  -6 196.363 332.091   5
   6  11   7 29.9860 176.979   6
  -6 -11  -7 1115.49 825.989   5
   6  11   8-452.826 419.029   6
  -6 -11  -8 223.332 604.495   5
   6  11   9 146.545 268.590   6
   6  11  10 552.955 468.690   6
  -6 -12  19 283.818 363.798   8
  -6 -12  18-59.0084 197.902   8
  -6 -12  17 661.874 545.806   8
  -6 -12  16 732.601 531.307   8
  -6 -12  15 2191.57 940.680   8
  -6 -12  14 1121.35 687.622   8
  -6 -12  13 791.823 525.040   8
  -6 -12  12 690.016 469.747   8
  -6 -12  11 101.092 395.291   8
  -6 -12  10 264.803 300.990   8
  -6 -12   9 2158.12 910.237   8
  -6 -12   8 1879.21 802.078   8
  -6 -12   7 530.427 451.225   8
  -6 -12   6 1386.02 639.072   8
  -6 -12   5 517.501 372.578   8
  -6 -12   5 212.647 131.296   5
  -6 -12   4-90.0148 204.236   8
  -6 -12   4-88.3288 189.873   5
  -6 -12   3 1059.47 605.438   8
  -6 -12   3 471.916 418.659   5
  -6 -12   2 971.238 493.042   8
  -6 -12   2 349.981 258.179   5
  -6 -12   1 696.757 593.583   5
  -6 -12   1 627.383 442.601   8
  -6 -12   0 461.499 356.596   5
  -6 -12   0 307.461 265.666   8
   6  12   1 43.2388 250.601   6
  -6 -12  -1-311.035 347.465   5
  -6 -12  -1-164.690 286.136   8
   6  12   2 3120.76 967.441   6
  -6 -12  -2 479.974 456.397   5
  -6 -12  -2 3963.28 1094.46   8
   6  12   3-99.3121 212.864   6
  -6 -12  -3-208.294 246.186   8
   6  12   4 3169.20 1026.37   6
  -6 -12  -4 3467.00 1256.43   5
  -6 -12  -4 1627.29 683.047   8
   6  12   5 650.959 480.460   6
  -6 -12  -5 1224.74 833.711   5
   6  12   6 702.713 520.724   6
  -6 -12  -6 1085.86 837.015   5
   6  12   7 535.133 470.138   6
  -6 -12  -7 343.011 564.868   5
   6  12   8 191.153 423.303   6
  -6 -13  17 901.933 701.543   8
  -6 -13  16 536.153 625.138   8
  -6 -13  15 668.882 600.410   8
  -6 -13  14 52.7969 254.236   8
  -6 -13  13 1459.54 796.708   8
  -6 -13  12 922.236 641.587   8
  -6 -13  11-369.897 483.016   8
  -6 -13  10 153.450 360.743   8
  -6 -13   9 144.240 415.879   8
  -6 -13   8 672.538 504.163   8
  -6 -13   7 1806.75 735.078   8
  -6 -13   6 905.993 577.971   8
  -6 -13   5-279.806 528.213   8
  -6 -13   5 1012.52 542.368   5
  -6 -13   4 1035.99 506.056   8
  -6 -13   4 274.934 337.869   5
  -6 -13   3-74.4257 374.618   8
  -6 -13   3 672.572 492.294   5
  -6 -13   2 868.672 463.191   8
  -6 -13   2-57.9239 269.323   5
  -6 -13   1 1695.17 819.602   5
  -6 -13   1 2686.84 927.876   8
   6  13   0 2490.94 899.807   6
  -6 -13   0 1743.46 770.369   5
  -6 -13   0 1328.01 613.171   8
   6  13   1 6461.85 1430.24   6
  -6 -13  -1 3975.37 1237.44   5
  -6 -13  -1 4989.86 1251.75   8
   6  13   2 120.750 425.257   6
  -6 -13  -2 119.769 162.023   5
  -6 -13  -2 692.988 450.400   8
   6  13   3 3316.52 1078.39   6
  -6 -13  -3 1946.44 978.336   5
  -6 -13  -3 2074.10 803.250   8
  -6 -13  -4 918.090 724.198   5
   6  13   4 45.4896 325.163   6
  -6 -13  -5 344.328 424.797   5
   6  13   5 238.716 204.070   6
  -6 -13  -6 283.047 411.830   5
   6  13   6 1260.54 774.032   6
  -6 -14  16 661.147 476.732   8
  -6 -14  15 39.4752 374.101   8
  -6 -14  14 331.803 334.655   8
  -6 -14  13-108.081 317.917   8
  -6 -14  12-441.784 438.294   8
  -6 -14  11 2902.81 1060.77   8
  -6 -14  10 94.7015 258.549   8
  -6 -14   9 257.299 262.396   8
  -6 -14   8-201.673 314.883   8
  -6 -14   7 135.261 257.607   8
  -6 -14   6 442.595 472.213   8
  -6 -14   5 662.464 468.310   8
  -6 -14   4 164.171 265.708   8
  -6 -14   4 403.968 529.640   5
  -6 -14   3-503.196 412.917   8
  -6 -14   3 342.221 442.966   5
   6  14  -2 255.326 236.668   6
  -6 -14   2 703.113 525.881   8
  -6 -14   2 287.106 557.712   5
   6  14  -1 1962.52 849.969   6
  -6 -14   1 625.158 471.518   8
  -6 -14   1 586.399 483.804   5
   6  14   0 3322.67 1040.47   6
  -6 -14   0 1553.06 843.489   5
  -6 -14   0 4810.49 1240.27   8
   6  14   1 1539.39 807.973   6
  -6 -14  -1 517.280 495.254   5
  -6 -14  -1 1422.84 659.024   8
   6  14   2 3303.83 1094.54   6
  -6 -14  -2 2034.63 1051.75   5
  -6 -14  -2 2334.04 897.043   8
   6  14   3 691.586 482.980   6
  -6 -14  -3-734.266 607.532   5
   6  14   4 66.4300 523.328   6
  -6 -14  -4 1047.12 707.303   5
  -6 -15  13 701.486 497.683   8
  -6 -15  12 1001.35 640.561   8
  -6 -15  11-402.584 433.629   8
  -6 -15  10 793.672 549.538   8
  -6 -15   9-533.145 469.553   8
  -6 -15   8-4.28918 130.719   8
  -6 -15   7 2238.49 927.220   8
  -6 -15   6 1562.44 795.890   8
   6  15  -5-259.442 319.065   6
  -6 -15   5-207.035 311.806   8
   6  15  -4-203.350 266.546   6
  -6 -15   4-299.633 351.162   8
   6  15  -3 500.616 339.330   6
  -6 -15   3 541.626 322.136   8
  -6 -15   3 933.154 654.344   5
   6  15  -2-116.420 334.337   6
  -6 -15   2-312.677 359.247   8
   6  15  -1 2090.81 925.055   6
  -6 -15   1 2840.68 1007.92   8
  -6 -15   1 2662.57 1072.13   5
   6  15   0-25.7346 447.833   6
  -6 -15   0 38.5288 200.206   8
  -6 -15   0 1.21296 287.341   5
   6  15   1 1313.73 753.534   6
  -6 -15  -1 970.481 565.543   8
  -6 -15  -1 35.7997 186.849   5
  -6 -15  -2 1776.29 967.250   5
  -6 -15  -3-493.137 517.099   5
  -6 -16  11-200.427 355.530   8
  -6 -16  10 169.833 451.037   8
  -6 -16   9-178.277 572.375   8
   6  16  -8 1173.47 687.965   6
  -6 -16   8 1254.19 738.203   8
   6  16  -7 166.832 133.491   6
  -6 -16   7 15.5380 169.353   8
   6  16  -6 85.4279 376.557   6
  -6 -16   6 219.542 291.431   8
   6  16  -5 71.2341 211.148   6
  -6 -16   5 557.364 564.299   8
   6  16  -4 1761.55 811.385   6
  -6 -16   4 974.502 597.156   8
   6  16  -3 671.735 434.767   6
  -6 -16   3 808.789 540.440   8
   6  16  -2 1811.04 858.218   6
  -6 -16   2 1680.18 740.304   8
  -6 -16   2 726.012 659.256   5
   6  16  -1-31.1712 176.640   6
  -6 -16   1 213.095 288.507   8
  -6 -16   1 1.23258 163.546   5
  -6 -16   0 853.077 605.371   8
  -6 -16   0-1249.56 776.986   5
  -6 -16  -1-1.36642 177.253   5
   6  17 -10-438.460 393.250   6
   6  17  -9 1176.30 700.510   6
   6  17  -8-339.764 363.307   6
   6  17  -7-177.495 282.725   6
  -6 -17   7-277.376 370.199   8
   6  17  -6 555.492 534.717   6
  -6 -17   6 1268.41 865.573   8
   6  17  -5 732.394 533.799   6
  -6 -17   5 567.268 350.847   8
   6  17  -4 659.906 562.488   6
  -6 -17   4 1129.37 799.623   8
  -6 -17   3 259.135 386.420   8
  -6 -17   2 373.761 439.236   8
  -6 -17   1-1.04622 402.181   8
   6  18  -9 1275.65 677.367   6
   6  18  -8 716.146 637.357   6
  -7  18  -1 162.944 337.925   6
  -7  18  -2 774.414 762.810   6
  -7  18  -3-2.69802 390.486   6
  -7  18  -5-944.333 657.689   2
  -7  18  -6 905.346 783.893   2
  -7  18  -7 1522.85 851.538   2
  -7  18  -8 87.6463 387.511   2
  -7  17   1-264.252 429.202   6
  -7  17   0 2465.27 1066.15   6
  -7  17  -1-545.607 549.186   6
  -7  17  -2 154.383 261.184   6
  -7  17  -3 232.000 264.200   6
  -7  17  -4 524.172 450.925   2
  -7  17  -5 288.904 368.480   2
  -7  17  -6 595.753 612.984   2
  -7  17  -7 1468.76 754.239   2
  -7  17  -8-669.011 573.392   2
  -7  17  -9-212.870 351.382   2
  -7  17 -10 222.799 598.659   2
  -7  16   2 1189.39 907.786   6
  -7  16   1 1326.84 836.225   6
  -7  16   0 604.414 593.019   6
  -7  16  -1 307.071 459.564   6
  -7  16  -2-27.1159 200.280   6
  -7  16  -3 734.116 498.035   6
  -7  16  -3 584.165 301.441   2
  -7  16  -4 409.770 457.909   6
  -7  16  -4 255.729 340.396   2
  -7  16  -5 635.307 561.814   2
  -7  16  -6-165.263 400.417   2
  -7  16  -7-1.19058 142.046   2
  -7  16  -8-677.320 562.389   2
  -7  16  -9 657.683 624.526   2
  -7  16 -10 826.152 821.171   2
  -7  16 -11 536.620 497.478   2
  -7  15   4-115.742 339.013   6
  -7  15   3 656.462 655.294   6
  -7  15   2 738.543 603.712   6
  -7  15   1 499.681 283.876   6
  -7  15   0-21.3724 388.978   6
  -7  15  -1 1133.25 612.862   6
  -7  15  -2 1463.96 837.968   6
  -7  15  -2 1340.87 703.771   2
  -7  15  -3 1350.00 864.851   6
  -7  15  -3 747.464 457.180   2
  -7  15  -4 3349.11 1110.41   6
  -7  15  -4 2722.06 1045.66   2
  -7  15  -5 109.846 241.012   6
  -7  15  -5-29.8869 392.699   2
  -7  15  -6 125.532 383.787   2
  -7  15  -7 29.5076 353.979   2
  -7  15  -8-983.913 653.129   2
  -7  15  -9 93.7263 356.224   2
  -7  15 -10 2416.46 1026.13   2
  -7  15 -11-361.086 443.865   2
  -7  15 -12 325.490 266.771   2
  -7  15 -13-152.399 334.873   2
  -7  14   6 1355.73 832.731   6
  -7  14   5-620.673 604.628   6
  -7  14   4 333.885 422.705   6
  -7  14   3-305.192 443.802   6
  -7  14   2 232.954 417.106   6
  -7  14   1 3073.10 1117.39   6
  -7  14   0 1445.98 825.533   6
  -7  14  -1 1175.25 740.931   6
  -7  14  -1 984.290 498.145   2
  -7  14  -2 751.221 581.199   6
  -7  14  -2-290.774 333.891   2
  -7  14  -3 4019.63 1182.50   6
  -7  14  -3 4004.97 1167.28   2
  -7  14  -4-3.95869 326.385   6
  -7  14  -4 141.814 264.451   2
  -7  14  -5 346.782 457.276   6
  -7  14  -5 108.816 284.805   2
  -7  14  -6-453.336 394.499   6
  -7  14  -6-149.038 284.512   2
  -7  14  -7 674.739 684.838   2
  -7  14  -8-623.728 521.099   2
  -7  14  -9-723.080 566.965   2
  -7  14 -10 398.717 523.480   2
  -7  14 -11-151.029 347.509   2
  -7  14 -12-146.153 435.299   2
  -7  14 -13 691.383 520.374   2
  -7  14 -14-1094.92 757.746   2
  -7  13   7 563.400 793.653   6
  -7  13   6 1161.32 748.687   6
  -7  13   5 523.882 480.555   6
  -7  13   4 835.369 404.296   6
  -7  13   3 1501.79 856.837   6
  -7  13   2 1117.93 745.065   6
  -7  13   1 989.138 572.868   6
  -7  13   0 194.842 211.904   6
  -7  13   0-93.5153 273.293   2
   7 -13   1 1739.21 773.972   4
  -7  13  -1 1368.25 766.079   6
  -7  13  -1 296.645 313.606   2
   7 -13   2 599.659 398.047   4
  -7  13  -2 1084.54 704.795   6
  -7  13  -2-219.950 484.245   2
  -7  13  -3 802.630 502.165   6
  -7  13  -3-55.5577 355.873   2
  -7  13  -4-280.306 401.408   6
  -7  13  -4 226.517 228.668   2
  -7  13  -5 688.616 559.440   6
  -7  13  -5 929.415 443.344   2
  -7  13  -6 2215.47 904.776   2
  -7  13  -7-631.594 510.233   2
  -7  13  -8 241.363 278.339   2
  -7  13  -9-40.2309 164.476   2
  -7  13 -10-748.711 574.611   2
  -7  13 -11-503.661 488.691   2
  -7  13 -12-155.849 309.220   2
  -7  13 -13 1773.46 861.866   2
  -7  13 -14-153.747 474.144   2
  -7  13 -15-182.911 356.239   2
  -7  12   9 68.1324 262.544   6
  -7  12   8-367.331 484.600   6
  -7  12   7 1024.02 741.103   6
  -7  12   6-465.778 512.007   6
  -7  12   5 203.171 353.094   6
  -7  12   4-225.040 407.683   6
  -7  12   3 2063.34 938.671   6
  -7  12   2 1342.79 883.419   6
  -7  12   1 544.874 453.094   6
  -7  12   1 1161.28 621.468   2
   7 -12   0 81.9767 202.910   4
  -7  12   0 357.065 290.008   6
  -7  12   0-47.2310 196.110   2
   7 -12   1 235.605 290.164   4
  -7  12  -1 187.723 347.801   6
  -7  12  -1-644.769 444.647   2
   7 -12   2-7.42617 275.572   4
  -7  12  -2-321.187 501.258   6
  -7  12  -2-116.698 303.390   2
   7 -12   3 605.103 421.744   4
  -7  12  -3-72.9294 316.105   6
  -7  12  -3 938.551 576.831   2
  -7  12  -4 1813.59 761.743   6
  -7  12  -4 2259.44 833.491   2
  -7  12  -5 2817.73 999.319   2
  -7  12  -6 1829.63 907.656   2
  -7  12  -7-33.9390 157.443   2
  -7  12  -8 2724.23 982.771   2
  -7  12  -9 346.340 226.916   2
  -7  12 -10 2106.81 979.677   2
  -7  12 -11-340.753 647.449   2
  -7  12 -12 271.942 280.454   2
  -7  12 -13 124.403 532.430   2
  -7  12 -14 335.299 481.102   2
  -7  12 -15 1405.43 833.345   2
  -7  12 -16 908.188 644.298   2
  -7  11  10-81.3055 276.079   6
  -7  11   9 221.450 357.256   6
  -7  11   8 154.171 338.062   6
  -7  11   7 531.268 630.333   6
  -7  11   6 221.310 339.417   6
  -7  11   5-1183.79 738.207   6
  -7  11   4 5101.08 1470.52   6
  -7  11   3-264.679 194.702   6
  -7  11   2 4233.88 1277.10   6
  -7  11   2 2977.71 848.416   2
   7 -11  -1-583.076 445.300   4
  -7  11   1 65.2376 300.828   6
  -7  11   1 47.0419 337.521   2
   7 -11   0 401.845 270.691   4
  -7  11   0-348.922 581.850   6
  -7  11   0 220.956 367.442   2
   7 -11   1 146.124 178.846   4
  -7  11  -1-104.997 446.563   6
  -7  11  -1 702.988 396.649   2
   7 -11   2 5244.52 1156.63   4
  -7  11  -2 4253.84 1174.42   6
  -7  11  -2 3806.86 1075.24   2
   7 -11   3 896.649 535.171   4
  -7  11  -3 541.303 507.240   6
  -7  11  -3 465.751 403.071   2
   7 -11   4 365.541 286.126   4
  -7  11  -4 544.835 560.000   2
  -7  11  -5 257.032 167.510   2
  -7  11  -6 347.043 177.613   2
  -7  11  -7 10724.0 1995.20   2
  -7  11  -8 3496.61 1157.09   2
  -7  11  -9 916.147 756.801   2
  -7  11 -10 711.423 659.451   2
  -7  11 -11-556.624 435.392   2
  -7  11 -12 1563.27 877.522   2
  -7  11 -13-397.614 735.976   2
  -7  11 -14 1178.40 695.311   2
  -7  11 -15 487.660 509.383   2
  -7  11 -16-937.266 701.942   2
  -7  11 -17-585.439 570.390   2
  -7  10  11-1035.47 772.599   6
  -7  10  10 1059.07 645.860   6
  -7  10   9 715.057 505.243   6
  -7  10   8 832.377 634.740   6
  -7  10   7 1912.90 832.075   6
  -7  10   6 699.558 728.856   6
  -7  10   5 478.913 458.859   6
  -7  10   4 244.999 360.812   6
  -7  10   3-470.735 336.823   2
  -7  10   3-212.368 444.583   6
   7 -10  -2 3347.97 1078.66   4
  -7  10   2 3135.17 1103.28   6
  -7  10   2 3383.02 942.722   2
   7 -10  -1 782.819 484.979   4
  -7  10   1 1256.79 635.460   6
  -7  10   1 1012.08 492.246   2
   7 -10   0 1439.02 679.709   4
  -7  10   0 2187.46 910.282   6
  -7  10   0 1079.48 540.993   2
   7 -10   1 5942.30 1244.72   4
  -7  10  -1 6572.83 1465.33   6
  -7  10  -1 5487.03 1219.09   2
  -7  10  -2 13321.4 2034.23   6
  -7  10  -2 10684.3 1729.21   2
   7 -10   2 11784.7 1690.98   4
   7 -10   3 2152.00 671.741   4
  -7  10  -3 3588.68 1026.96   6
  -7  10  -3 2865.62 951.090   2
  -7  10  -4 2173.75 830.083   2
   7 -10   4 3217.23 806.428   4
  -7  10  -5 4676.27 1217.09   2
  -7  10  -6 5836.21 1393.41   2
  -7  10  -7 3095.50 1009.57   2
  -7  10  -8 242.998 409.755   2
  -7  10  -9 2732.64 1111.08   2
  -7  10 -10 134.999 196.878   2
  -7  10 -11 429.846 451.659   2
  -7  10 -12 1834.49 936.341   2
  -7  10 -13 985.279 729.998   2
  -7  10 -14 428.784 507.911   2
  -7  10 -15 185.804 339.598   2
  -7  10 -16 707.280 454.576   2
  -7  10 -17 1417.84 871.858   2
  -7  10 -18 1739.81 882.467   2
   7  -9 -14 165.028 445.719   9
  -7   9  13 1447.97 985.767   6
   7  -9 -13 813.467 666.400   9
  -7   9  12 325.174 476.888   6
   7  -9 -12 48.2059 190.969   9
  -7   9  11 2536.54 1273.09   6
   7  -9 -11 480.714 426.136   9
  -7   9  10 216.929 269.295   6
   7  -9 -10 278.674 393.687   9
  -7   9   9 1419.33 740.992   6
   7  -9  -9 2239.08 787.714   9
  -7   9   8 6911.58 1724.16   6
   7  -9  -8 6311.95 1278.97   9
  -7   9   7 204.088 383.991   6
  -7   9   7 682.513 459.409   3
   7  -9  -7 158.194 262.398   9
  -7   9   6-31.3699 241.940   3
   7  -9  -6-192.487 216.588   9
  -7   9   5 2769.24 963.673   6
   7  -9  -5 2722.69 748.356   9
  -7   9   4 1333.30 567.959   2
   7  -9  -4 969.702 574.451   4
  -7   9   4 794.508 651.359   6
  -7   9   3 852.827 412.025   2
   7  -9  -3 1160.27 660.231   4
  -7   9   3 335.137 479.929   6
   7  -9  -2 445.830 528.512   4
  -7   9   2-200.685 337.670   6
  -7   9   2-260.341 251.954   2
   7  -9  -1 1195.36 675.400   4
  -7   9   1 986.102 608.348   6
  -7   9   1 335.648 485.373   2
   7  -9   0 62.8038 154.293   4
  -7   9   0 640.981 385.129   6
  -7   9   0-42.2345 263.995   2
   7  -9   1 1676.69 684.711   4
  -7   9  -1 2112.62 833.086   6
  -7   9  -1 334.798 427.082   2
   7  -9   2 293.398 206.691   4
  -7   9  -2 152.403 251.118   2
  -7   9  -3 11737.2 1837.83   2
   7  -9   3 11456.4 1554.68   4
  -7   9  -4 4377.88 1103.33   2
   7  -9   4 4904.99 945.159   4
  -7   9  -5 1092.96 595.741   2
   7  -9   5 705.101 397.012   4
  -7   9  -6 1754.19 806.173   2
  -7   9  -7-27.9683 246.269   2
  -7   9  -8 443.914 329.473   2
  -7   9  -9 295.842 247.752   2
  -7   9 -10 1808.31 910.174   2
  -7   9 -11 1999.08 872.945   2
  -7   9 -12 766.827 511.378   2
  -7   9 -13 674.605 566.589   2
  -7   9 -14 10500.5 2227.64   2
  -7   9 -15 28.8057 355.024   2
  -7   9 -16-477.472 503.898   2
  -7   9 -17 1475.11 982.055   2
  -7   9 -18 197.142 354.154   2
   7  -8 -15 983.388 660.196   9
  -7   8  14-771.740 681.364   6
   7  -8 -14-735.298 553.122   9
   7  -8 -13 905.039 775.880   4
  -7   8  13 612.076 721.205   6
   7  -8 -13 149.609 151.074   9
  -7   8  12 205.424 323.027   6
   7  -8 -12 242.225 209.068   9
  -7   8  11 1216.31 730.337   6
   7  -8 -11 133.699 321.123   9
  -7   8  10 2543.46 1089.24   6
   7  -8 -10 1796.36 739.662   9
  -7   8   9 3327.87 1243.12   6
   7  -8  -9 3979.99 1042.36   9
   7  -8  -8 1304.11 778.075   4
  -7   8   8 1530.95 802.732   6
   7  -8  -8 1022.59 463.496   9
   7  -8  -7 323.999 474.610   4
  -7   8   7 391.910 487.924   6
  -7   8   7-213.141 333.942   3
   7  -8  -7-350.418 293.525   9
   7  -8  -6 594.997 469.146   4
  -7   8   6 501.682 319.488   6
  -7   8   6 2068.71 777.913   3
   7  -8  -6 1035.73 508.017   9
   7  -8  -5-271.811 427.836   4
  -7   8   5-29.0758 373.413   6
  -7   8   5-55.2156 288.580   3
   7  -8  -5 356.224 285.445   9
  -7   8   5 85.0812 182.761   2
  -7   8   4 5709.47 1111.20   2
   7  -8  -4 6224.73 1421.40   4
  -7   8   4 6464.86 1487.27   6
  -7   8   3 183.705 219.228   2
   7  -8  -3 737.336 498.699   4
  -7   8   3 524.697 577.729   6
   7  -8  -2 343.429 296.387   4
  -7   8   2 366.597 250.264   2
  -7   8   2 469.160 370.522   6
   7  -8  -2 680.712 266.438   9
   7  -8  -1 71.7466 140.641   4
  -7   8   1-251.765 307.244   6
  -7   8   1 363.433 381.016   2
   7  -8  -1 83.9413 110.028   9
   7  -8   0 417.897 295.996   4
  -7   8   0 557.537 444.875   6
  -7   8   0 668.913 240.662   2
   7  -8   0 221.800 124.403   9
   7  -8   1 149.059 118.563   4
  -7   8  -1 768.373 399.987   2
   7  -8   2 4443.15 982.828   4
  -7   8  -2 4283.30 1080.62   2
  -7   8  -3 81.8753 216.137   2
   7  -8   3-746.475 390.080   4
  -7   8  -4 8708.50 1595.35   2
   7  -8   4 8049.65 1221.76   4
  -7   8  -5 460.640 440.404   2
  -7   8  -6 3279.55 1063.22   2
  -7   8  -7 1212.41 715.698   2
  -7   8  -8-224.345 363.040   2
  -7   8  -9-90.5507 337.750   2
  -7   8 -10-194.495 530.084   2
  -7   8 -11 483.548 357.612   2
  -7   8 -12-107.589 239.540   2
  -7   8 -13 195.167 326.986   2
  -7   8 -14-63.4271 297.965   2
  -7   8 -15 938.232 624.056   2
  -7   8 -16 3834.95 1342.49   2
  -7   8 -17 100.498 315.125   2
  -7   8 -17 506.382 523.102   3
  -7   8 -18 276.564 563.383   2
  -7   8 -18 303.046 523.180   3
  -7   8 -19 111.814 421.940   2
  -7   7  15 373.099 370.566   6
   7  -7 -15 290.592 590.255   9
   7  -7 -14 317.072 295.738   4
  -7   7  14 1022.97 631.433   6
   7  -7 -14 400.516 346.538   9
   7  -7 -13 452.863 523.074   4
  -7   7  13-713.258 628.543   6
   7  -7 -13-67.7306 205.903   9
   7  -7 -12-1021.12 737.780   4
  -7   7  12-668.452 596.754   6
   7  -7 -12-426.494 399.699   9
   7  -7 -11 1284.85 814.395   4
  -7   7  11 598.512 491.667   6
   7  -7 -11 76.4327 211.264   9
   7  -7 -10 1826.13 663.147   4
  -7   7  10 1709.00 865.861   6
   7  -7 -10 2068.94 786.122   9
   7  -7  -9 989.965 703.889   4
  -7   7   9 962.080 716.563   6
   7  -7  -9 299.646 246.067   9
   7  -7  -8 393.234 242.295   4
  -7   7   8 1124.58 705.646   6
  -7   7   8 1783.49 669.119   3
   7  -7  -7 1620.67 857.024   4
  -7   7   7 2015.68 878.832   6
  -7   7   7 542.768 358.792   3
   7  -7  -6 241.933 294.536   4
  -7   7   6 84.7565 221.351   6
  -7   7   6 131.688 323.586   3
  -7   7   6-427.185 283.993   2
   7  -7  -5 12131.5 2041.86   4
  -7   7   5 11112.2 2026.95   6
  -7   7   5 14520.2 2025.51   3
  -7   7   5 13305.1 1601.27   2
   7  -7  -4 523.949 499.063   4
  -7   7   4-376.666 485.522   6
  -7   7   4-163.926 273.122   3
  -7   7   4 358.278 274.533   2
  -7   7   3-66.3241 145.591   2
   7  -7  -3 333.975 341.722   4
  -7   7   3 81.8338 303.860   6
   7  -7  -2-120.715 256.782   4
  -7   7   2-219.266 356.673   2
  -7   7   2 8.70652 293.215   6
   7  -7  -1 76.5115 214.566   4
  -7   7   1-283.625 452.262   6
  -7   7   1 454.912 334.965   2
   7  -7   0 1033.55 569.730   4
  -7   7   0 102.179 260.347   2
   7  -7   1 3783.82 961.407   4
  -7   7  -1 3739.29 1027.12   2
   7  -7   1 3060.38 374.650   9
  -7   7  -2 3963.84 1006.30   2
   7  -7   2 5248.36 1088.72   4
  -7   7  -3 4422.04 1075.94   2
   7  -7   3 4777.82 954.105   4
  -7   7  -4 2916.47 950.801   2
  -7   7  -5 1960.28 786.979   2
  -7   7  -6 5235.91 1196.75   2
  -7   7  -7 4794.57 1217.05   2
  -7   7  -8-15.2597 232.522   2
  -7   7  -9-261.717 444.331   2
  -7   7 -10 542.235 433.464   2
  -7   7 -11 2.02805 347.184   2
  -7   7 -12 642.763 543.988   2
  -7   7 -13 1404.26 842.007   2
  -7   7 -14 840.223 760.722   2
  -7   7 -15 219.741 399.548   2
  -7   7 -15 196.734 300.373   3
  -7   7 -16 1146.77 754.727   2
  -7   7 -16 1492.47 741.981   3
  -7   7 -17 1349.83 893.355   2
  -7   7 -17 1379.96 1004.43   3
  -7   7 -18-90.1462 262.848   2
  -7   7 -19 406.154 505.212   2
  -7   6  16 41.3578 235.714   6
   7  -6 -16 23.1798 181.260   9
   7  -6 -15 2521.25 1267.36   4
  -7   6  15 701.738 635.382   6
   7  -6 -15 2214.50 1020.41   9
  -7   6  14-699.101 619.011   6
   7  -6 -14-110.717 242.598   9
   7  -6 -13 834.900 678.153   4
  -7   6  13 696.291 459.876   6
   7  -6 -13 1251.74 707.585   9
   7  -6 -12 4869.10 1497.17   4
  -7   6  12 3811.70 1346.76   6
   7  -6 -11 3544.18 1298.94   4
  -7   6  11 4642.73 1448.20   6
   7  -6 -10 978.291 693.981   4
  -7   6  10 595.374 634.662   6
   7  -6  -9 621.574 529.874   4
  -7   6   9 264.062 411.344   6
   7  -6  -8-106.175 373.124   4
  -7   6   8-157.804 326.045   6
  -7   6   8 129.864 133.809   3
  -7   6   8 133.866 132.590   8
   7  -6  -7 822.197 415.347   4
  -7   6   7 263.213 446.215   6
  -7   6   7 223.627 312.756   3
  -7   6   7 83.6408 196.355   2
   7  -6  -6 885.226 583.953   4
  -7   6   6 1441.87 761.333   6
  -7   6   6 1129.59 558.664   3
  -7   6   6 507.460 259.604   2
   7  -6  -5 2519.16 907.916   4
  -7   6   5 2820.49 1033.54   6
  -7   6   5 4057.21 1056.32   3
  -7   6   5 3853.93 880.218   2
   7  -6  -4-389.000 466.008   4
  -7   6   4-25.4837 430.742   6
  -7   6   4 852.546 494.496   3
  -7   6   4 236.521 102.348   2
   7  -6  -3-177.702 388.474   4
  -7   6   3 86.1574 311.804   6
  -7   6   3-25.0697 317.204   3
  -7   6   3 126.972 246.397   2
  -7   6   2 1903.70 729.231   2
   7  -6  -2 1191.80 589.407   4
  -7   6   2 1979.65 770.639   3
   7  -6  -1 2680.25 840.671   4
  -7   6   1 2991.71 819.066   2
   7  -6   0 3534.40 923.247   4
  -7   6   0 3716.67 928.497   2
  -7   6  -1 1619.36 614.101   2
   7  -6   1 2083.82 710.921   4
  -7   6  -2 192.624 294.210   2
   7  -6   2 601.162 326.584   4
  -7   6  -3 752.393 468.698   2
   7  -6   3 843.414 168.436   9
  -7   6  -4 247.881 482.253   2
  -7   6  -5 745.072 492.740   2
  -7   6  -6 2674.73 846.463   2
  -7   6  -7 742.653 553.115   2
  -7   6  -8 1459.89 672.730   2
  -7   6  -9 847.652 534.093   2
  -7   6 -10-316.382 310.010   2
  -7   6 -11 942.906 661.786   2
  -7   6 -12 706.615 682.889   2
  -7   6 -13 1569.61 890.786   2
  -7   6 -13 709.428 480.141   3
  -7   6 -14 379.831 503.495   2
  -7   6 -14-102.079 468.102   3
  -7   6 -15 1272.55 758.756   2
  -7   6 -15 3071.58 1103.44   3
  -7   6 -16 924.607 631.739   2
  -7   6 -16 697.488 532.344   3
  -7   6 -17 433.598 495.476   2
  -7   6 -17 957.428 649.346   3
  -7   6 -18 1136.78 791.054   2
  -7   6 -19 880.801 781.896   2
  -7   6 -20 800.441 736.127   2
  -7   5  17 571.501 580.358   6
  -7   5  16 312.481 448.141   6
   7  -5 -16-533.566 586.966   4
   7  -5 -16 334.761 375.804   9
   7  -5 -15-7.63050 233.160   4
  -7   5  15-452.375 515.173   6
   7  -5 -15-451.157 454.771   9
   7  -5 -14 449.877 307.622   4
  -7   5  14-820.328 657.064   6
   7  -5 -13 89.9436 356.644   4
  -7   5  13-456.081 631.126   6
   7  -5 -12 438.903 434.934   4
  -7   5  12 645.174 564.853   6
   7  -5 -11-351.098 523.750   4
  -7   5  11 2102.75 1012.75   6
   7  -5 -10 386.208 484.258   4
  -7   5  10 1505.07 794.142   6
   7  -5  -9 4661.76 1325.44   4
  -7   5   9 2553.95 1030.97   6
  -7   5   9 4079.50 879.711   8
   7  -5  -8 432.113 461.726   4
  -7   5   8 805.914 759.491   6
  -7   5   8 496.735 377.800   3
  -7   5   8-60.4053 218.691   8
   7  -5  -7 373.719 406.132   4
  -7   5   7 96.6388 413.655   6
  -7   5   7 456.699 364.434   3
   7  -5  -6 589.732 508.651   4
  -7   5   6 747.651 458.984   6
  -7   5   6 871.670 501.830   3
  -7   5   6 1136.54 494.684   2
   7  -5  -5 579.944 418.700   4
  -7   5   5 1586.85 760.022   6
  -7   5   5 452.598 361.681   3
  -7   5   5 443.070 287.693   2
   7  -5  -4 2159.32 791.468   4
  -7   5   4 1746.97 687.514   3
  -7   5   4 2249.38 674.487   2
   7  -5  -3 2034.72 757.396   4
  -7   5   3 2607.53 853.322   3
  -7   5   3 2201.74 673.855   2
  -7   5   2 4332.56 964.057   2
   7  -5  -2 3753.28 997.014   4
  -7   5   2 5330.28 1194.09   3
   7  -5  -1 230.593 386.566   4
  -7   5   1-284.031 308.426   2
  -7   5   1 255.037 282.720   3
  -7   5   0-428.577 386.821   2
  -7   5   0-88.3725 242.442   3
   7  -5   0-195.434 364.856   4
  -7   5  -1 435.250 291.287   2
  -7   5  -1 493.473 380.130   3
   7  -5   1 410.580 381.392   4
  -7   5  -2 2503.96 825.221   2
  -7   5  -2 2161.79 811.367   3
   7  -5   2 3625.68 869.183   4
  -7   5  -3 780.603 389.464   2
  -7   5  -4 1399.47 620.028   2
   7  -5   4 1000.43 242.343   9
  -7   5  -5 275.895 386.192   2
   7  -5   5 23.7759 65.8918   9
  -7   5  -6 1589.34 642.649   2
  -7   5  -7-76.7888 352.163   2
  -7   5  -8 638.643 522.314   2
  -7   5  -9 3307.21 1126.17   2
  -7   5  -9 3417.78 1115.59   3
  -7   5 -10 100.848 248.193   2
  -7   5 -10-50.5459 180.772   3
  -7   5 -11 476.208 468.087   2
  -7   5 -11 585.791 514.039   3
  -7   5 -12 1150.77 646.786   2
  -7   5 -12 232.449 347.338   3
  -7   5 -13 2130.59 941.963   2
  -7   5 -13 1952.59 1000.67   3
  -7   5 -14 434.929 468.873   2
  -7   5 -14-145.995 305.316   3
  -7   5 -15-344.745 409.681   2
  -7   5 -15-114.288 469.984   3
  -7   5 -16 2055.14 945.491   2
  -7   5 -16 1245.89 825.023   3
  -7   5 -17 2932.06 1198.81   2
  -7   5 -18 314.329 470.318   2
  -7   5 -19 552.897 364.660   2
   7  -4 -17 1099.49 609.685   9
   7  -4 -16-66.8122 283.714   4
   7  -4 -15 99.8051 308.659   4
  -7   4  14 1031.34 713.624   6
   7  -4 -14 1109.03 866.609   4
  -7   4  13 1323.56 889.043   6
   7  -4 -13 449.936 501.151   4
  -7   4  12 828.791 495.869   6
   7  -4 -12 949.056 649.657   4
  -7   4  11 1925.91 1040.56   6
   7  -4 -11 3264.44 1202.12   4
   7  -4 -10 1319.24 763.474   4
  -7   4  10 1721.60 938.526   6
  -7   4  10 1548.36 541.104   8
   7  -4  -9 2020.30 912.940   4
  -7   4   9 1081.76 665.698   6
  -7   4   9 1080.37 459.609   8
   7  -4  -8 310.249 220.688   4
  -7   4   8-90.7975 149.353   8
   7  -4  -7 4579.26 1217.93   4
  -7   4   7 4786.71 1077.23   3
  -7   4   7 5162.50 1026.73   8
   7  -4  -6 299.349 260.007   4
  -7   4   6-167.760 167.824   3
  -7   4   6-4.17051 184.273   2
   7  -4  -5 831.294 567.985   4
  -7   4   5 8.87310 220.569   3
  -7   4   5 959.094 430.103   2
   7  -4  -4 1779.33 678.423   4
  -7   4   4 2038.70 657.916   2
   7  -4  -3 74.2676 231.845   4
  -7   4   3 611.124 494.591   3
  -7   4   3 107.408 221.337   2
  -7   4   2 211.633 308.307   3
  -7   4   2-260.028 381.074   2
   7  -4  -2 114.634 241.907   4
  -7   4   1 91.1959 136.898   3
   7  -4  -1 262.842 250.197   4
  -7   4   1 324.425 398.463   2
  -7   4   0 2142.14 732.748   2
  -7   4   0 2240.67 797.972   3
   7  -4   0 3195.37 859.162   4
  -7   4  -1-127.258 393.176   2
  -7   4  -1-93.0443 227.479   3
   7  -4   1 51.0353 217.682   4
  -7   4  -2-705.346 437.947   2
  -7   4  -2 111.881 211.915   3
  -7   4  -3 2892.52 897.239   2
  -7   4  -3 2740.56 910.658   3
  -7   4  -4 253.877 423.409   2
  -7   4  -4-258.935 169.605   3
  -7   4  -5 27786.3 2931.30   3
   7  -4   5 25958.5 1503.64   9
  -7   4  -5 29110.8 2882.07   2
  -7   4  -6 177.167 200.127   2
  -7   4  -6 336.852 330.943   3
   7  -4   6 158.499 128.173   9
  -7   4  -7 14553.6 2180.35   3
  -7   4  -7 16912.9 2271.21   2
  -7   4  -8 2197.39 814.082   2
  -7   4  -8 2834.82 953.521   3
  -7   4  -9 1278.21 698.863   2
  -7   4  -9 160.142 392.898   3
  -7   4 -10 2490.59 1036.70   2
  -7   4 -10 5041.05 1332.06   3
  -7   4 -11 173.495 238.340   2
  -7   4 -11-63.7571 310.944   3
  -7   4 -12 990.421 612.054   2
  -7   4 -12 1416.42 738.012   3
  -7   4 -13 294.644 606.144   2
  -7   4 -13-92.3661 335.656   3
  -7   4 -14 3844.70 1175.61   2
  -7   4 -14 2603.62 1067.90   3
  -7   4 -15-549.685 504.415   2
  -7   4 -15-425.725 327.061   3
  -7   4 -16 995.550 706.571   2
  -7   4 -16 866.052 599.881   3
  -7   4 -17 81.9785 242.551   7
  -7   4 -17 317.764 407.132   2
  -7   4 -18 768.725 747.451   2
  -7   4 -19 1027.29 778.055   2
   7  -3 -17-619.241 622.005   4
   7  -3 -16 67.5088 550.143   4
   7  -3 -15 487.927 555.609   4
   7  -3 -14 493.671 616.976   4
   7  -3 -13-1716.96 897.395   4
   7  -3 -12 317.823 419.730   4
   7  -3 -11 670.590 617.807   4
   7  -3 -10 3886.61 1271.47   4
  -7   3  10 3539.84 822.817   8
   7  -3  -9-154.687 450.767   4
  -7   3   9 2.74748 121.639   8
   7  -3  -8 2746.35 988.094   4
  -7   3   8 3374.69 809.320   8
   7  -3  -7 1978.04 778.354   4
  -7   3   7 1160.43 529.308   8
   7  -3  -6 157.959 214.114   4
  -7   3   6 615.835 458.293   3
  -7   3   6-237.050 267.102   2
   7  -3  -5 1331.77 641.989   4
  -7   3   5 2570.90 811.663   3
  -7   3   5 1544.01 560.492   2
   7  -3  -4 3366.45 973.298   4
  -7   3   4 3006.89 863.210   3
  -7   3   4 2810.00 728.075   2
  -7   3   3 346.229 240.938   3
  -7   3   3 784.213 446.330   2
   7  -3  -3 318.368 232.529   4
  -7   3   2 3313.90 930.301   3
  -7   3   2 2388.02 789.562   2
   7  -3  -2 3060.19 920.414   4
  -7   3   1 89.6421 257.871   3
   7  -3  -1-325.792 289.136   4
  -7   3   1-48.5941 188.462   2
  -7   3   0 16495.5 2105.55   3
  -7   3   0 17232.7 2025.41   2
   7  -3   0 15487.3 1869.44   4
  -7   3  -1 1739.10 734.275   2
  -7   3  -1 1659.08 644.874   3
  -7   3  -2 1199.07 631.580   2
  -7   3  -2 556.001 462.418   3
  -7   3  -3 690.087 390.526   2
  -7   3  -3 74.1788 309.571   3
  -7   3  -4 40861.2 3474.27   3
  -7   3  -4 47217.4 3619.45   2
  -7   3  -5 3770.04 1033.69   2
  -7   3  -5 3964.35 1109.53   3
   7  -3   5 4407.63 692.351   9
  -7   3  -6 5097.48 1287.48   2
  -7   3  -6 4331.04 1176.77   3
  -7   3  -7 1915.94 809.376   2
  -7   3  -7 1556.87 715.293   3
  -7   3  -8 734.966 568.966   2
  -7   3  -8 719.004 549.983   3
  -7   3  -9 2420.16 901.282   2
  -7   3  -9 2173.04 879.881   3
  -7   3 -10 1801.09 710.707   2
  -7   3 -10 2265.27 864.264   3
  -7   3 -11 900.730 492.084   2
  -7   3 -11 282.449 242.080   3
  -7   3 -12-288.493 359.306   2
  -7   3 -12 390.384 297.586   3
  -7   3 -13 32.2423 349.629   2
  -7   3 -13 595.209 372.601   3
  -7   3 -14 328.936 401.303   7
  -7   3 -14 1026.45 713.924   2
  -7   3 -14 814.432 524.806   3
  -7   3 -15 575.155 439.542   7
  -7   3 -15 337.142 163.596   2
  -7   3 -15-11.4441 394.628   3
  -7   3 -16 229.257 499.504   7
  -7   3 -16 1361.47 858.001   2
  -7   3 -17 270.266 350.940   2
  -7   3 -17-701.302 583.363   7
  -7   3 -18 1467.24 920.824   2
   7  -2 -18 278.237 724.566   4
   7  -2 -17 1148.09 724.845   4
   7  -2 -16 386.275 660.226   4
   7  -2 -15 72.8606 249.052   4
   7  -2 -14-114.461 344.663   4
   7  -2 -13 325.983 436.616   4
   7  -2 -12 282.619 333.962   4
   7  -2 -11 2001.28 877.263   4
  -7   2  11 2344.26 671.148   8
   7  -2 -10 2004.12 819.074   4
  -7   2  10 3125.39 811.886   8
   7  -2  -9 4812.80 1321.56   4
  -7   2   9 4223.38 931.716   8
   7  -2  -8 10236.7 1875.95   4
  -7   2   8 10734.2 1519.86   8
   7  -2  -7 1083.64 614.433   4
  -7   2   7 157.204 225.549   8
   7  -2  -6 5804.73 1322.62   4
  -7   2   6 7808.01 1334.81   8
  -7   2   5 2994.66 786.558   2
   7  -2  -5 1386.57 612.247   4
  -7   2   4 781.328 511.076   3
  -7   2   4 353.808 335.398   2
   7  -2  -4 93.0774 201.076   4
  -7   2   3 1296.66 621.007   3
  -7   2   3 1575.66 593.117   2
   7  -2  -3 705.013 449.291   4
  -7   2   2 138.493 190.152   3
  -7   2   2 717.870 458.356   2
   7  -2  -2 611.709 494.990   4
  -7   2   1 315.589 402.587   3
  -7   2   1 689.994 432.243   2
  -7   2   0 1369.37 599.239   3
  -7   2   0 1382.42 580.545   2
  -7   2  -1 2834.04 862.746   3
  -7   2  -1 2476.04 747.117   2
  -7   2  -2 4529.93 1129.69   3
  -7   2  -2 7570.13 1408.17   2
  -7   2  -3 36391.8 3227.73   3
  -7   2  -3 38367.1 3192.22   2
  -7   2  -4 29306.6 2916.73   3
  -7   2  -4 31929.4 2992.25   2
  -7   2  -5 3910.29 1041.15   2
  -7   2  -5 3764.92 1072.97   3
  -7   2  -6 12292.5 1922.84   2
  -7   2  -6 14543.4 2101.86   3
  -7   2  -7 757.219 421.365   2
  -7   2  -7 355.909 344.532   3
  -7   2  -8 12148.1 1981.24   2
  -7   2  -8 13380.3 2086.23   3
  -7   2  -9-285.957 338.699   2
  -7   2  -9 559.406 396.339   3
  -7   2 -10 476.290 247.257   2
  -7   2 -10 13.7236 323.632   3
  -7   2 -11 907.741 531.994   2
  -7   2 -11-44.0543 265.667   3
  -7   2 -12 428.909 533.942   2
  -7   2 -12 675.280 312.403   3
  -7   2 -13 928.602 641.734   2
  -7   2 -13 187.726 266.358   7
  -7   2 -14 244.357 376.457   2
  -7   2 -14-458.027 431.976   7
  -7   2 -14 305.947 457.967   3
  -7   2 -15 23.6566 347.481   2
  -7   2 -15 499.707 407.915   7
  -7   2 -16-279.101 375.098   2
  -7   2 -16-606.295 541.086   7
  -7   2 -17 189.894 311.510   2
  -7   2 -17 1085.51 756.511   7
  -7   2 -18 495.932 495.225   2
   7  -1 -18 2750.96 1313.73   4
   7  -1 -17 112.993 672.259   4
   7  -1 -16 1223.09 933.745   4
   7  -1 -15-545.884 544.203   4
   7  -1 -14-56.8989 217.459   4
   7  -1 -13 141.227 284.112   4
   7  -1 -12 3940.84 1236.61   4
  -7   1  12 4205.36 888.033   8
   7  -1 -11 7586.61 1761.73   4
  -7   1  11 9515.19 1386.67   8
   7  -1 -10 366.425 322.935   4
  -7   1  10 628.223 320.447   8
   7  -1  -9 2491.29 928.244   4
  -7   1   9 2120.91 707.839   8
   7  -1  -8 829.915 595.960   4
  -7   1   8-32.0090 171.858   8
  -7   1   7 6375.37 1196.84   8
   7  -1  -7 4015.90 1116.93   4
  -7   1   6 7837.97 1331.85   8
   7  -1  -6 7553.84 1504.52   4
  -7   1   5 350.376 225.120   8
   7  -1  -5 1033.48 507.917   4
  -7   1   4 3150.51 879.151   2
   7  -1  -4 3661.04 1005.16   4
  -7   1   3 35.0938 157.021   2
   7  -1  -3 390.997 355.053   4
  -7   1   2 2180.15 745.199   3
  -7   1   2 2608.11 834.654   2
  -7   1   1 1697.21 603.027   3
  -7   1   1 3473.66 892.056   2
  -7   1   0 13509.4 1915.71   3
  -7   1   0 9683.35 1604.12   2
  -7   1  -1 4581.86 1125.80   3
  -7   1  -1 4808.81 1114.76   2
  -7   1  -2 23492.5 2585.67   3
  -7   1  -2 24639.7 2511.64   2
  -7   1  -3 19450.8 2358.53   3
  -7   1  -3 19326.2 2314.16   2
  -7   1  -4 188.292 163.507   3
  -7   1  -4 242.442 245.634   2
  -7   1  -5 5037.13 1242.13   3
  -7   1  -5 6096.39 1301.98   2
  -7   1  -6 462.695 439.172   2
  -7   1  -6 399.797 304.186   3
  -7   1  -7 2396.81 764.730   2
  -7   1  -7 1295.11 622.979   3
  -7   1  -8 617.282 579.467   2
  -7   1  -8 493.173 209.245   3
  -7   1  -9 226.554 836.072   2
  -7   1  -9-8.88813 256.172   3
  -7   1 -10 637.828 394.946   2
  -7   1 -10 657.668 470.243   3
  -7   1 -11 618.848 422.200   2
  -7   1 -11 1634.18 781.132   7
  -7   1 -11 2219.75 944.183   3
  -7   1 -12 288.250 309.222   2
  -7   1 -12 950.535 626.215   7
  -7   1 -12 529.101 571.299   3
  -7   1 -13 999.875 756.921   2
  -7   1 -13 3097.81 1079.15   7
  -7   1 -13 3197.27 1068.47   3
  -7   1 -14 223.275 188.515   2
  -7   1 -14 613.138 601.549   7
  -7   1 -15 1355.75 763.902   7
  -7   1 -15-285.716 372.177   2
  -7   1 -16 2231.35 1038.65   7
  -7   1 -16 2044.68 979.824   2
  -7   1 -17-250.835 394.136   7
  -7   1 -17 600.959 522.541   2
   7   0 -19 632.467 880.019   4
   7   0 -18 489.808 686.031   4
   7   0 -17-372.460 744.124   4
   7   0 -16 733.884 613.709   4
   7   0 -15-158.355 468.575   4
   7   0 -14 1415.81 876.729   4
   7   0 -13 2641.57 1098.53   4
  -7   0  13 1992.11 647.409   8
   7   0 -12 7843.54 1865.07   4
  -7   0  12 8543.90 1317.07   8
   7   0 -11 68.2621 344.297   4
  -7   0  11 392.023 394.061   8
  -7   0  10 3756.92 894.656   8
   7   0 -10 4507.07 1256.75   4
  -7   0   9-3.08083 161.063   8
   7   0  -9-332.311 519.456   4
  -7   0   8 462.435 418.423   8
   7   0  -8 169.011 451.210   4
  -7   0   7 8205.59 1391.61   8
   7   0  -7 8170.33 1582.30   4
  -7   0   6-3.21236 294.628   8
   7   0  -6 31.8063 164.863   4
   7   0  -5 1847.35 739.495   4
  -7   0   5 1635.60 623.525   8
   7   0  -4 623.249 466.952   4
  -7   0   4 1347.64 663.612   8
  -7   0   3 4368.00 1042.77   2
  -7   0   2 5752.16 1178.05   2
  -7   0   1 3029.54 869.856   2
  -7   0   0 2231.63 712.005   2
  -7   0  -1 13622.8 1950.37   3
  -7   0  -1 13881.6 1955.13   2
  -7   0  -2 19399.3 2345.38   3
  -7   0  -2 21238.3 2390.05   2
  -7   0  -3-125.205 258.019   3
  -7   0  -3-315.315 481.882   2
  -7   0  -4 449.467 389.812   3
  -7   0  -4 8.29188 357.835   2
  -7   0  -5 860.458 639.183   3
  -7   0  -5 237.187 436.443   2
  -7   0  -6 26749.8 2845.91   3
  -7   0  -6 33133.4 3128.72   2
  -7   0  -7 2250.67 832.383   3
  -7   0  -7 2651.07 935.770   2
  -7   0  -8 960.713 511.542   3
  -7   0  -8 498.984 218.935   2
  -7   0  -9 442.108 420.012   2
  -7   0 -10 2682.13 874.898   7
  -7   0 -10 2899.47 1030.49   2
  -7   0 -11 117.319 443.888   7
  -7   0 -11 830.034 626.816   2
  -7   0 -12 2549.73 930.274   7
   7   0  12 4583.55 934.199   6
  -7   0 -12 5129.36 1452.81   2
  -7   0 -13 1664.37 745.988   7
  -7   0 -13 2109.81 873.990   2
  -7   0 -14-503.440 453.475   7
  -7   0 -14-1330.62 720.182   2
  -7   0 -15 1624.79 848.607   7
  -7   0 -15 1420.37 709.028   2
  -7   0 -16 281.290 507.486   7
  -7   0 -16 733.961 568.405   2
  -7   0 -17 415.847 533.653   7
   7   1 -19 737.794 811.801   4
   7   1 -18 538.247 554.590   4
   7   1 -17 305.635 558.623   4
   7   1 -16-327.609 420.088   4
   7   1 -15 129.454 324.745   4
  -7  -1  14 1319.46 532.274   8
   7   1 -14 2154.60 1070.16   4
  -7  -1  13 6342.66 1183.63   8
   7   1 -13 5900.96 1570.41   4
  -7  -1  12 649.532 358.594   8
   7   1 -12 857.665 627.007   4
  -7  -1  11 2765.33 768.963   8
   7   1 -11 4664.08 1302.55   4
  -7  -1  10 2289.98 701.920   8
   7   1 -10 3990.84 1159.69   4
  -7  -1   9-178.922 178.434   8
   7   1  -9 1024.15 626.791   4
  -7  -1   8 3160.26 894.555   8
   7   1  -8 4412.15 1213.18   4
  -7  -1   7 1095.56 567.839   8
   7   1  -7 919.575 587.900   4
   7   1  -6 3358.91 1009.28   4
  -7  -1   6 4038.45 993.899   8
  -7  -1   5 6853.67 1316.23   8
  -7  -1   4 8230.59 1427.93   8
  -7  -1   3 468.983 343.835   8
  -7  -1   2 618.573 491.061   2
  -7  -1   1-144.782 220.427   2
  -7  -1   0 408.956 254.086   2
  -7  -1  -1 19315.5 2235.40   2
  -7  -1  -2 2969.00 921.883   2
  -7  -1  -3 1450.84 625.392   2
  -7  -1  -4 779.519 525.052   2
  -7  -1  -5 2692.24 790.353   2
  -7  -1  -6 7018.95 1413.93   2
  -7  -1  -7 530.230 404.592   2
  -7  -1  -8 81.2262 212.260   2
  -7  -1  -9-245.154 409.402   7
  -7  -1  -9 0.89286 275.191   2
  -7  -1 -10 1703.40 690.786   7
  -7  -1 -10 1038.27 689.925   2
  -7  -1 -11 2403.00 883.271   7
  -7  -1 -11 4134.79 1188.20   2
  -7  -1 -12 1947.85 843.245   7
   7   1  12 1692.96 583.737   6
  -7  -1 -12 2055.68 869.084   2
  -7  -1 -13-399.028 398.284   7
   7   1  13-143.736 205.857   6
  -7  -1 -13 4.07046 380.655   2
  -7  -1 -14 662.347 561.559   7
  -7  -1 -14 555.887 530.005   2
  -7  -1 -15-97.5735 241.523   7
  -7  -1 -15 457.748 393.336   2
  -7  -1 -16 61.7566 379.198   7
  -7  -1 -17 522.045 690.627   7
   7   2 -20-439.181 553.553   4
   7   2 -19 1107.38 582.590   4
   7   2 -18 28.9501 239.580   4
   7   2 -17 13.7659 251.666   4
   7   2 -16 22.2480 389.126   4
  -7  -2  15 659.379 434.554   8
   7   2 -15 290.994 598.073   4
  -7  -2  14 3495.25 916.018   8
   7   2 -14 5396.08 1534.36   4
  -7  -2  13 2385.32 747.035   8
   7   2 -13 3116.47 1102.53   4
  -7  -2  12 395.385 234.685   8
   7   2 -12 147.706 376.306   4
  -7  -2  11 16946.0 2016.72   8
   7   2 -11 14462.0 2309.73   4
  -7  -2  10 3896.31 949.866   8
   7   2 -10 3459.86 1115.60   4
  -7  -2   9 19240.0 2169.43   8
   7   2  -9 18943.9 2513.58   4
  -7  -2   8 490.301 359.392   8
   7   2  -8 148.226 395.219   4
  -7  -2   7 2805.88 872.298   8
  -7  -2   6 1322.01 612.331   8
  -7  -2   5 1228.39 528.859   8
  -7  -2   4-465.314 378.981   8
  -7  -2   3 3574.99 971.913   8
  -7  -2   2 990.808 525.459   8
  -7  -2   1 227.755 277.106   2
  -7  -2   1 629.832 394.748   8
  -7  -2   0 19380.0 2262.09   2
  -7  -2  -1 7789.53 1472.92   2
  -7  -2  -2 4644.31 1194.32   2
  -7  -2  -3 447.136 234.967   2
  -7  -2  -4-56.1127 168.767   2
  -7  -2  -5-187.231 362.087   2
  -7  -2  -6 1686.65 821.572   2
  -7  -2  -7 1312.68 653.971   2
  -7  -2  -8 112.772 388.036   7
  -7  -2  -8-104.538 216.559   2
  -7  -2  -9 1521.49 648.192   7
  -7  -2  -9 2327.19 893.246   2
  -7  -2 -10 256.264 401.982   7
  -7  -2 -10 444.305 394.743   2
  -7  -2 -11 7257.77 1505.98   7
   7   2  11 6960.05 1228.26   6
  -7  -2 -11 8266.81 1765.22   2
  -7  -2 -11 6125.25 1531.87   5
  -7  -2 -12 732.780 568.491   7
   7   2  12 620.409 464.050   6
  -7  -2 -12 652.952 483.377   2
  -7  -2 -12 257.593 444.386   5
  -7  -2 -13 901.397 575.475   7
   7   2  13 919.510 480.524   6
  -7  -2 -13 1739.40 925.570   2
  -7  -2 -13 1005.32 694.951   5
  -7  -2 -14 744.302 541.184   7
  -7  -2 -14 352.011 299.170   2
  -7  -2 -14 546.771 550.146   5
  -7  -2 -15 1587.34 892.046   7
  -7  -2 -15 2628.43 1154.14   5
  -7  -2 -16 312.067 484.838   7
   7   3 -20-353.639 492.697   4
   7   3 -19 3001.03 1390.14   4
   7   3 -18-1143.87 779.646   4
   7   3 -17 52.5871 391.887   4
   7   3 -16-115.599 267.703   4
  -7  -3  15 749.320 461.891   8
   7   3 -15 803.718 563.186   4
  -7  -3  14 2164.89 773.235   8
   7   3 -14 1622.90 836.357   4
  -7  -3  13 92.3555 120.164   8
   7   3 -13-505.745 401.589   4
  -7  -3  12 5711.07 1192.23   8
   7   3 -12 6595.35 1613.24   4
  -7  -3  11-99.4637 220.453   8
   7   3 -11 1242.23 719.142   4
  -7  -3  10 18584.6 2162.22   8
   7   3 -10 15262.5 2297.55   4
  -7  -3   9 20423.9 2274.54   8
  -7  -3   8 2127.06 759.783   8
  -7  -3   7 2664.24 874.407   8
  -7  -3   6 2867.44 833.690   8
  -7  -3   5 18.3468 277.265   8
  -7  -3   4 3227.93 939.537   8
  -7  -3   3 1266.06 605.301   8
   7   3  -2 813.531 310.781   7
  -7  -3   2 2056.97 789.675   8
  -7  -3   1 8197.50 1521.70   8
   7   3  -1 7714.85 934.325   7
   7   3   0 3198.51 618.004   7
  -7  -3   0 5002.42 1214.35   8
  -7  -3  -1 8231.56 1493.31   2
  -7  -3  -1 6079.15 1260.17   8
  -7  -3  -2-341.546 433.447   2
  -7  -3  -3 2169.20 850.092   2
  -7  -3  -4 2538.64 927.720   2
  -7  -3  -5 2657.61 826.115   2
  -7  -3  -6 375.975 400.240   2
  -7  -3  -7 5553.78 1144.62   7
  -7  -3  -7 6945.50 1494.18   2
  -7  -3  -7 5991.27 1421.53   5
  -7  -3  -8 4115.54 1034.30   7
  -7  -3  -8 4890.40 1304.46   2
  -7  -3  -8 4103.75 1268.59   5
  -7  -3  -9-139.944 217.028   7
  -7  -3  -9-9.31855 290.428   5
  -7  -3 -10 5909.54 1346.10   7
  -7  -3 -10 4988.69 1351.38   2
  -7  -3 -10 7274.22 1697.01   5
  -7  -3 -11 902.162 600.823   7
   7   3  11 1481.26 599.330   6
  -7  -3 -11 1199.00 677.835   2
  -7  -3 -11 65.2676 292.182   5
  -7  -3 -12 905.266 581.896   7
   7   3  12 617.430 346.626   6
  -7  -3 -12 593.975 507.493   5
  -7  -3 -12 700.434 496.642   2
  -7  -3 -13-128.471 258.463   7
   7   3  13 285.275 348.510   6
  -7  -3 -13 648.086 452.542   2
  -7  -3 -13 1.26747 394.002   5
  -7  -3 -14 791.184 643.537   7
  -7  -3 -14 702.101 532.392   2
  -7  -3 -14-262.828 384.742   5
  -7  -3 -15 259.636 410.395   7
  -7  -3 -15 114.976 277.023   5
  -7  -3 -16 532.839 534.480   7
   7   4 -20-1525.00 931.928   4
   7   4 -19 141.287 240.053   4
   7   4 -18-200.067 419.577   4
   7   4 -17 1447.76 751.352   4
  -7  -4  16 1689.72 675.983   8
   7   4 -16 2064.74 998.606   4
  -7  -4  15 869.052 539.094   8
   7   4 -15 220.906 503.560   4
  -7  -4  14 2587.65 819.283   8
   7   4 -14 2875.78 1202.62   4
  -7  -4  13 161.087 377.025   8
   7   4 -13 1406.44 708.124   4
  -7  -4  12-172.536 213.298   8
   7   4 -12 415.278 444.595   4
  -7  -4  11 1847.24 694.556   8
  -7  -4  10 1109.52 560.483   8
  -7  -4   9 15.1472 349.671   8
  -7  -4   8 3248.45 971.517   8
  -7  -4   7 7567.40 1475.67   8
  -7  -4   6 3090.71 904.068   8
  -7  -4   5 5737.24 1237.38   8
  -7  -4   4 1027.28 544.006   8
   7   4  -3 1046.21 307.198   7
  -7  -4   3 1105.67 629.602   8
   7   4  -2 280.896 180.160   7
  -7  -4   2 228.959 257.911   8
   7   4  -1 3194.42 559.043   7
  -7  -4   1 2714.54 855.079   8
  -7  -4   0 327.159 420.421   8
   7   4   0 413.624 223.749   7
  -7  -4  -1 837.569 511.038   8
   7   4   1 175.098 107.466   7
  -7  -4  -2-574.257 490.349   8
  -7  -4  -3 12084.6 1833.60   8
  -7  -4  -4 3385.84 1038.45   2
  -7  -4  -4 4003.94 1110.72   8
  -7  -4  -5 16023.3 2204.99   2
  -7  -4  -5 15151.3 2092.04   8
  -7  -4  -5 16766.3 2363.72   5
  -7  -4  -6-11.3105 222.377   7
  -7  -4  -6-6.87968 166.399   2
  -7  -4  -6-226.834 417.950   5
  -7  -4  -6 392.619 412.400   8
  -7  -4  -7 7786.81 1325.80   7
  -7  -4  -7 8321.64 1686.11   2
  -7  -4  -7 7422.59 1630.24   5
  -7  -4  -7 6195.61 1358.21   8
  -7  -4  -8 422.099 337.657   7
  -7  -4  -8 639.750 687.574   2
  -7  -4  -8 1085.98 688.307   5
  -7  -4  -8-372.617 552.718   8
  -7  -4  -9 670.252 452.425   7
  -7  -4  -9 528.003 329.169   2
  -7  -4  -9 429.368 404.533   5
  -7  -4  -9-357.052 367.044   8
  -7  -4 -10 2997.60 974.396   7
  -7  -4 -10 2862.58 995.186   2
   7   4  10 3018.54 867.833   6
  -7  -4 -10 2673.61 1081.40   5
  -7  -4 -10 2070.94 817.076   8
  -7  -4 -11 1062.47 585.064   7
   7   4  11 607.638 414.784   6
  -7  -4 -11 1813.88 866.984   2
  -7  -4 -11 1386.58 715.254   5
  -7  -4 -11 1726.51 710.026   8
  -7  -4 -12 202.835 253.408   7
   7   4  12 508.445 262.437   6
  -7  -4 -12-72.3278 210.170   2
  -7  -4 -12-333.524 425.815   5
  -7  -4 -13-572.272 482.907   7
  -7  -4 -13-503.980 445.797   2
   7   4  13-160.087 225.833   6
  -7  -4 -13 841.718 649.758   5
  -7  -4 -14 189.169 306.043   7
   7   4  14 918.003 525.074   6
  -7  -4 -14 121.645 198.070   5
  -7  -4 -15 2.43793 162.542   7
  -7  -4 -15 126.351 299.697   5
  -7  -4 -16-511.654 516.677   7
   7   5 -21 1565.10 1123.20   4
   7   5 -20 388.188 746.727   4
   7   5 -19 970.110 770.256   4
   7   5 -18 992.117 758.144   4
  -7  -5  17 888.743 541.430   8
   7   5 -17 2004.25 1071.74   4
  -7  -5  16 80.9000 277.570   8
   7   5 -16 251.214 273.965   4
  -7  -5  15 2066.72 799.631   8
  -7  -5  14 139.161 220.883   8
  -7  -5  13-178.259 311.423   8
  -7  -5  12-141.206 295.900   8
  -7  -5  11 97.6226 297.664   8
  -7  -5  10 4331.89 1120.82   8
  -7  -5   9 1280.88 591.203   8
  -7  -5   8 14091.0 1967.42   8
  -7  -5   7 4679.71 1170.23   8
  -7  -5   6 272.469 160.371   8
  -7  -5   5 4420.85 1090.69   8
   7   5  -4 71.9580 80.7387   7
  -7  -5   4-243.380 195.685   8
   7   5  -3 1722.49 331.090   7
  -7  -5   3 1047.25 541.087   8
  -7  -5   2 366.177 422.912   8
   7   5  -2-124.072 119.413   7
  -7  -5   1 2418.37 888.366   8
  -7  -5   0 3497.41 1059.78   8
  -7  -5  -1-110.056 441.526   8
  -7  -5  -2 8532.52 1571.58   8
  -7  -5  -3 4569.12 1181.64   5
  -7  -5  -3 3847.70 1105.42   8
  -7  -5  -4 13691.7 2104.46   5
  -7  -5  -4 11267.4 1813.97   8
  -7  -5  -5 1797.27 790.747   5
  -7  -5  -5 374.698 279.340   8
  -7  -5  -6 6630.23 1165.84   7
  -7  -5  -6 6448.96 1506.62   5
  -7  -5  -6 7266.74 1470.49   8
  -7  -5  -7 358.943 319.060   7
  -7  -5  -7 959.362 661.860   5
  -7  -5  -7 958.700 540.969   8
  -7  -5  -8 31.1109 132.430   7
  -7  -5  -8 242.556 197.447   5
  -7  -5  -8 329.103 321.731   8
  -7  -5  -9 397.398 433.326   7
   7   5   9-100.589 180.800   6
  -7  -5  -9-227.962 356.143   5
  -7  -5  -9-4.20852 188.917   8
  -7  -5 -10 1126.03 571.840   7
   7   5  10 671.266 383.228   6
  -7  -5 -10 817.053 535.889   5
  -7  -5 -10 1290.12 650.850   8
  -7  -5 -11-578.317 452.737   7
   7   5  11 520.345 401.864   6
  -7  -5 -11 234.875 509.173   5
  -7  -5 -12 380.890 385.095   7
   7   5  12-27.5122 193.981   6
  -7  -5 -12 244.486 366.907   5
  -7  -5 -13-823.783 574.597   7
   7   5  13-233.574 281.366   6
  -7  -5 -13 462.590 444.778   5
  -7  -5 -14-766.002 580.108   7
   7   5  14-669.092 463.206   6
  -7  -5 -14 440.718 761.200   5
  -7  -5 -15 1017.55 691.128   7
  -7  -6  18-641.349 450.323   8
  -7  -6  17 478.851 367.563   8
  -7  -6  16 679.005 455.766   8
  -7  -6  15 1143.20 636.207   8
  -7  -6  14 950.162 553.984   8
  -7  -6  13 440.840 421.136   8
  -7  -6  12 422.827 417.201   8
  -7  -6  11 1349.99 628.570   8
  -7  -6  10 1483.13 658.937   8
  -7  -6   9 217.923 243.223   8
  -7  -6   8 12530.1 1914.49   8
  -7  -6   7-30.3854 292.880   8
  -7  -6   6 1785.59 779.968   8
  -7  -6   5 3771.75 1129.46   8
   7   6  -5 2221.17 274.002   7
  -7  -6   4 2735.83 949.204   8
  -7  -6   3-340.343 581.820   8
  -7  -6   2 1012.03 532.945   8
  -7  -6   1 3008.54 919.550   8
  -7  -6   0 7008.62 1465.29   8
  -7  -6  -1 1645.53 732.107   8
  -7  -6  -2 4633.58 1186.52   5
  -7  -6  -2 3287.47 956.250   8
  -7  -6  -3 2403.23 886.122   5
  -7  -6  -3 1201.52 498.439   8
  -7  -6  -4 697.604 584.639   5
  -7  -6  -4 23.4662 289.171   8
  -7  -6  -5 1095.95 619.242   5
  -7  -6  -5 2260.98 821.693   8
  -7  -6  -6 290.923 248.771   7
  -7  -6  -6 847.592 530.155   5
  -7  -6  -6 1067.26 573.785   8
  -7  -6  -7-63.5452 255.527   7
  -7  -6  -7-134.411 383.874   5
  -7  -6  -7 321.138 352.542   8
  -7  -6  -8 773.691 441.921   7
  -7  -6  -8-386.511 465.849   5
  -7  -6  -8 772.873 495.637   8
  -7  -6  -9 348.359 207.448   7
   7   6   9 117.026 213.089   6
  -7  -6  -9 585.656 368.834   5
  -7  -6  -9 1033.87 532.674   8
  -7  -6 -10 1487.14 688.135   7
   7   6  10 1359.83 649.395   6
  -7  -6 -10 1730.44 810.566   5
  -7  -6 -10 3111.64 967.980   8
  -7  -6 -11 577.814 449.437   7
   7   6  11-932.979 531.422   6
  -7  -6 -11-3.98727 385.637   5
  -7  -6 -12-312.957 355.436   7
   7   6  12 90.1391 202.647   6
  -7  -6 -12-367.684 458.660   5
   7   6  13 732.370 485.406   6
  -7  -6 -13 227.989 386.770   5
   7   6  14 1615.84 759.738   6
  -7  -7  18 540.031 369.382   8
  -7  -7  17-358.688 354.079   8
  -7  -7  16-628.348 456.464   8
  -7  -7  15 305.638 334.658   8
  -7  -7  14 2368.45 875.480   8
  -7  -7  13-655.053 455.369   8
  -7  -7  12 613.381 421.329   8
  -7  -7  11 2660.11 918.835   8
  -7  -7  10 2316.02 863.254   8
  -7  -7   9 8085.30 1528.28   8
  -7  -7   8 1808.61 788.843   8
  -7  -7   7 1007.56 588.174   8
  -7  -7   6-441.098 461.748   8
  -7  -7   5 1185.73 588.878   8
  -7  -7   4 8238.46 1569.53   8
  -7  -7   3 506.265 467.760   8
  -7  -7   2 1573.16 718.271   8
  -7  -7   1 9315.92 1665.60   8
  -7  -7   0 1367.11 705.311   5
  -7  -7   0 647.814 555.560   8
  -7  -7  -1 1077.11 465.820   5
  -7  -7  -1 610.534 484.519   8
  -7  -7  -2-281.763 156.808   5
  -7  -7  -2 187.106 352.403   8
  -7  -7  -3 2995.00 1050.42   5
  -7  -7  -3 3532.43 1159.40   8
  -7  -7  -4 6755.37 1553.80   5
  -7  -7  -4 8255.87 1575.14   8
  -7  -7  -5 884.410 696.773   5
  -7  -7  -5 120.046 349.342   8
  -7  -7  -6 443.666 553.537   5
  -7  -7  -6 19.0933 209.849   8
  -7  -7  -7 100.603 352.023   5
  -7  -7  -7 363.636 416.403   8
   7   7   8 83.1235 371.359   6
  -7  -7  -8 232.486 195.987   8
   7   7   9-618.694 439.003   6
  -7  -7  -9-111.613 213.516   8
   7   7  10 1296.74 580.452   6
  -7  -7 -10 278.418 415.592   5
   7   7  11-637.106 463.667   6
  -7  -7 -11 4047.86 1393.47   5
   7   7  12 822.082 692.514   6
  -7  -7 -12 1045.84 724.516   5
   7   7  13 4670.37 1264.10   6
   7   7  14 200.780 408.809   6
  -7  -8  19-579.122 458.111   8
  -7  -8  18-112.850 223.602   8
  -7  -8  17 347.107 215.249   8
  -7  -8  16-817.162 529.950   8
  -7  -8  15 811.240 587.654   8
  -7  -8  14 690.454 415.878   8
  -7  -8  13 2862.50 974.231   8
  -7  -8  12 753.045 687.782   8
  -7  -8  11-58.5973 389.031   8
  -7  -8  10 1525.74 748.930   8
  -7  -8   9 297.583 324.455   8
  -7  -8   8 4074.34 1117.20   8
  -7  -8   7 1780.05 790.878   8
  -7  -8   6 2477.86 845.879   8
  -7  -8   5 216.555 396.042   8
  -7  -8   4-509.635 490.870   8
  -7  -8   3 1012.82 516.884   8
  -7  -8   2 4935.43 1311.46   8
  -7  -8   1 12354.5 1932.92   8
  -7  -8   1 11852.2 1880.01   5
  -7  -8   0 457.095 329.699   5
  -7  -8   0 1761.02 725.112   8
  -7  -8  -1 1944.03 801.423   5
  -7  -8  -1 4126.85 1140.44   8
  -7  -8  -2 264.018 395.290   5
  -7  -8  -2 20.1097 270.806   8
  -7  -8  -3 9097.88 1797.57   5
  -7  -8  -3 9239.30 1666.77   8
  -7  -8  -4 68.5993 412.862   5
  -7  -8  -4 144.491 311.105   8
  -7  -8  -5 638.116 499.411   5
  -7  -8  -5-698.363 352.814   8
  -7  -8  -6 4025.26 1268.45   5
  -7  -8  -6 4086.59 1102.58   8
   7   8   7-428.060 375.343   6
  -7  -8  -7-226.039 442.245   5
  -7  -8  -7-759.767 486.316   8
   7   8   8-54.5956 276.868   6
  -7  -8  -8 87.7492 377.667   5
  -7  -8  -8-240.921 293.913   8
   7   8   9 229.085 297.036   6
  -7  -8  -9 761.156 780.356   5
   7   8  10 834.795 534.740   6
  -7  -8 -10 433.258 534.120   5
   7   8  11-386.792 379.826   6
  -7  -8 -11 696.419 605.789   5
   7   8  12 1012.80 694.489   6
   7   8  13-408.332 404.765   6
  -7  -9  20 216.135 425.789   8
  -7  -9  19 1814.54 830.031   8
  -7  -9  18-473.581 430.280   8
  -7  -9  17 447.695 478.837   8
  -7  -9  16 47.5631 269.343   8
  -7  -9  15-263.962 436.691   8
  -7  -9  14 683.919 415.243   8
  -7  -9  13 1590.59 828.205   8
  -7  -9  12 777.608 505.272   8
  -7  -9  11 2259.15 949.245   8
  -7  -9  10 354.654 328.008   8
  -7  -9   9 6443.88 1457.21   8
  -7  -9   8 47.5679 338.582   8
  -7  -9   7 2083.26 852.433   8
  -7  -9   6 130.608 394.440   8
  -7  -9   5 653.951 439.153   8
  -7  -9   4 3201.80 1026.41   8
  -7  -9   3 835.948 538.148   8
  -7  -9   2 10974.8 1845.14   8
  -7  -9   2 9663.14 1716.44   5
  -7  -9   1 288.240 321.977   8
  -7  -9   1 202.483 155.315   5
  -7  -9   0 1360.91 710.948   5
  -7  -9   0 1035.07 585.265   8
  -7  -9  -1-280.144 337.229   5
  -7  -9  -1-110.156 159.315   8
  -7  -9  -2-167.179 275.249   5
  -7  -9  -2 66.7673 224.871   8
  -7  -9  -3 482.371 499.582   5
  -7  -9  -3 886.602 592.665   8
  -7  -9  -4-49.5070 467.893   5
  -7  -9  -4 855.985 379.870   8
  -7  -9  -5 593.852 476.831   5
  -7  -9  -5 1912.05 822.860   8
  -7  -9  -6 913.050 641.881   5
  -7  -9  -6 106.862 260.572   8
   7   9   7 350.673 308.164   6
  -7  -9  -7 682.482 612.827   5
  -7  -9  -7 392.023 370.941   8
   7   9   8 179.366 255.028   6
  -7  -9  -8 360.849 619.367   5
   7   9   9 24.8426 171.017   6
  -7  -9  -9 1227.18 844.988   5
   7   9  10 288.269 341.469   6
   7   9  11 1070.40 634.730   6
   7   9  12 387.327 517.277   6
  -7 -10  20 183.666 297.130   8
  -7 -10  19-9.72635 129.965   8
  -7 -10  18-245.253 331.345   8
  -7 -10  17 549.784 528.831   8
  -7 -10  16 797.403 555.061   8
  -7 -10  15 1303.00 722.868   8
  -7 -10  14 1061.77 698.945   8
  -7 -10  13-1476.91 728.495   8
  -7 -10  12 994.263 493.554   8
  -7 -10  11 1398.55 763.056   8
  -7 -10  10 1495.05 770.657   8
  -7 -10   9 771.438 523.815   8
  -7 -10   8 1381.65 646.473   8
  -7 -10   7 1041.84 625.615   8
  -7 -10   6 1433.13 718.548   8
  -7 -10   5 1214.99 651.303   8
  -7 -10   4 4264.13 1111.29   8
  -7 -10   3 2875.93 965.464   8
  -7 -10   2 410.927 419.171   8
  -7 -10   2-80.8841 194.030   5
  -7 -10   1 1720.63 790.825   8
  -7 -10   1 1489.92 672.378   5
  -7 -10   0-8.59075 458.749   5
  -7 -10   0 1549.68 704.953   8
  -7 -10  -1 823.434 436.315   5
  -7 -10  -1 472.811 422.119   8
  -7 -10  -2 267.219 306.459   5
  -7 -10  -2 372.921 343.490   8
  -7 -10  -3 583.054 602.044   5
  -7 -10  -3 294.739 354.895   8
  -7 -10  -4 1242.83 853.635   5
  -7 -10  -4 555.156 432.853   8
   7  10   5 358.752 328.755   6
  -7 -10  -5 1033.23 679.999   5
  -7 -10  -5 808.770 527.820   8
   7  10   6 2440.64 818.321   6
  -7 -10  -6 3353.84 1250.90   5
  -7 -10  -6 2682.41 939.376   8
   7  10   7 448.517 430.851   6
  -7 -10  -7-237.567 379.604   5
   7  10   8 1258.75 729.748   6
  -7 -10  -8 811.698 889.729   5
   7  10   9 288.983 372.262   6
   7  10  10 697.424 519.167   6
  -7 -11  19-291.250 372.062   8
  -7 -11  18-219.310 324.576   8
  -7 -11  17 570.905 538.217   8
  -7 -11  16 3337.98 1147.73   8
  -7 -11  15 427.129 541.077   8
  -7 -11  14-562.109 474.959   8
  -7 -11  13 704.206 530.260   8
  -7 -11  12 137.806 190.848   8
  -7 -11  11-64.4793 441.481   8
  -7 -11  10 144.358 205.261   8
  -7 -11   9 1209.70 601.276   8
  -7 -11   8 108.230 341.539   8
  -7 -11   7 4493.01 1296.35   8
  -7 -11   6 235.319 210.149   8
  -7 -11   5 152.714 172.126   8
  -7 -11   4 2153.25 848.795   8
  -7 -11   3 1858.27 733.900   8
  -7 -11   3 1307.88 630.174   5
  -7 -11   2 446.052 474.595   8
  -7 -11   2 380.855 370.160   5
  -7 -11   1-57.4312 190.794   8
  -7 -11   1-271.659 325.760   5
  -7 -11   0-382.393 395.501   5
  -7 -11   0-339.548 365.391   8
  -7 -11  -1 706.594 608.737   5
  -7 -11  -1-118.803 461.872   8
  -7 -11  -2 828.448 531.405   5
  -7 -11  -2 870.705 583.110   8
  -7 -11  -3 722.575 447.531   5
  -7 -11  -3-32.7099 217.903   8
   7  11   4 826.545 571.076   6
  -7 -11  -4 1551.57 861.022   5
  -7 -11  -4 511.224 351.587   8
   7  11   5 941.109 629.640   6
  -7 -11  -5 1831.99 1000.46   5
  -7 -11  -5 2432.24 830.701   8
   7  11   6 172.005 383.823   6
  -7 -11  -6 448.368 454.845   5
   7  11   7 3641.69 1187.80   6
  -7 -11  -7 4958.91 1708.05   5
   7  11   8-267.912 349.668   6
  -7 -12  17 836.489 660.414   8
  -7 -12  16 1330.08 694.893   8
  -7 -12  15-501.126 470.886   8
  -7 -12  14 51.4377 297.301   8
  -7 -12  13-675.599 525.151   8
  -7 -12  12 1.05894 300.401   8
  -7 -12  11 1314.81 711.129   8
  -7 -12  10 695.694 599.731   8
  -7 -12   9 113.420 265.898   8
  -7 -12   8 42.9352 194.964   8
  -7 -12   7 1238.47 714.919   8
  -7 -12   6 165.825 485.608   8
  -7 -12   5 3363.43 1140.20   8
  -7 -12   4-160.288 384.932   8
  -7 -12   4 1291.89 683.802   5
  -7 -12   3 4773.40 1335.32   8
  -7 -12   3 3482.83 1077.61   5
  -7 -12   2 711.618 585.885   8
  -7 -12   2 99.2077 225.002   5
  -7 -12   1 1192.19 710.926   8
  -7 -12   1 1005.12 590.844   5
  -7 -12   0 743.293 489.843   8
  -7 -12   0 1117.11 665.488   5
  -7 -12  -1 998.231 616.476   5
  -7 -12  -1 1613.53 769.489   8
  -7 -12  -2-119.465 261.939   5
  -7 -12  -2-68.7886 297.195   8
   7  12   3 1338.66 763.218   6
  -7 -12  -3 664.372 642.501   5
  -7 -12  -3 1491.20 703.359   8
   7  12   4-70.0423 161.435   6
  -7 -12  -4 103.788 251.621   8
   7  12   5 508.612 400.827   6
  -7 -12  -5 1449.00 913.752   5
   7  12   6 1598.63 835.734   6
  -7 -12  -6 3407.70 1314.49   5
  -7 -13  16 544.949 513.032   8
  -7 -13  15-520.785 481.161   8
  -7 -13  14-487.538 303.262   8
  -7 -13  13 798.556 645.522   8
  -7 -13  12 749.069 534.220   8
  -7 -13  11 1787.92 858.787   8
  -7 -13  10-506.587 459.198   8
  -7 -13   9 284.228 302.979   8
  -7 -13   8 2730.32 1035.28   8
  -7 -13   7-145.961 149.468   8
  -7 -13   6 2034.17 957.399   8
  -7 -13   5-210.455 378.741   8
  -7 -13   4 31.0788 399.374   8
  -7 -13   4 546.026 463.836   5
  -7 -13   3 596.513 607.330   8
  -7 -13   3 231.400 336.486   5
  -7 -13   2 418.533 381.084   8
  -7 -13   2-719.407 532.069   5
  -7 -13   1-499.722 439.414   8
  -7 -13   1 311.402 390.727   5
  -7 -13   0 330.777 368.977   8
  -7 -13   0-254.226 356.174   5
   7  13   1 204.671 191.091   6
  -7 -13  -1 376.163 400.259   8
  -7 -13  -1 1249.35 803.248   5
   7  13   2 1326.90 759.948   6
  -7 -13  -2 405.978 410.908   8
  -7 -13  -2 1978.04 1039.44   5
   7  13   3 202.052 305.765   6
  -7 -13  -3 669.563 576.542   5
  -7 -13  -3 1324.46 804.494   8
   7  13   4 22.5970 190.415   6
  -7 -13  -4 127.484 301.192   5
  -7 -14  13 351.405 416.213   8
  -7 -14  12-386.204 424.671   8
  -7 -14  11-139.504 284.235   8
  -7 -14  10 613.793 600.615   8
  -7 -14   9-815.285 581.356   8
  -7 -14   8 237.520 405.356   8
  -7 -14   7 487.829 623.160   8
  -7 -14   6 500.881 559.430   8
  -7 -14   5-344.989 385.193   8
  -7 -14   4-650.766 515.786   8
  -7 -14   3 579.802 544.186   8
  -7 -14   3-793.840 557.593   5
  -7 -14   2 615.835 479.876   8
  -7 -14   2 159.080 256.186   5
   7  14  -1 1362.62 754.064   6
  -7 -14   1 707.224 460.719   8
  -7 -14   1 487.559 448.708   5
   7  14   0 258.815 248.688   6
  -7 -14   0 947.847 579.927   8
  -7 -14   0 1131.67 671.834   5
   7  14   1 183.512 387.407   6
  -7 -14  -1 1055.60 610.337   8
  -7 -14  -1 1088.57 757.501   5
   7  14   2 2415.29 1065.76   6
  -7 -14  -2 2119.80 867.756   8
  -7 -14  -2 2964.51 1254.52   5
  -7 -14  -3 1545.31 893.640   5
  -7 -15  11-120.855 318.180   8
  -7 -15  10 46.5118 269.953   8
  -7 -15   9 376.834 364.466   8
  -7 -15   8 299.746 303.143   8
  -7 -15   7-640.185 537.081   8
  -7 -15   6 267.273 187.812   8
  -7 -15   5 1184.42 708.293   8
  -7 -15   4-12.0350 175.856   8
   7  15  -3 1240.61 732.117   6
  -7 -15   3-150.930 277.690   8
   7  15  -2 103.347 278.311   6
  -7 -15   2 843.508 541.259   8
   7  15  -1 46.0469 294.935   6
  -7 -15   1 667.743 523.061   8
  -7 -15   1-667.116 554.623   5
  -7 -15   0-606.964 492.266   8
  -7 -15   0 296.116 631.751   5
  -7 -15  -1 302.034 474.164   8
  -7 -15  -1 1596.15 916.292   5
  -7 -16   7 270.261 362.980   8
  -7 -16   6-192.221 323.027   8
   7  16  -5 1505.57 703.739   6
  -7 -16   5 387.671 565.206   8
   7  16  -4 360.481 421.995   6
  -7 -16   4-662.558 636.719   8
  -7 -16   3 450.284 450.949   8
  -7 -16   2 299.911 436.455   8
  -7 -16   1-420.682 425.296   8
  -7 -16   1-1.31997 131.186   5
  -7 -16   0 1559.14 845.644   8
  -7 -16   0 177.642 332.692   5
   7  17  -9-128.073 252.684   6
   7  17  -8 1555.51 801.991   6
  -8  17  -1-1125.82 792.570   6
  -8  17  -2 19.7625 573.241   6
  -8  17  -3 747.866 655.063   6
  -8  17  -4 90.9634 236.961   2
  -8  17  -5 671.115 615.420   2
  -8  17  -6-307.252 408.816   2
  -8  17  -7 599.701 493.802   2
  -8  17  -8 683.228 716.365   2
  -8  16   1 2892.72 1378.98   6
  -8  16   0 1045.56 519.690   6
  -8  16  -1-1016.30 727.477   6
  -8  16  -2-129.235 306.704   6
  -8  16  -3 229.392 360.400   6
  -8  16  -3 87.8458 236.778   2
  -8  16  -4 463.050 368.681   2
  -8  16  -5-628.355 542.302   2
  -8  16  -6-110.681 260.947   2
  -8  16  -7 866.265 721.279   2
  -8  16  -8 917.367 668.705   2
  -8  16  -9 464.078 501.522   2
   8 -15  -3-311.974 703.149   4
  -8  15   3 1849.58 1013.09   6
   8 -15  -2 231.531 443.092   4
  -8  15   2 173.894 526.688   6
  -8  15   1 296.379 556.067   6
  -8  15   0-424.963 487.858   6
  -8  15  -1-615.861 562.568   6
  -8  15  -2-804.995 620.092   6
  -8  15  -2-2.12515 142.469   2
  -8  15  -3-323.909 405.719   6
  -8  15  -3-407.518 419.147   2
  -8  15  -4 849.785 645.519   6
  -8  15  -4-152.401 284.542   2
  -8  15  -5-666.022 542.662   2
  -8  15  -6 1797.43 897.283   2
  -8  15  -7 1026.17 693.796   2
  -8  15  -8 1699.24 904.065   2
  -8  15  -9 1504.93 942.390   2
  -8  15 -10 588.898 560.300   2
  -8  15 -11-212.432 532.778   2
   8 -14  -4-1364.04 832.304   4
  -8  14   4 686.876 526.226   6
   8 -14  -3 1279.13 894.280   4
  -8  14   3-99.8560 214.628   6
   8 -14  -2-56.2065 397.226   4
  -8  14   2-724.170 626.840   6
   8 -14  -1-45.9642 458.171   4
  -8  14   1-1188.35 769.636   6
  -8  14   0 678.392 661.325   6
  -8  14  -1 105.034 441.386   6
  -8  14  -1-168.121 273.283   2
  -8  14  -2 47.4331 393.546   6
  -8  14  -2 1299.13 680.874   2
  -8  14  -3 2213.15 884.408   6
  -8  14  -3 522.695 433.163   2
  -8  14  -4 2577.39 1071.46   6
  -8  14  -4 1215.11 678.091   2
  -8  14  -5 1584.00 886.080   2
  -8  14  -6 1381.39 774.580   2
  -8  14  -7 229.510 380.317   2
  -8  14  -8-635.958 550.965   2
  -8  14  -9 220.690 354.528   2
  -8  14 -10-604.595 557.293   2
  -8  14 -11 15.0265 361.824   2
  -8  14 -12-124.401 347.862   2
   8 -13  -6 1417.65 951.032   4
  -8  13   6 537.239 720.757   6
   8 -13  -5 3387.30 1249.18   4
  -8  13   5 2410.30 1140.25   6
   8 -13  -4 1211.74 880.667   4
  -8  13   4 381.205 516.716   6
   8 -13  -3 2164.14 972.341   4
  -8  13   3 561.135 437.196   6
   8 -13  -2-110.780 255.806   4
  -8  13   2-251.553 316.281   6
   8 -13  -1-76.3629 446.356   4
  -8  13   1-1059.08 709.806   6
   8 -13   0 958.826 498.010   4
  -8  13   0 221.257 367.530   6
  -8  13   0-589.117 454.638   2
  -8  13  -1-88.7622 537.394   6
  -8  13  -1 33.2638 145.833   2
  -8  13  -2 3644.23 1193.53   6
  -8  13  -2 2489.34 929.988   2
  -8  13  -3 1170.73 602.246   6
  -8  13  -3 1478.57 812.514   2
  -8  13  -4 17.7532 271.124   2
  -8  13  -5 777.868 610.888   2
  -8  13  -6 2226.44 903.819   2
  -8  13  -7-170.276 305.540   2
  -8  13  -8 1329.20 757.980   2
  -8  13  -9 2023.40 902.541   2
  -8  13 -10 565.523 724.139   2
  -8  13 -11 266.441 430.171   2
  -8  13 -12 284.137 297.937   2
  -8  13 -13 2163.27 1105.67   2
   8 -12  -8 843.445 553.577   4
   8 -12  -7-176.645 674.404   4
  -8  12   7-494.048 526.986   6
   8 -12  -6 297.402 384.952   4
  -8  12   6 456.344 605.961   6
   8 -12  -5-1387.57 811.954   4
  -8  12   5 22.4930 194.059   6
   8 -12  -4 321.784 410.319   4
  -8  12   4 1851.62 888.867   6
   8 -12  -3 308.607 389.807   4
  -8  12   3 750.261 787.149   6
   8 -12  -2-356.379 366.428   4
  -8  12   2 393.750 473.887   6
   8 -12  -1 1402.27 720.601   4
  -8  12   1 1574.91 852.617   6
  -8  12   1 1615.11 694.523   2
   8 -12   0 756.760 447.970   4
  -8  12   0 933.114 680.735   6
  -8  12   0 1243.76 719.740   2
   8 -12   1 906.611 526.185   4
  -8  12  -1 1173.75 744.519   6
  -8  12  -1 1412.55 725.014   2
  -8  12  -2-322.460 423.474   6
  -8  12  -2 37.0003 245.944   2
  -8  12  -3 2585.51 1045.97   2
  -8  12  -4 190.898 297.077   2
  -8  12  -5 9390.02 1874.28   2
  -8  12  -6 1839.08 864.397   2
  -8  12  -7 927.822 542.425   2
  -8  12  -8 2579.92 1029.89   2
  -8  12  -9-470.038 476.959   2
  -8  12 -10 279.191 580.699   2
  -8  12 -11-418.059 356.360   2
  -8  12 -12 77.9389 246.411   2
  -8  12 -13 1220.39 867.748   2
  -8  12 -14 581.195 757.801   2
   8 -11 -10 204.030 407.167   4
   8 -11  -9 54.8190 252.384   4
  -8  11   9-760.054 698.301   6
   8 -11  -8 1160.77 779.706   4
  -8  11   8 493.981 496.216   6
   8 -11  -7 188.330 577.488   4
  -8  11   7 564.310 616.192   6
   8 -11  -6 197.308 368.423   4
  -8  11   6-22.2774 329.152   6
   8 -11  -5 723.149 585.288   4
  -8  11   5-584.017 549.973   6
   8 -11  -4 1639.87 694.633   4
  -8  11   4 770.697 639.058   6
   8 -11  -3-238.935 596.411   4
  -8  11   3 612.673 562.587   6
   8 -11  -2-647.100 501.449   4
  -8  11   2 654.006 438.400   2
  -8  11   2 454.101 522.967   6
   8 -11  -1 382.408 347.963   4
  -8  11   1-290.445 623.573   6
  -8  11   1-200.770 398.675   2
   8 -11   0 72.2158 403.206   4
  -8  11   0 11.1116 204.633   2
   8 -11   1 2585.13 904.904   4
  -8  11  -1 2095.37 911.104   6
  -8  11  -1 3544.32 1062.14   2
   8 -11   2 46.8013 325.671   4
  -8  11  -2-161.635 151.854   2
  -8  11  -3 718.318 492.814   2
  -8  11  -4 150.973 243.148   2
  -8  11  -5 283.490 471.566   2
  -8  11  -6-15.6742 336.191   2
  -8  11  -7 5269.48 1460.80   2
  -8  11  -8-90.3114 208.281   2
  -8  11  -9 1276.05 723.577   2
  -8  11 -10 604.866 462.257   2
  -8  11 -11 1063.10 813.380   2
  -8  11 -12 2637.05 1123.51   2
  -8  11 -13-453.198 500.524   2
  -8  11 -14-18.0265 271.542   2
  -8  11 -15 275.159 534.727   2
   8 -10 -10 13.7842 221.128   4
  -8  10  10 1820.17 1027.69   6
   8 -10  -9 323.486 527.953   4
  -8  10   9-512.229 562.800   6
   8 -10  -8 521.639 564.303   4
  -8  10   8-265.422 628.346   6
   8 -10  -7 732.191 552.881   4
  -8  10   7 763.737 214.919   6
   8 -10  -6 440.192 578.766   4
  -8  10   6 429.727 397.457   6
  -8  10   6 853.340 612.756   3
   8 -10  -5 3532.63 1213.87   4
  -8  10   5 4474.98 1449.01   6
  -8  10   5 2731.14 976.616   3
   8 -10  -4-619.010 508.819   4
  -8  10   4 412.312 190.323   6
  -8  10   3 2380.76 823.549   2
   8 -10  -3 1284.87 663.751   4
  -8  10   3 1930.05 914.987   6
   8 -10  -2 865.073 642.620   4
  -8  10   2 741.638 556.987   2
  -8  10   2 111.419 293.261   6
   8 -10  -1 285.142 426.541   4
  -8  10   1 687.477 660.192   6
  -8  10   1 479.583 398.061   2
   8 -10   0 2092.02 835.649   4
  -8  10   0 1983.39 868.193   6
  -8  10   0 2380.65 845.465   2
   8 -10   1 1205.70 626.037   4
  -8  10  -1 1408.21 643.820   2
   8 -10   2 7910.16 1483.64   4
  -8  10  -2 6333.45 1461.58   2
  -8  10  -3 6346.27 1431.11   2
   8 -10   3 5526.88 1144.60   4
  -8  10  -4 1094.26 706.135   2
  -8  10  -5 1043.55 807.318   2
  -8  10  -6 4303.32 1243.92   2
  -8  10  -7 1016.54 719.300   2
  -8  10  -8 1000.68 687.067   2
  -8  10  -9-827.615 590.942   2
  -8  10 -10 2761.15 1150.16   2
  -8  10 -11 683.859 404.075   2
  -8  10 -12 303.968 371.516   2
  -8  10 -13-183.318 345.172   2
  -8  10 -14 430.799 490.701   2
  -8  10 -15 218.077 552.551   2
  -8  10 -16-183.639 370.659   2
  -8  10 -18 945.444 769.474   3
   8  -9 -11-469.012 546.098   4
  -8   9  11 1021.09 775.245   6
   8  -9 -10-1119.55 780.616   4
  -8   9  10-7.48537 352.183   6
   8  -9  -9 2144.46 1017.68   4
  -8   9   9 1523.31 921.063   6
   8  -9  -8 750.568 713.459   4
  -8   9   8 558.254 578.577   6
   8  -9  -7 267.406 490.114   4
  -8   9   7-203.496 530.636   6
   8  -9  -6 1451.90 767.309   4
  -8   9   6 1918.84 943.286   6
  -8   9   6 3427.82 1098.90   3
   8  -9  -5-55.2378 235.368   4
  -8   9   5 337.402 339.743   6
  -8   9   5 189.032 285.674   3
   8  -9  -4 7748.46 1790.00   4
  -8   9   4 7101.40 1752.60   6
  -8   9   4 7072.43 1597.79   3
  -8   9   4 6734.63 1323.75   2
  -8   9   3 1613.67 694.781   2
   8  -9  -3 1748.84 723.836   4
  -8   9   3 2344.60 971.237   6
   8  -9  -2 146.037 326.531   4
  -8   9   2-21.8010 154.573   2
  -8   9   2-128.755 298.585   6
   8  -9  -1 1965.73 855.544   4
  -8   9   1 942.167 584.949   6
  -8   9   1 1910.98 817.967   2
   8  -9   0 300.780 488.604   4
  -8   9   0 10.4777 278.279   2
   8  -9   1 834.633 516.193   4
  -8   9  -1 679.645 180.905   2
  -8   9  -2 2056.92 844.838   2
   8  -9   2 956.173 468.339   4
  -8   9  -3 1043.55 598.293   2
   8  -9   3 1659.42 656.107   4
  -8   9  -4 235.608 374.994   2
   8  -9   4 801.872 420.234   4
  -8   9  -5 1329.29 697.570   2
  -8   9  -6 288.611 267.191   2
  -8   9  -7-776.005 558.405   2
  -8   9  -8 510.315 625.209   2
  -8   9  -9 247.174 483.010   2
  -8   9 -10 2698.71 1070.65   2
  -8   9 -11 220.143 319.694   2
  -8   9 -12-406.749 529.586   2
  -8   9 -13 19.1399 368.413   2
  -8   9 -14 61.2141 259.361   2
  -8   9 -15 432.504 495.411   2
  -8   9 -16 456.068 491.151   2
  -8   9 -17 799.933 674.415   2
  -8   9 -17 1155.92 823.661   3
  -8   9 -18 1026.43 679.697   3
   8  -8 -14 566.585 501.822   9
  -8   8  13 227.397 407.881   6
   8  -8 -13-147.087 281.165   9
   8  -8 -12 7.79662 203.428   4
  -8   8  12 1055.92 1012.95   6
   8  -8 -12 0.98458 447.158   9
   8  -8 -11 588.074 577.503   4
  -8   8  11 815.195 714.383   6
   8  -8 -11-225.535 295.064   9
  -8   8  10 420.103 435.405   6
   8  -8 -10 384.473 215.956   9
   8  -8  -9 1245.88 768.564   4
  -8   8   9 2004.69 1005.57   6
   8  -8  -9 1476.44 694.724   9
   8  -8  -8 363.093 537.529   4
  -8   8   8 691.434 612.606   6
   8  -8  -8 756.603 471.879   9
   8  -8  -7 387.316 439.539   4
  -8   8   7 541.000 290.862   6
  -8   8   7 83.7380 250.616   3
   8  -8  -7 151.431 162.645   9
   8  -8  -6 508.304 565.835   4
  -8   8   6 280.623 476.700   6
  -8   8   6 229.893 534.087   3
   8  -8  -6 544.723 358.145   9
   8  -8  -5 13794.8 2300.35   4
  -8   8   5 11027.5 2143.19   6
  -8   8   5 12157.4 2014.66   3
   8  -8  -5 13791.3 1586.90   9
  -8   8   5 10934.6 1587.41   2
   8  -8  -4 3617.84 1234.35   4
  -8   8   4 5594.22 1473.69   6
  -8   8   4 3876.58 1227.26   3
  -8   8   4 2979.12 874.080   2
  -8   8   3 272.901 386.314   2
   8  -8  -3 179.975 297.265   4
  -8   8   3 1011.69 602.834   6
  -8   8   3 247.858 203.003   3
   8  -8  -2 242.211 318.691   4
  -8   8   2 383.653 400.794   2
  -8   8   2 686.291 724.052   3
   8  -8  -1-332.709 410.778   4
  -8   8   1 360.521 357.501   2
   8  -8   0 1977.82 745.154   4
  -8   8   0 3015.50 962.535   2
  -8   8  -1-35.0637 513.809   2
   8  -8   1 316.025 235.311   4
  -8   8  -2 310.529 177.954   2
   8  -8   2 1191.83 593.390   4
  -8   8  -3-13.0665 308.961   2
   8  -8   3 191.179 249.747   4
  -8   8  -4 2604.26 895.869   2
  -8   8  -5-262.873 379.303   2
  -8   8  -6 4748.88 1329.61   2
  -8   8  -7 411.243 397.396   2
  -8   8  -8 74.6074 509.343   2
  -8   8  -9 2614.50 1066.01   2
  -8   8 -10-159.669 365.995   2
  -8   8 -11 10.4355 385.429   2
  -8   8 -12 279.397 586.670   2
  -8   8 -13 1290.92 758.460   2
  -8   8 -14-186.156 345.879   2
  -8   8 -15-437.595 490.275   2
  -8   8 -15 145.051 307.924   3
  -8   8 -16 2625.70 1242.38   2
  -8   8 -16 2558.42 1189.12   3
  -8   8 -17 1269.40 827.396   2
  -8   8 -17 424.688 522.666   3
  -8   8 -18 4062.46 1462.74   3
   8  -7 -15-836.001 616.178   9
  -8   7  14 417.232 533.589   6
   8  -7 -14 436.705 752.243   9
   8  -7 -13 530.176 655.850   4
  -8   7  13 1342.99 855.754   6
   8  -7 -13 1062.71 686.852   9
   8  -7 -12 818.125 771.640   4
  -8   7  12-1120.62 793.387   6
   8  -7 -12-157.970 270.039   9
   8  -7 -11 293.274 436.882   4
  -8   7  11 156.075 323.058   6
   8  -7 -11-45.6652 178.974   9
   8  -7 -10 252.161 282.647   4
  -8   7  10 390.510 251.142   6
   8  -7 -10 164.233 300.889   9
   8  -7  -9 2333.86 1018.65   4
  -8   7   9 2015.35 922.023   6
   8  -7  -8 623.552 540.497   4
  -8   7   8-373.973 403.184   6
  -8   7   8-38.7059 267.138   3
   8  -7  -7 320.843 270.612   4
  -8   7   7 30.9525 164.622   3
   8  -7  -6 5865.86 1526.56   4
  -8   7   6 4540.83 1349.13   6
  -8   7   6 5103.45 1293.83   3
  -8   7   6 4967.60 1053.35   2
   8  -7  -5 10276.9 1919.23   4
  -8   7   5 9591.08 1956.96   6
  -8   7   5 10560.1 1840.39   3
  -8   7   5 10851.0 1584.73   2
   8  -7  -4-98.0811 245.697   4
  -8   7   4 385.613 419.181   3
  -8   7   4 416.619 336.764   2
   8  -7  -3 629.273 612.627   4
  -8   7   3 1341.36 710.086   3
  -8   7   3 851.090 547.561   2
  -8   7   2-203.896 310.520   2
  -8   7   2 31.3249 277.071   3
   8  -7  -1 1050.83 455.315   4
  -8   7   1 1192.01 670.262   2
  -8   7   1 1309.89 716.706   3
  -8   7   0 5646.19 1247.38   2
  -8   7   0 8146.98 1689.43   3
   8  -7   0 7073.30 1423.08   4
  -8   7  -1 181.414 238.109   2
   8  -7   1 33.9360 165.454   4
  -8   7  -2 414.567 330.415   2
   8  -7   2 696.997 538.595   4
  -8   7  -3 14399.3 2113.54   2
  -8   7  -4-993.203 579.024   2
  -8   7  -5 354.104 395.832   2
  -8   7  -6 835.581 639.323   2
  -8   7  -7-84.2209 416.200   2
  -8   7  -8 2065.15 878.244   2
  -8   7  -9 931.359 508.017   2
  -8   7 -10 947.435 451.462   2
  -8   7 -11 663.984 423.583   2
  -8   7 -12 2296.35 974.673   2
  -8   7 -12 167.856 492.351   3
  -8   7 -13 606.551 529.399   2
  -8   7 -13-105.705 241.817   3
  -8   7 -14 631.372 630.864   2
  -8   7 -14 398.742 564.141   3
  -8   7 -15 2658.09 1146.01   2
  -8   7 -15 2223.79 1088.00   3
  -8   7 -16-116.095 305.366   2
  -8   7 -16 322.551 282.384   3
  -8   7 -17 1865.99 1083.51   2
  -8   7 -17 4315.08 1497.07   3
  -8   7 -18 183.333 363.310   2
   8  -6 -15-811.178 605.290   9
   8  -6 -14-453.589 530.911   4
  -8   6  14 306.209 701.462   6
   8  -6 -14 560.448 513.247   9
   8  -6 -13-209.743 661.466   4
  -8   6  13 323.200 572.334   6
   8  -6 -12 1629.04 963.459   4
  -8   6  12 1525.35 745.757   6
   8  -6 -11 416.103 512.832   4
  -8   6  11 20.5607 282.333   6
   8  -6 -10 777.548 523.451   4
  -8   6  10 766.096 627.473   6
   8  -6  -9 468.870 342.390   4
  -8   6   9 455.782 252.855   6
   8  -6  -8 1857.51 959.877   4
  -8   6   8 1075.63 704.254   6
  -8   6   8 896.372 422.369   3
  -8   6   8 629.901 264.961   8
   8  -6  -7 2766.65 1064.39   4
  -8   6   7 3538.15 1035.10   3
  -8   6   7 3374.74 859.573   2
   8  -6  -6 6383.19 1572.58   4
  -8   6   6 5049.02 1219.87   3
  -8   6   6 5366.63 1067.74   2
   8  -6  -5-106.066 152.612   4
  -8   6   5-520.918 416.489   3
  -8   6   5-206.652 209.024   2
   8  -6  -4 603.166 477.833   4
  -8   6   4 973.952 570.623   3
  -8   6   4 846.252 410.385   2
   8  -6  -3 1553.25 705.922   4
  -8   6   3 1137.26 578.523   3
  -8   6   3 1730.87 683.584   2
   8  -6  -2 4427.37 1140.18   4
  -8   6   2 4752.15 1251.31   3
  -8   6   2 4072.19 1036.68   2
  -8   6   1 781.021 446.789   2
  -8   6   1 966.326 653.442   3
   8  -6  -1 986.066 521.570   4
  -8   6   0 12467.8 2049.18   3
  -8   6   0 11714.4 1878.01   2
   8  -6   0 12606.2 1880.18   4
  -8   6  -1 2858.92 913.483   2
  -8   6  -1 3415.07 1083.46   3
   8  -6   1 2048.21 763.044   4
  -8   6  -2 9286.01 1668.75   2
  -8   6  -2 11661.3 2046.66   3
  -8   6  -3 4387.13 1205.97   2
  -8   6  -3 4894.31 1330.08   3
  -8   6  -4 3292.03 1056.93   2
  -8   6  -4 5877.77 1508.75   3
  -8   6  -5 2131.89 904.774   2
  -8   6  -5 3202.66 1124.69   3
  -8   6  -6 732.904 404.057   2
  -8   6  -6 1330.72 847.535   3
  -8   6  -7 2142.06 862.950   2
  -8   6  -7 1405.09 804.183   3
  -8   6  -8 3149.43 1141.92   2
  -8   6  -8 2417.83 1009.61   3
  -8   6  -9-220.841 278.837   2
  -8   6  -9-489.805 433.514   3
  -8   6 -10 640.574 277.658   2
  -8   6 -10 1737.17 812.193   3
  -8   6 -11 3213.76 1157.32   2
  -8   6 -11 1641.22 856.974   3
  -8   6 -12-292.736 537.446   2
  -8   6 -12 229.962 491.686   3
  -8   6 -13 689.201 590.991   2
  -8   6 -13 162.417 374.214   3
  -8   6 -14 676.977 511.636   2
  -8   6 -14-248.177 504.828   3
  -8   6 -15 218.083 324.939   2
  -8   6 -15 539.766 657.490   3
  -8   6 -16 658.317 580.114   2
  -8   6 -16 2926.59 1176.01   3
  -8   6 -17 292.782 417.510   2
  -8   6 -17 425.572 488.761   3
  -8   6 -18 200.058 417.309   2
   8  -5 -16 646.962 712.019   9
   8  -5 -15 446.685 569.351   4
   8  -5 -14 2077.28 1031.56   4
   8  -5 -13 1014.89 649.008   4
   8  -5 -12 1654.01 919.280   4
   8  -5 -11-327.863 549.010   4
   8  -5 -10 1885.41 957.310   4
   8  -5  -9 3565.40 1267.73   4
  -8   5   9 2095.37 682.920   8
   8  -5  -8 3019.73 1088.24   4
  -8   5   8 3899.42 982.916   8
   8  -5  -7 5368.42 1448.16   4
  -8   5   7 3194.84 962.026   3
   8  -5  -6-79.4505 264.887   4
  -8   5   6 789.165 468.908   3
  -8   5   6 469.151 351.572   2
   8  -5  -5 416.101 492.528   4
  -8   5   5 58.7172 216.855   3
  -8   5   5 155.158 302.894   2
   8  -5  -4-104.458 208.008   4
  -8   5   4-221.786 291.747   3
  -8   5   4 185.772 324.167   2
   8  -5  -3 4860.53 1237.90   4
  -8   5   3 3741.14 1102.87   3
  -8   5   3 5147.98 1142.41   2
  -8   5   2-85.2343 329.764   3
  -8   5   2 2.87089 177.227   2
   8  -5  -2-219.005 342.356   4
  -8   5   1 1682.54 743.787   3
   8  -5  -1 2160.18 770.394   4
  -8   5   1 2799.86 850.264   2
  -8   5   0 9982.07 1728.13   2
  -8   5   0 9161.52 1722.11   3
   8  -5   0 8620.57 1533.33   4
  -8   5  -1 5237.06 1337.40   2
  -8   5  -1 4014.37 1183.55   3
   8  -5   1 5123.58 1150.50   4
  -8   5  -2 9866.66 1739.77   2
  -8   5  -2 12314.0 2065.78   3
  -8   5  -3 265.383 492.633   2
  -8   5  -3 397.716 387.742   3
  -8   5  -4 5917.48 1368.01   2
  -8   5  -4 5595.09 1461.98   3
  -8   5  -5 440.039 240.762   2
  -8   5  -5 898.091 582.686   3
  -8   5  -6 2478.96 945.399   2
  -8   5  -6 2411.76 995.927   3
  -8   5  -7 244.137 403.162   2
  -8   5  -7 69.6895 216.178   3
  -8   5  -8 791.197 452.175   2
  -8   5  -8 34.0018 287.320   3
  -8   5  -9 383.427 368.516   2
  -8   5  -9 451.533 484.803   3
  -8   5 -10 2792.74 932.013   2
  -8   5 -10 2170.44 982.073   3
  -8   5 -11 1801.14 842.521   2
  -8   5 -11 1084.02 622.517   3
  -8   5 -12 617.080 694.394   2
  -8   5 -12 239.311 195.043   3
  -8   5 -13-104.639 404.107   2
  -8   5 -13 89.0188 215.761   3
  -8   5 -14-92.7525 322.514   2
  -8   5 -14 475.849 515.964   3
  -8   5 -15 2535.17 1055.93   2
  -8   5 -15 1432.15 879.282   3
  -8   5 -16-149.364 439.388   2
  -8   5 -16 345.103 555.006   3
  -8   5 -17 1033.89 700.446   2
  -8   5 -18-678.091 610.776   2
  -8   5 -19-112.226 291.345   2
   8  -4 -15 2941.19 1297.93   4
   8  -4 -14 160.107 321.663   4
   8  -4 -13 4017.27 1389.77   4
   8  -4 -12 521.952 661.802   4
   8  -4 -11 2099.85 987.387   4
   8  -4 -10 4161.44 1456.02   4
   8  -4  -9 956.959 609.069   4
  -8   4   9 1035.39 554.857   8
   8  -4  -8 15.2300 388.280   4
  -8   4   8 475.449 321.910   8
   8  -4  -7 2432.08 1002.74   4
  -8   4   7 2428.35 812.606   8
   8  -4  -6-188.549 406.072   4
  -8   4   6-122.044 438.978   3
  -8   4   6-240.712 280.814   2
   8  -4  -5 115.851 305.789   4
  -8   4   5-70.0172 291.333   3
  -8   4   5 80.1898 286.905   2
  -8   4   4 166.852 159.445   3
  -8   4   4 782.875 476.883   2
   8  -4  -4 1202.54 672.167   4
  -8   4   3 26.5709 244.564   3
  -8   4   3 24.3230 219.505   2
   8  -4  -3 162.047 148.646   4
  -8   4   2 457.897 438.166   3
  -8   4   2 340.045 374.485   2
   8  -4  -2 219.662 271.087   4
  -8   4   1 1538.88 693.838   3
   8  -4  -1 1422.03 623.840   4
  -8   4   1 859.501 520.459   2
  -8   4   0 879.491 568.670   3
   8  -4   0 1017.34 553.766   4
  -8   4   0 1500.74 705.433   2
  -8   4  -1 11538.8 1808.58   2
  -8   4  -1 11412.1 1938.22   3
  -8   4  -2-362.512 478.521   2
  -8   4  -2 243.126 507.385   3
  -8   4  -3 766.295 536.013   2
  -8   4  -3 1174.93 592.365   3
  -8   4  -4 1943.62 928.029   2
  -8   4  -4 1613.32 750.510   3
  -8   4  -5 5518.84 1360.81   2
  -8   4  -5 6733.32 1565.07   3
  -8   4  -6 2491.05 1044.38   2
  -8   4  -6 1082.07 630.747   3
  -8   4  -7 200.496 413.077   2
  -8   4  -7-123.194 382.841   3
  -8   4  -8 279.072 464.435   2
  -8   4  -8 254.196 456.951   3
  -8   4  -9 2789.31 949.956   2
  -8   4  -9 2362.35 987.293   3
  -8   4 -10 2185.48 965.038   2
  -8   4 -10 2833.93 1094.40   3
  -8   4 -11 575.567 531.812   2
  -8   4 -11 1223.97 757.731   3
  -8   4 -12 4175.81 1392.74   2
  -8   4 -12 2111.20 936.323   3
  -8   4 -13 948.050 638.801   2
  -8   4 -13-201.852 708.760   3
  -8   4 -14 1681.72 832.787   2
  -8   4 -14 1180.87 733.457   3
  -8   4 -15 112.054 283.332   2
  -8   4 -15 150.756 393.497   3
  -8   4 -16 1118.70 782.136   2
  -8   4 -16 690.087 575.331   3
  -8   4 -17 575.003 599.489   2
  -8   4 -18 530.703 550.817   2
   8  -3 -16-83.7184 576.601   4
   8  -3 -15 758.289 570.366   4
   8  -3 -14 6728.20 1854.06   4
   8  -3 -13 1691.87 907.384   4
   8  -3 -12-224.598 448.818   4
   8  -3 -11-104.097 518.228   4
   8  -3 -10 304.432 351.569   4
  -8   3  10 189.181 354.667   8
   8  -3  -9-101.483 374.560   4
  -8   3   9 88.1330 257.229   8
   8  -3  -8 1124.61 728.581   4
  -8   3   8 2563.19 795.081   8
   8  -3  -7 754.856 459.304   4
  -8   3   7 754.663 455.435   8
   8  -3  -6 913.870 487.625   4
  -8   3   5 26.4895 141.416   3
  -8   3   5 207.109 317.944   2
   8  -3  -5 83.6552 148.695   4
  -8   3   4 965.806 443.834   3
  -8   3   4 392.201 183.803   2
   8  -3  -4 1367.14 695.872   4
  -8   3   3 5266.51 1267.72   3
  -8   3   3 2398.54 806.475   2
   8  -3  -3 4242.83 1119.97   4
  -8   3   2-250.946 374.168   3
  -8   3   2 204.649 363.220   2
   8  -3  -2 54.8711 297.524   4
  -8   3   1 795.199 484.143   3
   8  -3  -1 1035.32 555.357   4
  -8   3   1 1493.64 626.041   2
  -8   3   0 5800.29 1345.79   3
  -8   3   0 6306.68 1316.17   2
  -8   3  -1 1229.75 699.172   3
  -8   3  -1 976.979 595.315   2
  -8   3  -2 1310.14 651.171   3
  -8   3  -2 1945.17 789.555   2
  -8   3  -3 121.873 288.876   2
  -8   3  -3-199.577 420.900   3
  -8   3  -4 308.900 530.355   2
  -8   3  -4-285.044 433.514   3
  -8   3  -5 4459.79 1232.47   2
  -8   3  -5 3496.09 1067.62   3
  -8   3  -6 7003.41 1556.11   2
  -8   3  -6 8819.04 1802.07   3
  -8   3  -7 2621.52 1084.46   2
  -8   3  -7 3198.77 1008.50   3
  -8   3  -8 5949.67 1438.60   2
  -8   3  -8 2644.46 1055.80   3
  -8   3  -9 4281.68 1249.35   2
  -8   3  -9 3698.15 1265.86   3
  -8   3 -10 409.524 301.324   2
  -8   3 -10 805.343 570.694   3
  -8   3 -11 231.986 205.401   2
  -8   3 -11 290.922 381.617   3
  -8   3 -12 947.901 697.402   2
  -8   3 -12 1042.12 620.102   3
  -8   3 -13 2143.19 925.397   2
  -8   3 -13 632.256 661.645   3
  -8   3 -14 289.227 470.310   2
  -8   3 -14 496.088 755.406   3
  -8   3 -15-110.468 282.918   2
  -8   3 -15 109.908 561.761   3
  -8   3 -16-700.840 592.917   2
  -8   3 -17 174.203 416.551   2
  -8   3 -18-455.191 512.553   2
   8  -2 -17 1743.40 1031.79   4
   8  -2 -16 885.589 738.861   4
   8  -2 -15 2304.30 1112.60   4
   8  -2 -14 1638.71 1111.75   4
   8  -2 -13-42.8095 358.837   4
   8  -2 -12 1189.98 733.795   4
   8  -2 -11 9.64580 260.243   4
  -8   2  11 537.626 356.098   8
   8  -2 -10-362.996 468.658   4
  -8   2  10-72.0452 137.833   8
   8  -2  -9 3604.49 1192.90   4
  -8   2   9 3057.06 853.449   8
  -8   2   8 981.693 501.323   8
   8  -2  -8 1825.45 844.402   4
  -8   2   7 240.105 265.053   8
   8  -2  -7 37.5217 168.845   4
  -8   2   6 215.539 178.541   8
   8  -2  -6 254.601 180.084   4
  -8   2   5 584.149 416.391   2
   8  -2  -5-117.345 330.735   4
  -8   2   4 6975.46 1339.46   2
   8  -2  -4 4418.52 1172.36   4
  -8   2   3 5400.99 1318.75   3
  -8   2   3 4800.23 1109.32   2
   8  -2  -3 5260.30 1260.00   4
  -8   2   2 376.514 345.948   3
  -8   2   2-91.1739 363.903   2
  -8   2   1 4564.39 1182.07   3
  -8   2   1 4474.22 1127.30   2
  -8   2   0 856.759 504.685   3
  -8   2   0 55.2365 456.883   2
  -8   2  -1-132.953 236.519   3
  -8   2  -1-894.016 524.009   2
  -8   2  -2 545.343 450.925   3
  -8   2  -2 149.176 334.754   2
  -8   2  -3 725.876 592.364   3
  -8   2  -3 484.587 547.965   2
  -8   2  -4 144.039 243.036   3
  -8   2  -4 306.600 267.160   2
  -8   2  -5 417.688 229.208   2
  -8   2  -5-352.348 511.334   3
  -8   2  -6 1675.64 721.049   2
  -8   2  -6 1295.73 666.806   3
  -8   2  -7 893.485 604.564   2
  -8   2  -7 2182.02 933.461   3
  -8   2  -8 4869.61 1313.15   2
  -8   2  -8 6073.90 1506.40   3
  -8   2  -9 1433.67 880.019   2
  -8   2  -9 377.210 488.713   3
  -8   2 -10 913.563 569.543   2
  -8   2 -10 2649.15 1029.17   3
  -8   2 -11-564.901 492.717   2
  -8   2 -11-267.444 341.683   3
  -8   2 -12 5.65031 512.669   2
  -8   2 -12-385.668 418.430   3
  -8   2 -13 745.824 632.914   2
  -8   2 -13-724.560 562.571   3
  -8   2 -14 361.417 447.456   2
  -8   2 -14 654.010 564.540   3
  -8   2 -15 377.871 440.110   2
  -8   2 -16-966.625 687.152   2
  -8   2 -17 920.895 720.135   2
  -8   2 -18 155.698 291.640   2
   8  -1 -17 413.396 412.132   4
   8  -1 -16 2925.18 1370.57   4
   8  -1 -15 79.3697 276.333   4
   8  -1 -14 516.208 389.321   4
   8  -1 -13 140.920 235.175   4
   8  -1 -12 121.736 612.806   4
  -8   1  12 128.500 271.312   8
   8  -1 -11-235.278 218.567   4
  -8   1  11-188.430 181.071   8
  -8   1  10 8519.06 1456.47   8
   8  -1 -10 8695.10 1899.38   4
  -8   1   9 263.842 305.427   8
   8  -1  -9-134.902 377.451   4
  -8   1   8 837.307 433.365   8
   8  -1  -8 218.205 274.494   4
  -8   1   7-167.891 291.974   8
   8  -1  -7-348.181 371.118   4
  -8   1   6 1789.17 678.300   8
   8  -1  -6 2388.38 874.010   4
   8  -1  -5 115.424 363.037   4
  -8   1   5 453.448 348.647   8
  -8   1   4 12769.8 1858.56   2
   8  -1  -4 14421.3 2109.31   4
  -8   1   3 312.980 194.975   2
  -8   1   2 1309.34 539.033   2
  -8   1   1 2035.74 772.178   3
  -8   1   1 3030.12 973.468   2
  -8   1   0 109.247 232.547   3
  -8   1   0-231.900 288.962   2
  -8   1  -1 56.3047 400.094   3
  -8   1  -1 211.516 368.503   2
  -8   1  -2-182.489 199.573   3
  -8   1  -2-554.328 431.448   2
  -8   1  -3-170.916 313.280   3
  -8   1  -3 263.625 252.407   2
  -8   1  -4 2409.69 971.153   3
  -8   1  -4 1329.49 668.665   2
  -8   1  -5 3401.64 1116.07   3
  -8   1  -5 2279.60 814.647   2
  -8   1  -6 5540.79 1433.58   3
  -8   1  -6 4868.98 1274.21   2
  -8   1  -7 3217.27 1089.15   3
  -8   1  -7 5015.92 1312.89   2
  -8   1  -8 889.397 610.094   3
  -8   1  -8 709.872 513.713   2
  -8   1  -9 86.1831 361.739   3
  -8   1  -9-25.3453 281.244   2
  -8   1 -10 708.699 640.452   3
  -8   1 -10-18.8829 278.148   2
  -8   1 -11 1445.80 867.983   3
  -8   1 -11 1168.81 667.866   2
  -8   1 -12 145.992 435.134   2
  -8   1 -13 420.573 529.486   2
  -8   1 -14 56.4320 274.715   2
  -8   1 -15 212.533 332.095   7
  -8   1 -15-204.496 337.769   2
  -8   1 -16 1152.28 749.540   7
  -8   1 -16 1217.17 768.017   2
  -8   1 -17 52.6358 186.587   2
   8   0 -18 527.609 521.398   4
   8   0 -17-143.559 469.041   4
   8   0 -16 305.967 605.855   4
   8   0 -15 131.443 503.106   4
   8   0 -14 415.664 646.293   4
  -8   0  13 270.629 264.616   8
   8   0 -13 212.513 261.621   4
  -8   0  12 1150.64 493.225   8
   8   0 -12 2376.02 1022.44   4
  -8   0  11 1747.92 616.462   8
   8   0 -11 2185.78 1081.28   4
  -8   0  10 904.304 424.381   8
   8   0 -10 988.488 625.094   4
  -8   0   9 2819.98 893.481   8
   8   0  -9 3065.78 1125.08   4
  -8   0   8 462.255 338.896   8
   8   0  -8 452.928 286.546   4
  -8   0   7 2646.43 842.736   8
   8   0  -7 2775.50 961.052   4
   8   0  -6 802.190 568.335   4
  -8   0   6 179.200 199.032   8
  -8   0   5 13014.4 1890.77   8
   8   0  -5 12888.9 2041.85   4
  -8   0   4-509.533 434.467   8
  -8   0   3 4960.10 1240.49   2
  -8   0   2 658.814 508.138   2
  -8   0   1 2704.11 847.027   2
  -8   0   0 834.342 529.334   2
  -8   0  -1 2601.70 822.345   2
  -8   0  -2 543.782 599.285   2
  -8   0  -3 332.210 441.273   2
  -8   0  -4 3224.32 1029.47   2
  -8   0  -5 1158.74 598.792   2
  -8   0  -6 11362.3 1980.64   2
  -8   0  -7-352.251 652.000   2
  -8   0  -8 697.329 607.891   2
  -8   0  -9 1080.02 615.569   2
  -8   0 -10 1267.38 724.998   2
  -8   0 -11 557.178 456.859   2
  -8   0 -12-328.584 430.690   2
  -8   0 -13 271.236 575.437   7
  -8   0 -13 982.155 574.439   2
  -8   0 -14-348.747 397.993   7
  -8   0 -14 102.369 262.321   2
  -8   0 -15 959.309 648.642   7
  -8   0 -15 945.330 655.597   2
  -8   0 -16-157.516 307.094   7
  -8   0 -16-491.596 496.336   2
   8   1 -18-4.79853 247.728   4
   8   1 -17 1322.93 866.843   4
   8   1 -16-309.346 549.389   4
   8   1 -15-251.849 531.838   4
  -8  -1  14-10.9511 104.495   8
   8   1 -14 35.5953 506.532   4
  -8  -1  13 90.8113 167.870   8
   8   1 -13 671.097 701.195   4
  -8  -1  12 968.024 472.690   8
   8   1 -12 683.468 485.760   4
  -8  -1  11 8837.76 1513.40   8
   8   1 -11 8552.57 1887.62   4
  -8  -1  10 36.1575 210.156   8
   8   1 -10 1634.92 887.032   4
  -8  -1   9 430.287 410.516   8
   8   1  -9 20.9263 462.811   4
  -8  -1   8 1992.14 709.481   8
   8   1  -8 1451.08 694.600   4
   8   1  -7 1111.88 756.790   4
  -8  -1   7 976.853 577.171   8
  -8  -1   6 13470.1 1929.11   8
  -8  -1   5 796.138 442.217   8
  -8  -1   4 7418.92 1452.18   8
  -8  -1   3 7730.95 1556.28   8
  -8  -1   2 698.594 521.130   2
  -8  -1   1 1428.54 714.583   2
  -8  -1   0 4528.14 1213.70   2
  -8  -1  -1 3236.22 952.462   2
  -8  -1  -2-113.705 410.841   2
  -8  -1  -3 3780.15 1157.12   2
  -8  -1  -4 13900.1 2135.89   2
  -8  -1  -5 18852.8 2482.07   2
  -8  -1  -6-244.046 270.175   2
  -8  -1  -7 343.156 461.551   2
  -8  -1  -8 1165.71 613.080   2
  -8  -1  -9 1041.52 654.464   2
  -8  -1 -10 156.232 217.830   2
  -8  -1 -11 575.141 268.803   2
  -8  -1 -12-25.0957 223.445   7
  -8  -1 -12 444.674 504.236   2
  -8  -1 -13-813.985 575.015   7
  -8  -1 -13-684.202 548.351   2
  -8  -1 -14 701.966 734.709   7
  -8  -1 -14 1754.80 878.792   2
  -8  -1 -15 1.23325 281.507   7
  -8  -1 -15-74.0750 244.161   2
  -8  -1 -16 279.088 513.923   7
   8   2 -18 128.366 578.650   4
   8   2 -17 700.736 641.023   4
   8   2 -16-366.517 683.851   4
   8   2 -15-432.791 715.391   4
  -8  -2  14 168.953 262.727   8
   8   2 -14 374.278 566.490   4
  -8  -2  13-38.9897 289.001   8
   8   2 -13 319.008 420.649   4
  -8  -2  12 652.032 255.042   8
   8   2 -12 655.726 393.485   4
  -8  -2  11 2350.82 797.286   8
   8   2 -11 1768.21 892.828   4
  -8  -2  10 23923.7 2581.13   8
   8   2 -10 24774.7 3146.70   4
  -8  -2   9 6616.01 1383.51   8
   8   2  -9 6269.69 1574.28   4
  -8  -2   8 5888.68 1273.15   8
  -8  -2   7 4187.75 1079.04   8
  -8  -2   6 8545.07 1585.66   8
  -8  -2   5 960.694 624.113   8
  -8  -2   4 8839.38 1611.29   8
  -8  -2   3 494.736 515.785   8
  -8  -2   2 846.288 486.422   8
  -8  -2   1-106.526 358.760   8
  -8  -2   0 5445.52 1292.22   2
  -8  -2  -1 1651.07 894.308   2
  -8  -2  -2 5110.93 1272.47   2
  -8  -2  -3 1023.90 676.377   2
  -8  -2  -4 4029.11 1081.92   2
  -8  -2  -5-263.724 639.513   2
  -8  -2  -6 446.517 384.275   2
  -8  -2  -7 1006.66 655.916   2
  -8  -2  -8 1464.84 743.317   2
  -8  -2  -9 697.174 331.171   2
  -8  -2 -10 970.628 769.068   2
  -8  -2 -11 521.012 507.402   7
  -8  -2 -11 787.693 482.109   2
   8   2  12-57.7558 146.319   6
  -8  -2 -12-16.7591 188.680   2
  -8  -2 -13 304.292 361.241   7
  -8  -2 -13 613.974 685.511   2
  -8  -2 -14 663.908 661.709   7
  -8  -2 -14 64.7573 182.610   2
  -8  -2 -15 73.0984 253.655   7
  -8  -2 -16-523.667 533.309   7
   8   3 -19 1248.19 876.119   4
   8   3 -18 758.276 523.073   4
   8   3 -17 3014.87 1378.95   4
   8   3 -16 681.135 522.546   4
  -8  -3  15 821.957 481.660   8
   8   3 -15 1025.39 675.483   4
  -8  -3  14-128.132 206.383   8
   8   3 -14 436.527 195.145   4
  -8  -3  13 89.0138 198.851   8
   8   3 -13 533.051 522.881   4
  -8  -3  12 964.038 476.697   8
   8   3 -12 976.556 662.707   4
  -8  -3  11 8870.44 1597.98   8
   8   3 -11 6686.26 1675.37   4
  -8  -3  10 2866.84 871.851   8
  -8  -3   9 907.904 541.338   8
  -8  -3   8-52.1489 269.123   8
  -8  -3   7 377.915 446.125   8
  -8  -3   6 387.211 453.673   8
  -8  -3   5 4810.58 1193.13   8
  -8  -3   4 119.431 219.899   8
  -8  -3   3-108.280 511.245   8
  -8  -3   2-291.759 207.863   8
  -8  -3   1 1714.64 786.121   8
  -8  -3   0 203.348 258.192   8
  -8  -3  -1 1897.76 687.192   8
  -8  -3  -2 3921.04 1141.93   2
  -8  -3  -2 4235.29 1287.49   8
  -8  -3  -3 2765.51 873.152   2
  -8  -3  -4-33.1837 415.124   2
  -8  -3  -5 20.7141 258.203   2
  -8  -3  -6 1458.18 709.492   2
  -8  -3  -7 62.1597 164.144   2
  -8  -3  -8 724.099 456.134   2
  -8  -3  -9 284.265 390.640   2
  -8  -3 -10 1810.40 787.600   7
  -8  -3 -10 691.951 391.044   2
  -8  -3 -11 467.219 403.321   7
   8   3  11-290.845 291.759   6
  -8  -3 -11 96.1414 329.394   2
  -8  -3 -12 884.958 650.209   7
   8   3  12 156.835 223.994   6
  -8  -3 -12-3.36087 335.732   2
  -8  -3 -13 125.781 211.841   7
   8   3  13 116.814 124.771   6
  -8  -3 -13 105.579 266.497   2
  -8  -3 -14 1487.50 784.537   7
  -8  -3 -14 1912.73 931.340   2
  -8  -3 -15 350.939 687.664   7
   8   4 -19 535.246 833.963   4
   8   4 -18 1933.93 1179.68   4
   8   4 -17 390.971 489.709   4
  -8  -4  16 267.701 208.478   8
   8   4 -16 1703.13 1030.05   4
  -8  -4  15 937.531 562.236   8
   8   4 -15 615.125 472.202   4
  -8  -4  14 2175.14 786.299   8
  -8  -4  13-1.61935 247.492   8
  -8  -4  12 415.324 370.928   8
  -8  -4  11 1804.07 782.320   8
  -8  -4  10 1808.13 686.129   8
  -8  -4   9 1710.27 760.091   8
  -8  -4   8 276.927 315.542   8
  -8  -4   7 792.320 601.790   8
  -8  -4   6 2800.40 1009.43   8
  -8  -4   5 237.019 329.425   8
  -8  -4   4 2054.50 886.441   8
  -8  -4   3 1202.00 683.058   8
  -8  -4   2 2409.47 907.005   8
  -8  -4   1 3338.40 1094.36   8
  -8  -4   0 2546.79 938.140   8
  -8  -4  -1-286.221 305.076   8
  -8  -4  -2-211.408 305.206   8
  -8  -4  -3 956.756 609.513   8
  -8  -4  -4 8402.75 1670.59   8
  -8  -4  -5 118.992 397.321   2
  -8  -4  -5 199.746 252.409   8
  -8  -4  -6 1580.34 723.581   2
  -8  -4  -6 4602.25 1275.45   8
  -8  -4  -7 2716.31 1040.85   2
  -8  -4  -7 1832.01 759.279   8
  -8  -4  -8 2670.80 1038.25   2
  -8  -4  -8 1273.08 564.610   8
  -8  -4  -9 2636.57 884.582   7
  -8  -4  -9 1836.26 793.148   2
  -8  -4  -9 1028.19 510.603   8
  -8  -4 -10 202.627 275.700   7
  -8  -4 -10 1037.27 652.266   2
  -8  -4 -10 1790.44 805.663   8
  -8  -4 -11 158.368 437.155   7
  -8  -4 -11 284.046 342.481   2
   8   4  11 616.538 451.448   6
  -8  -4 -11 144.934 168.623   5
  -8  -4 -11 1050.02 600.652   8
  -8  -4 -12 563.302 442.103   7
  -8  -4 -12 72.3270 227.043   2
   8   4  12 223.467 390.882   6
  -8  -4 -12-646.559 585.487   5
  -8  -4 -13 2015.33 932.819   7
  -8  -4 -13 1252.66 729.387   2
   8   4  13 876.273 536.827   6
  -8  -4 -13 1277.43 785.912   5
  -8  -4 -14-388.803 423.609   7
  -8  -5  17 1024.11 491.016   8
  -8  -5  16-322.392 327.973   8
  -8  -5  15 1683.57 765.062   8
  -8  -5  14 881.441 504.206   8
  -8  -5  13-238.577 320.916   8
  -8  -5  12 212.688 317.629   8
  -8  -5  11 1046.90 576.951   8
  -8  -5  10-56.0475 466.839   8
  -8  -5   9 627.713 419.964   8
  -8  -5   8 141.259 335.630   8
  -8  -5   7-308.269 315.040   8
  -8  -5   6 1752.64 881.792   8
  -8  -5   5 3679.18 1088.60   8
  -8  -5   4 1326.19 687.462   8
  -8  -5   3 7345.91 1553.46   8
  -8  -5   2 1603.02 757.326   8
  -8  -5   1 1818.35 766.071   8
  -8  -5   0 2363.77 903.958   8
  -8  -5  -1 1186.07 496.876   8
  -8  -5  -2 646.975 516.676   8
  -8  -5  -3 8024.04 1646.28   8
  -8  -5  -4 1843.52 797.853   8
  -8  -5  -5 480.427 313.579   8
  -8  -5  -6 6505.87 1461.46   8
  -8  -5  -7 768.315 520.879   5
  -8  -5  -7 326.692 535.802   8
  -8  -5  -8 4691.25 1134.41   7
  -8  -5  -8 4641.75 1413.61   5
  -8  -5  -8 5573.27 1410.29   8
  -8  -5  -9 73.3928 139.686   7
  -8  -5  -9-448.031 259.217   5
  -8  -5  -9 335.831 417.928   8
  -8  -5 -10 3078.48 1009.28   7
   8   5  10 1853.65 704.730   6
  -8  -5 -10 2314.07 1105.39   5
  -8  -5 -10 2903.06 1045.14   8
   8   5  11 262.713 353.368   6
  -8  -5 -11 829.672 650.440   5
   8   5  12 400.950 373.444   6
  -8  -5 -12 1292.72 853.210   5
   8   5  13 259.313 310.393   6
  -8  -6  17 445.563 519.260   8
  -8  -6  16-0.89857 298.327   8
  -8  -6  15 1186.28 649.228   8
  -8  -6  14-15.1184 196.648   8
  -8  -6  13 244.478 154.456   8
  -8  -6  12 1919.62 810.257   8
  -8  -6  11 3905.71 1081.70   8
  -8  -6  10-25.5690 159.245   8
  -8  -6   9 432.541 357.654   8
  -8  -6   8 1498.58 671.333   8
  -8  -6   7 7234.93 1557.16   8
  -8  -6   6 2654.94 926.946   8
  -8  -6   5 589.531 608.533   8
  -8  -6   4 5708.56 1341.52   8
  -8  -6   3-75.1885 334.657   8
  -8  -6   2 10689.7 1880.59   8
  -8  -6   1 554.305 576.809   8
  -8  -6   0 195.290 498.593   8
  -8  -6  -1 1269.35 595.974   8
  -8  -6  -2-11.9322 280.487   8
  -8  -6  -3 1531.51 764.654   8
  -8  -6  -4 3610.08 1179.57   8
  -8  -6  -5 5502.49 1482.56   5
  -8  -6  -5 6025.55 1418.95   8
  -8  -6  -6 633.970 537.528   5
  -8  -6  -6 140.239 240.475   8
  -8  -6  -7 3255.64 1240.15   5
  -8  -6  -7 4057.34 1147.14   8
  -8  -6  -8 718.708 653.440   5
  -8  -6  -8-967.774 587.139   8
   8   6   9 1528.15 674.777   6
  -8  -6  -9 847.147 638.821   5
  -8  -6  -9 1780.76 778.873   8
   8   6  10-548.502 422.223   6
  -8  -6 -10-404.241 369.180   5
   8   6  11 57.2807 167.327   6
  -8  -6 -11 581.647 747.439   5
   8   6  12 382.260 389.288   6
   8   6  13 690.609 618.119   6
  -8  -7  18 1092.29 666.112   8
  -8  -7  17-122.966 241.976   8
  -8  -7  16 672.529 544.968   8
  -8  -7  15-163.675 268.126   8
  -8  -7  14-388.477 377.491   8
  -8  -7  13 1636.34 741.751   8
  -8  -7  12 6908.86 1563.52   8
  -8  -7  11 231.564 324.855   8
  -8  -7  10 1745.32 779.449   8
  -8  -7   9-210.868 470.663   8
  -8  -7   8 10172.9 1799.44   8
  -8  -7   7 1127.78 609.445   8
  -8  -7   6 20.0529 355.772   8
  -8  -7   5 2700.59 952.623   8
  -8  -7   4-187.137 355.379   8
  -8  -7   3 3556.29 1136.29   8
  -8  -7   2 317.419 278.107   8
  -8  -7   1 121.067 339.353   8
  -8  -7   0 7056.71 1543.27   8
  -8  -7  -1 1240.17 661.729   8
  -8  -7  -2 2070.00 813.989   8
  -8  -7  -3 2012.71 890.767   5
  -8  -7  -3 3977.68 1158.16   8
  -8  -7  -4 3605.33 1155.48   5
  -8  -7  -4 2955.85 979.741   8
  -8  -7  -5 385.769 559.374   5
  -8  -7  -5 395.316 404.039   8
  -8  -7  -6 4713.73 1460.54   5
  -8  -7  -6 5339.73 1375.94   8
  -8  -7  -7-53.9803 227.317   5
  -8  -7  -7 216.174 462.066   8
  -8  -7  -8 530.546 519.327   5
  -8  -7  -8 3.85616 139.994   8
   8   7   9-426.091 383.195   6
  -8  -7  -9-171.207 289.280   5
  -8  -7  -9 117.514 262.850   8
   8   7  10 375.640 366.325   6
  -8  -7 -10 422.586 494.691   5
   8   7  11-307.943 342.550   6
   8   7  12 111.846 176.655   6
   8   7  13 915.762 632.361   6
  -8  -8  19 656.945 458.107   8
  -8  -8  18-673.753 508.434   8
  -8  -8  17 260.231 280.514   8
  -8  -8  16 747.593 573.511   8
  -8  -8  15 1988.19 848.899   8
  -8  -8  14 323.036 404.392   8
  -8  -8  13 340.562 514.442   8
  -8  -8  12 98.1906 180.995   8
  -8  -8  11 2280.45 830.613   8
  -8  -8  10 456.471 523.437   8
  -8  -8   9 2886.65 1024.83   8
  -8  -8   8 6516.70 1502.76   8
  -8  -8   7 886.256 604.721   8
  -8  -8   6 2588.86 972.291   8
  -8  -8   5 397.298 405.410   8
  -8  -8   4 4366.06 1215.64   8
  -8  -8   3 626.771 515.147   8
  -8  -8   2-221.709 324.007   8
  -8  -8   1 1415.18 756.864   8
  -8  -8   0 3727.50 1167.01   8
  -8  -8  -1 1448.25 698.589   8
  -8  -8  -2 223.902 363.321   5
  -8  -8  -2 1731.80 759.223   8
  -8  -8  -3 6672.37 1667.99   5
  -8  -8  -3 7561.99 1615.43   8
  -8  -8  -4-17.2226 241.809   5
  -8  -8  -4 122.238 401.836   8
  -8  -8  -5 114.200 141.489   5
  -8  -8  -5 668.865 455.317   8
  -8  -8  -6-289.748 461.739   5
  -8  -8  -6-30.8764 190.015   8
  -8  -8  -7 64.7282 307.518   5
  -8  -8  -7-467.211 417.087   8
   8   8   8 705.573 499.252   6
  -8  -8  -8 713.378 665.247   5
  -8  -8  -8-619.149 477.389   8
   8   8   9 1502.83 762.576   6
  -8  -8  -9 979.899 729.002   5
   8   8  10-421.037 403.174   6
   8   8  11 475.768 383.329   6
   8   8  12 1862.51 871.918   6
  -8  -9  19-13.1450 150.567   8
  -8  -9  18 777.865 714.167   8
  -8  -9  17 742.787 618.767   8
  -8  -9  16-487.436 449.276   8
  -8  -9  15 112.937 297.979   8
  -8  -9  14 169.479 250.463   8
  -8  -9  13-6.07231 340.884   8
  -8  -9  12-47.0848 215.377   8
  -8  -9  11-152.302 211.719   8
  -8  -9  10 1592.17 838.301   8
  -8  -9   9 9714.10 1878.00   8
  -8  -9   8 62.6502 149.895   8
  -8  -9   7 539.928 288.172   8
  -8  -9   6 2152.84 899.537   8
  -8  -9   5-48.5494 420.176   8
  -8  -9   4 209.657 258.884   8
  -8  -9   3-75.9938 348.334   8
  -8  -9   2-182.638 434.259   8
  -8  -9   1 311.348 440.493   8
  -8  -9   0 2144.95 837.966   8
  -8  -9  -1 1070.85 668.543   8
  -8  -9  -1 698.165 587.752   5
  -8  -9  -2 1932.60 833.225   5
  -8  -9  -2 2200.98 913.614   8
  -8  -9  -3 852.194 581.870   5
  -8  -9  -3 724.036 516.616   8
  -8  -9  -4 220.038 262.905   5
  -8  -9  -4 104.534 448.306   8
  -8  -9  -5 480.177 246.510   5
  -8  -9  -5 383.324 253.517   8
  -8  -9  -6-308.026 416.360   5
  -8  -9  -6-325.039 362.763   8
   8   9   7-89.1472 372.400   6
  -8  -9  -7 451.004 486.166   5
  -8  -9  -7-82.8703 210.474   8
   8   9   8 540.478 479.836   6
  -8  -9  -8 399.825 545.015   5
   8   9   9 331.990 369.469   6
   8   9  10-487.050 448.253   6
  -8 -10  19-138.458 277.023   8
  -8 -10  18-98.9873 246.431   8
  -8 -10  17 497.325 505.401   8
  -8 -10  16-25.3771 422.506   8
  -8 -10  15-781.251 571.792   8
  -8 -10  14 283.088 352.177   8
  -8 -10  13-730.481 537.753   8
  -8 -10  12-111.897 317.512   8
  -8 -10  11-204.092 304.009   8
  -8 -10  10 1506.40 811.874   8
  -8 -10   9 611.846 479.140   8
  -8 -10   8 1333.13 688.743   8
  -8 -10   7 107.246 280.567   8
  -8 -10   6 316.848 471.662   8
  -8 -10   5-185.614 149.891   8
  -8 -10   4-247.740 512.786   8
  -8 -10   3-62.7368 409.102   8
  -8 -10   2 118.342 192.676   8
  -8 -10   1-56.6751 327.042   8
  -8 -10   0 50.8018 250.265   8
  -8 -10   0 788.029 672.930   5
  -8 -10  -1-586.065 481.403   8
  -8 -10  -1 543.791 489.632   5
  -8 -10  -2-222.699 363.953   8
  -8 -10  -2-141.675 302.746   5
  -8 -10  -3-509.968 489.654   5
  -8 -10  -3-395.105 396.099   8
  -8 -10  -4 2336.65 1041.56   5
  -8 -10  -4 3287.86 1115.32   8
  -8 -10  -5 155.109 338.139   5
  -8 -10  -5 526.085 334.231   8
   8  10   6 469.140 458.781   6
  -8 -10  -6 756.322 560.198   5
  -8 -10  -6 551.260 407.942   8
   8  10   7 568.446 559.575   6
  -8 -10  -7-742.761 636.192   5
   8  10   8 231.956 431.201   6
  -8 -11  17 222.463 296.302   8
  -8 -11  16 833.381 693.633   8
  -8 -11  15-635.624 525.943   8
  -8 -11  14 1133.53 729.366   8
  -8 -11  13 783.981 632.236   8
  -8 -11  12-722.063 545.726   8
  -8 -11  11-219.572 481.079   8
  -8 -11  10 1032.91 641.482   8
  -8 -11   9-374.836 623.608   8
  -8 -11   8 531.122 477.927   8
  -8 -11   7 738.239 591.534   8
  -8 -11   6-395.890 298.596   8
  -8 -11   5-279.627 260.836   8
  -8 -11   4 267.617 376.890   8
  -8 -11   3 16.4640 300.779   8
  -8 -11   2-132.355 326.133   8
  -8 -11   1 2560.02 1035.64   8
  -8 -11   1 3019.21 1087.69   5
  -8 -11   0 1992.17 803.726   8
  -8 -11   0 2392.51 979.342   5
  -8 -11  -1-612.720 606.244   8
  -8 -11  -1-738.623 572.107   5
  -8 -11  -2-53.5202 185.695   8
  -8 -11  -2 709.346 636.600   5
  -8 -11  -3 106.362 385.571   8
  -8 -11  -3 33.4423 285.475   5
   8  11   4 360.566 347.729   6
  -8 -11  -4 195.309 296.656   8
  -8 -11  -5-665.134 593.988   5
  -8 -11  -5 103.788 241.329   8
   8  11   6 1629.02 840.716   6
  -8 -12  15-384.767 428.452   8
  -8 -12  14 929.635 711.447   8
  -8 -12  13 1400.97 832.978   8
  -8 -12  12 1000.27 652.413   8
  -8 -12  11-465.172 449.747   8
  -8 -12  10 125.450 409.012   8
  -8 -12   9 137.210 246.510   8
  -8 -12   8 1136.55 673.164   8
  -8 -12   7 1597.18 891.798   8
  -8 -12   6 542.296 266.775   8
  -8 -12   5 631.018 595.553   8
  -8 -12   4 571.737 528.772   8
  -8 -12   3 1708.70 859.386   8
  -8 -12   2 1728.54 812.808   8
  -8 -12   1 333.400 164.852   8
  -8 -12   1 1173.74 655.512   5
  -8 -12   0-1318.05 712.415   8
  -8 -12   0 1189.07 756.801   5
  -8 -12  -1 218.259 250.681   8
  -8 -12  -1 928.724 683.463   5
  -8 -12  -2-376.211 391.151   8
  -8 -12  -2-562.125 532.770   5
  -8 -12  -3-237.013 316.994   8
  -8 -12  -3-948.660 695.187   5
   8  12   4 151.759 275.387   6
  -8 -12  -4 227.585 295.157   8
  -8 -13  13 526.969 225.401   8
  -8 -13  12 142.839 287.211   8
  -8 -13  11 1295.48 786.465   8
  -8 -13  10-94.5777 256.967   8
  -8 -13   9 1408.03 723.969   8
  -8 -13   8-249.291 445.716   8
  -8 -13   7 725.532 434.862   8
  -8 -13   6-526.277 471.930   8
  -8 -13   5-23.4072 366.708   8
  -8 -13   4 340.267 314.085   8
  -8 -13   3-381.578 417.545   8
  -8 -13   2 745.388 726.216   8
  -8 -13   2-472.886 456.815   5
  -8 -13   1 646.117 537.311   8
  -8 -13   1-816.311 600.631   5
  -8 -13   0 707.606 586.183   8
  -8 -13   0 525.082 475.540   5
  -8 -13  -1-107.693 267.545   8
  -8 -13  -1 11.8026 271.125   5
   8  13   2-381.365 412.693   6
  -8 -13  -2 68.7292 317.182   5
  -8 -13  -3-35.4574 174.701   8
  -8 -13  -3-231.773 377.623   5
  -8 -14  10 1883.01 921.755   8
  -8 -14   9 1683.52 901.013   8
  -8 -14   8 395.781 441.174   8
  -8 -14   7 741.904 661.758   8
  -8 -14   6 225.242 451.875   8
  -8 -14   5 113.304 390.445   8
  -8 -14   4 216.725 514.207   8
  -8 -14   3 582.442 506.450   8
  -8 -14   2-593.234 503.914   8
  -8 -14   2-696.775 563.647   5
  -8 -14   1 536.433 469.852   8
  -8 -14   1 356.002 426.418   5
  -8 -14   0 750.306 674.067   8
  -8 -14   0 186.641 325.664   5
  -8 -14  -1 53.2610 185.585   8
  -8 -14  -1-498.371 520.720   5
  -8 -14  -2-122.307 242.447   8
  -8 -15   6 275.781 226.864   8
  -8 -15   5 751.223 580.133   8
  -8 -15   4 477.158 602.388   8
  -8 -15   3-488.792 472.490   8
  -8 -15   2 867.619 684.034   8
  -8 -15   1-560.908 505.166   8
  -8 -15   1-336.492 431.086   5
  -8 -15   0-760.327 580.714   8
  -8 -15   0-398.077 467.160   5
  -9  17  -6 77.1375 253.492   2
  -9  16   0 277.721 422.978   6
  -9  16  -1 861.472 702.908   6
  -9  16  -2 527.931 553.668   6
  -9  16  -4-459.238 156.096   2
  -9  16  -5 824.790 637.449   2
  -9  16  -6-792.207 638.355   2
  -9  16  -7 587.445 566.308   2
  -9  15   1-793.577 685.564   6
  -9  15   0 1674.59 882.260   6
  -9  15  -1 1001.65 733.058   6
  -9  15  -2-623.048 579.038   6
  -9  15  -3 216.248 467.951   2
  -9  15  -4 385.204 438.642   2
  -9  15  -5 2048.69 1039.42   2
  -9  15  -6 168.168 331.873   2
  -9  15  -7 550.293 728.936   2
  -9  15  -8 992.772 736.258   2
  -9  15  -9 1090.99 866.501   2
   9 -14  -5-1054.78 780.484   4
   9 -14  -4 1320.01 912.694   4
   9 -14  -3 9.40017 188.027   4
  -9  14   3-989.938 763.626   6
  -9  14   2-672.980 629.874   6
  -9  14   1 1267.27 792.105   6
  -9  14   0-825.658 662.129   6
  -9  14  -1-708.831 608.464   6
  -9  14  -2-1413.43 760.669   2
  -9  14  -3 758.953 552.963   2
  -9  14  -4 8547.25 1921.89   2
  -9  14  -5 441.493 640.080   2
  -9  14  -6 84.5328 302.196   2
  -9  14  -7 275.611 545.990   2
  -9  14  -8 2134.37 934.959   2
  -9  14  -9 85.5333 476.545   2
  -9  14 -10 538.995 557.457   2
   9 -13  -6-196.195 387.402   4
   9 -13  -5 1117.48 812.740   4
  -9  13   5 448.357 436.274   6
   9 -13  -4 2558.40 1068.92   4
  -9  13   4 376.469 350.545   6
   9 -13  -3-745.367 601.859   4
  -9  13   3-437.898 513.705   6
   9 -13  -2-423.923 589.298   4
  -9  13   2 1838.88 908.608   6
   9 -13  -1 462.577 336.185   4
  -9  13   1-2.77145 595.503   6
  -9  13   0 226.286 265.909   6
  -9  13  -1 16.8742 158.706   2
  -9  13  -2 622.089 216.940   2
  -9  13  -3 673.909 484.126   2
  -9  13  -4 344.823 328.979   2
  -9  13  -5-129.961 272.665   2
  -9  13  -6 1053.16 781.056   2
  -9  13  -7 3172.13 1205.72   2
  -9  13  -8 995.440 665.094   2
  -9  13  -9 2639.56 1148.60   2
  -9  13 -10 598.602 544.129   2
  -9  13 -11 3284.79 1406.54   2
   9 -12  -7-101.841 245.842   4
   9 -12  -6 916.296 838.697   4
  -9  12   6-748.310 689.829   6
   9 -12  -5 835.574 482.234   4
  -9  12   5-1271.81 850.451   6
   9 -12  -4-703.459 590.263   4
  -9  12   4-404.175 503.601   6
  -9  12   4-341.965 601.689   3
   9 -12  -3-645.283 559.426   4
  -9  12   3 1937.43 1163.47   6
   9 -12  -2-565.194 503.542   4
  -9  12   2-953.736 706.271   6
   9 -12  -1 1084.27 734.961   4
  -9  12   1 1148.18 825.808   6
  -9  12   1 1172.39 613.324   2
   9 -12   0 194.412 540.251   4
  -9  12   0 130.080 242.760   2
  -9  12  -1 1669.89 718.126   2
  -9  12  -2 214.869 306.448   2
  -9  12  -3-213.967 526.839   2
  -9  12  -4 104.877 256.278   2
  -9  12  -5 55.8903 274.622   2
  -9  12  -6 9450.41 2030.97   2
  -9  12  -7-415.027 453.088   2
  -9  12  -8 2664.77 1140.41   2
  -9  12  -9 233.486 559.985   2
  -9  12 -10 2569.13 1217.51   2
  -9  12 -11 680.283 606.325   2
  -9  12 -12 1252.82 746.607   2
   9 -11  -8 3591.82 1370.21   4
   9 -11  -7 206.330 535.630   4
  -9  11   7 1032.47 1077.53   6
   9 -11  -6 958.704 631.034   4
  -9  11   6 1244.82 745.234   6
   9 -11  -5 267.638 575.046   4
  -9  11   5 1615.24 1166.10   6
  -9  11   5 803.947 218.174   3
   9 -11  -4 975.155 540.134   4
  -9  11   4 1134.02 699.182   6
  -9  11   4 672.057 471.294   3
   9 -11  -3-39.7497 249.894   4
  -9  11   3-254.681 395.157   6
  -9  11   3 99.9241 260.989   3
  -9  11   2 405.461 337.927   2
   9 -11  -2 208.391 343.997   4
  -9  11   2 1187.31 786.097   6
   9 -11  -1 57.1067 336.982   4
  -9  11   1 2111.43 835.362   2
   9 -11   0 1830.10 887.228   4
  -9  11   0 664.540 528.009   2
   9 -11   1 1047.61 651.043   4
  -9  11  -1 665.578 413.263   2
  -9  11  -2 1621.44 653.918   2
  -9  11  -3 1368.80 773.699   2
  -9  11  -4-411.347 426.045   2
  -9  11  -5 1930.81 875.421   2
  -9  11  -6-962.607 649.840   2
  -9  11  -7 692.943 514.787   2
  -9  11  -8 1309.08 801.315   2
  -9  11  -9-99.1259 615.601   2
  -9  11 -10 1305.02 961.620   2
  -9  11 -11 134.650 271.964   2
  -9  11 -12 51.1997 431.593   2
  -9  11 -13 475.677 252.265   2
   9 -10  -9 1721.80 835.586   4
  -9  10   9 1162.07 869.877   6
   9 -10  -8-1277.35 832.855   4
  -9  10   8 285.992 595.776   6
   9 -10  -7-9.74492 474.378   4
  -9  10   7 801.733 847.962   6
   9 -10  -6 2377.66 1092.89   4
  -9  10   6 917.914 550.299   6
   9 -10  -5 2285.18 917.611   4
  -9  10   5 2276.57 1231.32   6
  -9  10   5 1053.69 668.552   3
   9 -10  -4 783.066 478.871   4
  -9  10   4 429.215 377.236   6
   9 -10  -3 268.965 301.979   4
  -9  10   3 960.680 543.142   3
  -9  10   3 909.107 485.789   2
  -9  10   2-561.612 438.123   2
   9 -10  -2-130.114 432.600   4
  -9  10   2-1564.14 820.705   3
   9 -10  -1 2582.89 980.189   4
  -9  10   1 3643.39 1168.69   2
   9 -10   0 3128.83 1092.54   4
  -9  10   0 2568.55 922.358   2
  -9  10  -1 757.509 549.101   2
   9 -10   1 1145.22 607.424   4
  -9  10  -2 9.99249 341.334   2
   9 -10   2 254.368 363.449   4
  -9  10  -3 3756.18 1213.77   2
  -9  10  -4-195.215 316.879   2
  -9  10  -5 241.520 375.331   2
  -9  10  -6 6.81257 334.180   2
  -9  10  -7-104.284 364.093   2
  -9  10  -8-1092.33 699.938   2
  -9  10  -9 438.135 594.123   2
  -9  10 -10 748.952 555.746   2
  -9  10 -11 1870.16 973.913   2
  -9  10 -12 62.5176 296.925   2
  -9  10 -13 663.306 716.053   2
  -9  10 -14 597.351 312.547   2
  -9  10 -15 680.049 649.149   3
  -9  10 -16 114.332 348.277   3
   9  -9 -10-17.1790 786.932   4
  -9   9  10 1589.46 951.307   6
   9  -9  -9-112.857 415.859   4
  -9   9   9 374.169 323.154   6
   9  -9  -8-976.349 716.127   4
  -9   9   8-476.399 550.329   6
   9  -9  -7 2087.34 1087.88   4
  -9   9   7 1409.59 958.823   6
   9  -9  -6-1369.56 804.905   4
  -9   9   6-1019.39 732.667   6
  -9   9   6-930.924 599.472   3
   9  -9  -5 2915.18 1233.63   4
  -9   9   5 1161.55 714.769   3
   9  -9  -4 2547.43 1073.78   4
  -9   9   4 3367.99 1131.16   3
   9  -9  -3-64.6624 292.313   4
  -9   9   3 97.6168 340.430   3
  -9   9   3 104.478 293.522   2
  -9   9   2 1748.31 782.093   2
   9  -9  -2 1699.82 804.443   4
  -9   9   2 2012.67 1020.89   3
   9  -9  -1 1645.81 892.822   4
  -9   9   1 2037.75 817.171   2
  -9   9   1 1045.97 772.152   3
  -9   9   0 684.501 488.030   2
  -9   9   0 1418.88 769.302   3
   9  -9   0 1705.41 842.917   4
  -9   9  -1 1417.37 792.502   2
   9  -9   1 1310.10 715.055   4
  -9   9  -2-202.109 272.289   2
   9  -9   2 601.097 301.675   4
  -9   9  -3 672.543 467.899   2
   9  -9   3 682.431 458.257   4
  -9   9  -4 604.167 466.860   2
  -9   9  -5 252.215 296.419   2
  -9   9  -6 578.909 513.242   2
  -9   9  -7-49.2347 395.237   2
  -9   9  -8 1359.35 742.995   2
  -9   9  -9 1741.03 941.136   2
  -9   9 -10-143.147 372.043   2
  -9   9 -11 223.038 283.122   2
  -9   9 -12-179.400 363.906   2
  -9   9 -13-299.915 417.767   2
  -9   9 -13 1530.47 959.076   3
  -9   9 -14 318.012 315.763   2
  -9   9 -14-111.982 334.399   3
  -9   9 -15 869.349 867.786   2
  -9   9 -15 1792.12 1046.83   3
  -9   9 -16 340.530 522.544   3
  -9   9 -17 1190.68 1094.13   3
   9  -8 -11 510.768 762.483   4
   9  -8 -10 420.968 507.986   4
   9  -8  -9 313.987 624.037   4
   9  -8  -8 827.137 681.072   4
   9  -8  -7 911.711 721.105   4
  -9   8   7 697.653 514.765   3
   9  -8  -6 432.043 465.466   4
  -9   8   6 500.569 442.949   3
   9  -8  -5 3925.96 1295.88   4
  -9   8   5 4248.10 1268.75   3
   9  -8  -4-211.818 385.446   4
  -9   8   4 241.025 406.006   3
  -9   8   4 812.513 558.370   2
   9  -8  -3 8197.72 1793.19   4
  -9   8   3 3678.35 1185.88   3
  -9   8   3 5629.53 1293.94   2
   9  -8  -2 9709.73 1886.24   4
  -9   8   2 9335.08 1915.25   3
  -9   8   2 11410.7 1883.02   2
  -9   8   1-367.883 319.602   2
  -9   8   1-393.551 424.577   3
   9  -8  -1-173.571 276.860   4
  -9   8   0 3710.01 1141.99   2
  -9   8   0 2898.78 1104.89   3
   9  -8   0 3597.32 1116.34   4
  -9   8  -1 2025.53 907.572   2
  -9   8  -1 2503.70 1051.99   3
   9  -8   1 1691.73 708.882   4
  -9   8  -2 283.313 332.978   2
  -9   8  -2 271.396 537.021   3
   9  -8   2 250.853 428.620   4
  -9   8  -3 203.192 153.621   2
  -9   8  -3 142.273 259.210   3
  -9   8  -4 1178.66 713.837   2
  -9   8  -5-1474.00 755.494   2
  -9   8  -6 780.092 316.731   2
  -9   8  -7 2265.81 998.828   2
  -9   8  -8 873.947 600.026   2
  -9   8  -9 1779.38 784.422   2
  -9   8  -9 3382.76 1317.58   3
  -9   8 -10 22.3652 267.890   2
  -9   8 -10 314.920 670.822   3
  -9   8 -11 1379.76 739.134   2
  -9   8 -11 538.668 873.664   3
  -9   8 -12-134.690 550.733   2
  -9   8 -12-1253.89 815.248   3
  -9   8 -13-74.6224 339.384   2
  -9   8 -13-679.328 622.468   3
  -9   8 -14-691.643 619.432   2
  -9   8 -14-31.1550 411.487   3
  -9   8 -15-994.382 743.788   2
  -9   8 -15 40.8418 211.580   3
  -9   8 -16 427.223 527.128   3
  -9   8 -17 1338.19 961.306   3
   9  -7 -12 513.647 573.703   4
   9  -7 -12-119.027 241.460   9
   9  -7 -11 388.937 477.859   4
   9  -7 -10 1251.66 939.087   4
   9  -7  -9-243.779 355.083   4
   9  -7  -8-430.068 739.240   4
   9  -7  -7 569.692 359.739   4
  -9   7   7-26.3327 234.987   3
   9  -7  -6 2760.32 1105.44   4
  -9   7   6 3334.22 1069.88   3
  -9   7   5 841.596 631.763   3
  -9   7   5 1568.78 650.968   2
   9  -7  -4 981.564 532.254   4
  -9   7   4 2142.95 870.568   3
  -9   7   4 2126.69 787.484   2
   9  -7  -3 10068.2 1935.52   4
  -9   7   3 7984.66 1718.44   3
  -9   7   3 6837.41 1432.03   2
  -9   7   2-179.348 479.673   3
  -9   7   2-373.041 451.126   2
   9  -7  -2-19.0730 155.752   4
  -9   7   1 308.392 249.237   2
  -9   7   1 611.558 523.422   3
   9  -7  -1 879.288 544.824   4
  -9   7   0 955.276 540.263   2
  -9   7   0 703.007 664.999   3
   9  -7   0 1087.45 681.808   4
  -9   7  -1 316.912 356.187   2
  -9   7  -1-468.109 609.964   3
   9  -7   1 284.516 359.723   4
  -9   7  -2 103.103 412.683   2
  -9   7  -2 482.082 279.891   3
  -9   7  -3-157.600 398.930   2
  -9   7  -3 436.202 314.170   3
  -9   7  -4 2326.55 908.610   2
  -9   7  -4 1504.77 707.176   3
  -9   7  -5 699.684 676.325   2
  -9   7  -5 2166.57 1070.10   3
  -9   7  -6 119.291 382.710   2
  -9   7  -6-66.4433 282.339   3
  -9   7  -7-82.6125 595.854   2
  -9   7  -7 659.941 609.927   3
  -9   7  -8 3034.02 1146.47   2
  -9   7  -8 2805.47 1143.61   3
  -9   7  -9 850.555 367.846   2
  -9   7  -9-51.5064 456.066   3
  -9   7 -10 1607.92 939.287   2
  -9   7 -10 1050.81 842.259   3
  -9   7 -11 126.381 291.525   2
  -9   7 -11 263.919 512.582   3
  -9   7 -12 320.836 410.620   2
  -9   7 -12 571.843 792.022   3
  -9   7 -13 1264.78 1018.76   2
  -9   7 -13-35.0657 305.763   3
  -9   7 -14-698.532 617.492   2
  -9   7 -14-1280.22 830.409   3
  -9   7 -15 585.077 677.140   2
  -9   7 -15 1920.78 1039.92   3
  -9   7 -16 479.692 407.032   2
  -9   7 -16 686.023 776.076   3
  -9   7 -17-18.0726 533.146   3
   9  -6 -13 569.034 1160.04   4
   9  -6 -12 630.892 779.551   4
   9  -6 -11 1235.36 914.969   4
   9  -6 -10 1515.39 860.409   4
   9  -6  -9 742.181 616.239   4
   9  -6  -8 1706.80 962.289   4
  -9   6   8-148.130 255.796   3
   9  -6  -7 3156.53 1183.96   4
  -9   6   7 2539.17 923.980   3
   9  -6  -6 1284.24 744.583   4
  -9   6   6 2487.64 920.474   3
  -9   6   6 2546.51 835.001   2
   9  -6  -5 2967.84 1093.31   4
  -9   6   5 3882.59 1113.86   3
  -9   6   5 2989.74 925.534   2
   9  -6  -4 2526.04 1009.97   4
  -9   6   4 2517.54 999.737   3
  -9   6   4 2747.56 902.804   2
  -9   6   3 378.047 250.882   3
   9  -6  -3 1191.20 591.538   4
  -9   6   2 213.689 395.161   2
   9  -6  -2 262.780 298.729   4
  -9   6   1 814.844 478.507   3
   9  -6  -1 1007.42 542.694   4
  -9   6   1 1454.05 646.582   2
  -9   6   0 175.231 342.611   2
  -9   6   0 942.387 627.654   3
   9  -6   0 389.731 480.374   4
  -9   6  -1 650.999 484.083   2
  -9   6  -1 589.957 441.960   3
  -9   6  -2 648.463 558.394   2
  -9   6  -2-186.462 592.705   3
  -9   6  -3 4679.98 1302.48   2
  -9   6  -3 5243.38 1496.39   3
  -9   6  -4 3536.49 1146.16   2
  -9   6  -4 3489.12 1225.14   3
  -9   6  -5 732.834 560.480   2
  -9   6  -5 1709.49 883.861   3
  -9   6  -6 2721.78 1050.36   2
  -9   6  -6 2204.45 992.036   3
  -9   6  -7 627.323 713.760   2
  -9   6  -7 137.779 459.546   3
  -9   6  -8 715.167 675.557   2
  -9   6  -8 675.760 592.854   3
  -9   6  -9 4904.67 1482.12   2
  -9   6  -9 4085.81 1382.37   3
  -9   6 -10-32.4392 355.911   2
  -9   6 -10-1.27412 529.450   3
  -9   6 -11 1732.33 877.015   2
  -9   6 -11 573.376 282.145   3
  -9   6 -12 1312.58 796.558   2
  -9   6 -12 987.311 705.064   3
  -9   6 -13 1.33792 406.814   2
  -9   6 -13 1593.02 843.768   3
  -9   6 -14-4.15856 433.625   2
  -9   6 -14 481.752 471.814   3
  -9   6 -15 79.0797 386.162   2
  -9   6 -15-566.221 569.732   3
  -9   6 -16 1708.16 1006.21   2
  -9   6 -16 172.447 453.434   3
  -9   6 -17 523.220 565.803   3
   9  -5 -13-28.4348 465.468   4
   9  -5 -12 1243.80 891.331   4
   9  -5 -11 900.241 627.031   4
   9  -5 -10-59.7652 249.494   4
   9  -5  -9 224.685 347.353   4
   9  -5  -8 3656.10 1304.53   4
  -9   5   8 5777.00 1269.67   8
   9  -5  -7 204.149 225.425   4
  -9   5   7-476.319 414.290   3
   9  -5  -6 4280.64 1344.53   4
  -9   5   6 2519.34 879.522   3
  -9   5   6 3895.95 1399.88   2
  -9   5   5 2191.96 940.219   3
  -9   5   5 1156.43 547.407   2
   9  -5  -5 1780.03 850.494   4
  -9   5   4 3413.04 1133.50   3
  -9   5   4 4223.86 1120.29   2
   9  -5  -4 5836.66 1451.37   4
  -9   5   3 608.597 608.753   3
  -9   5   3-159.733 287.925   2
   9  -5  -3 231.634 227.285   4
  -9   5   2 832.120 594.699   3
  -9   5   2 690.659 419.191   2
   9  -5  -2-133.049 311.396   4
  -9   5   1 1878.26 875.494   3
   9  -5  -1 1407.66 679.336   4
  -9   5   1 2403.71 862.267   2
  -9   5   0 186.987 272.541   3
  -9   5   0 444.967 552.670   2
  -9   5  -1 1052.33 627.034   3
  -9   5  -1 765.370 332.573   2
  -9   5  -2 3842.55 1141.91   2
  -9   5  -2 6332.44 1566.59   3
  -9   5  -3 20566.8 2855.53   3
  -9   5  -3 21124.2 2697.99   2
  -9   5  -4 7913.91 1751.34   2
  -9   5  -4 5245.96 1457.89   3
  -9   5  -5-367.707 331.569   2
  -9   5  -5 512.028 488.709   3
  -9   5  -6 115.936 214.660   2
  -9   5  -6 597.810 542.627   3
  -9   5  -7 1160.24 547.924   2
  -9   5  -7 60.5796 347.893   3
  -9   5  -8 2197.94 970.345   2
  -9   5  -8 1751.67 833.311   3
  -9   5  -9 900.648 693.171   2
  -9   5  -9 836.932 650.938   3
  -9   5 -10 1703.84 795.665   2
  -9   5 -10 1091.75 718.651   3
  -9   5 -11 239.192 257.871   2
  -9   5 -11-317.567 343.631   3
  -9   5 -12 452.069 461.426   2
  -9   5 -12-826.497 640.795   3
  -9   5 -13 544.920 560.406   2
  -9   5 -13 705.569 386.401   3
  -9   5 -14-423.512 485.682   2
  -9   5 -14 209.388 221.046   3
  -9   5 -15 1518.27 889.542   2
  -9   5 -15 2982.14 1251.30   3
  -9   5 -16 587.217 556.624   2
  -9   5 -16 61.8718 257.378   3
   9  -4 -14 755.102 660.465   4
   9  -4 -13 79.6676 324.605   4
   9  -4 -12 838.100 796.173   4
   9  -4 -11 561.508 597.577   4
   9  -4 -10 121.333 286.894   4
   9  -4  -9-16.3127 501.800   4
  -9   4   9 1466.84 624.255   8
   9  -4  -8 148.221 455.410   4
  -9   4   8-390.973 346.143   8
  -9   4   7 3590.00 1025.08   8
   9  -4  -7 3313.00 1151.91   4
  -9   4   6 1107.60 574.333   2
   9  -4  -6 1242.20 660.738   4
  -9   4   5 90.8986 314.438   3
  -9   4   5 51.4612 396.325   2
   9  -4  -5-407.750 474.715   4
  -9   4   4 2059.45 717.850   3
  -9   4   4 1486.17 705.946   2
   9  -4  -4 2739.11 1013.91   4
  -9   4   3-52.8763 413.773   3
  -9   4   3 438.598 215.324   2
   9  -4  -3 337.242 302.111   4
  -9   4   2 1138.03 632.593   3
  -9   4   2 1970.08 858.405   2
   9  -4  -2 992.083 602.934   4
  -9   4   1 3612.50 1225.16   3
  -9   4   1 2783.80 961.233   2
  -9   4   0-327.654 458.759   3
  -9   4   0-167.104 365.300   2
  -9   4  -1 2731.06 1005.13   3
  -9   4  -1 3154.18 1084.03   2
  -9   4  -2 6450.11 1579.33   3
  -9   4  -2 5512.27 1401.08   2
  -9   4  -3 7591.69 1626.75   2
  -9   4  -3 7253.31 1720.24   3
  -9   4  -4 115.407 265.303   2
  -9   4  -4 199.187 324.640   3
  -9   4  -5 1197.63 715.500   2
  -9   4  -5 2385.62 1074.67   3
  -9   4  -6 2860.67 1072.32   2
  -9   4  -6 3661.56 1353.63   3
  -9   4  -7 498.847 442.681   2
  -9   4  -7 1087.23 612.019   3
  -9   4  -8 1829.81 865.342   2
  -9   4  -8 1273.18 682.501   3
  -9   4  -9 868.340 815.859   2
  -9   4  -9 892.705 643.355   3
  -9   4 -10-257.362 440.689   2
  -9   4 -10-388.144 277.553   3
  -9   4 -11 229.370 460.242   2
  -9   4 -11-236.247 398.788   3
  -9   4 -12 578.292 485.168   2
  -9   4 -12 53.4346 311.803   3
  -9   4 -13 713.639 618.108   2
  -9   4 -13 205.472 419.900   3
  -9   4 -14 964.119 652.634   2
  -9   4 -14 1013.02 611.499   3
  -9   4 -15-352.361 462.504   2
  -9   4 -15 1136.43 1015.99   3
  -9   4 -16 517.147 663.550   2
  -9   4 -16 939.292 883.925   3
  -9   4 -17-563.436 586.658   2
   9  -3 -15 1242.90 1295.77   4
   9  -3 -14 769.307 621.064   4
   9  -3 -13 2255.51 1127.98   4
   9  -3 -12 2128.18 1130.45   4
   9  -3 -11 513.348 456.800   4
   9  -3 -10-217.770 349.879   4
  -9   3  10-132.101 294.418   8
  -9   3   9 67.2088 169.506   8
   9  -3  -9-235.940 327.417   4
  -9   3   8 154.948 151.639   8
   9  -3  -8 92.5551 272.244   4
  -9   3   7 1618.38 770.792   8
   9  -3  -7 1595.71 844.898   4
  -9   3   6 95.4070 273.483   8
   9  -3  -6-156.683 311.770   4
  -9   3   5 1144.47 550.438   2
   9  -3  -5 571.523 360.297   4
  -9   3   4-83.3809 420.147   3
  -9   3   4 542.826 369.332   2
   9  -3  -4 607.456 513.385   4
  -9   3   3-209.979 470.107   3
  -9   3   3 447.227 437.568   2
   9  -3  -3 165.668 276.275   4
  -9   3   2 1354.67 624.016   3
  -9   3   2 1741.34 698.347   2
  -9   3   1 158.223 358.341   3
  -9   3   1-76.3913 250.828   2
  -9   3   0 537.182 454.634   3
  -9   3   0 1582.77 707.334   2
  -9   3  -1 13499.3 2251.74   3
  -9   3  -1 14049.2 2162.85   2
  -9   3  -2 2957.57 1073.23   3
  -9   3  -2 4779.74 1312.22   2
  -9   3  -3 1120.28 705.652   3
  -9   3  -3 2654.79 1014.22   2
  -9   3  -4-441.001 496.924   3
  -9   3  -4 120.984 317.430   2
  -9   3  -5 3003.23 1134.50   3
  -9   3  -5 1190.45 784.048   2
  -9   3  -6 1317.74 626.320   2
  -9   3  -6 932.159 561.828   3
  -9   3  -7-80.8042 432.451   2
  -9   3  -7 769.487 405.355   3
  -9   3  -8 150.160 447.127   2
  -9   3  -8-59.9891 268.386   3
  -9   3  -9 995.333 539.463   2
  -9   3  -9-30.6514 545.963   3
  -9   3 -10-21.3886 215.546   2
  -9   3 -10 272.111 288.995   3
  -9   3 -11 1612.36 792.250   2
  -9   3 -11 1308.95 740.484   3
  -9   3 -12 3.81370 401.752   2
  -9   3 -12-887.254 658.491   3
  -9   3 -13 647.096 621.474   2
  -9   3 -13 2533.36 1187.46   3
  -9   3 -14-369.941 580.331   2
  -9   3 -14-213.462 788.428   3
  -9   3 -15 271.359 376.784   2
  -9   3 -15-936.635 689.563   3
  -9   3 -16-1570.81 916.940   2
  -9   3 -17-940.047 731.557   2
   9  -2 -15 371.781 573.365   4
   9  -2 -14 2267.86 1017.09   4
   9  -2 -13 1836.93 990.506   4
   9  -2 -12 2004.73 836.534   4
  -9   2  11 1443.31 611.540   8
   9  -2 -11 1697.13 914.487   4
  -9   2  10 87.7142 279.276   8
   9  -2 -10-704.326 580.904   4
  -9   2   9 211.818 295.133   8
   9  -2  -9 473.188 584.280   4
  -9   2   8 247.363 250.167   8
   9  -2  -8 44.8332 343.235   4
  -9   2   7 1280.39 586.352   8
   9  -2  -7 1262.16 642.643   4
   9  -2  -6 1389.01 730.101   4
  -9   2   6 507.095 400.527   8
  -9   2   5 594.826 466.689   2
   9  -2  -5 1547.72 710.613   4
  -9   2   4 3928.65 1066.92   2
   9  -2  -4 3916.90 1174.12   4
  -9   2   3 1699.24 694.009   2
  -9   2   2 294.658 268.765   3
  -9   2   2 167.116 276.538   2
  -9   2   1 7811.72 1675.70   3
  -9   2   1 7762.34 1679.68   2
  -9   2   0 1037.89 609.652   3
  -9   2   0 1473.44 784.844   2
  -9   2  -1 5275.93 1416.53   3
  -9   2  -1 5532.14 1424.06   2
  -9   2  -2 235.107 209.673   3
  -9   2  -2 650.464 422.286   2
  -9   2  -3 27.1463 189.241   3
  -9   2  -3-196.144 320.507   2
  -9   2  -4 963.935 668.732   3
  -9   2  -4 1112.39 684.736   2
  -9   2  -5 6608.25 1614.40   3
  -9   2  -5 6777.65 1593.03   2
  -9   2  -6 747.334 670.175   3
  -9   2  -6 701.700 526.550   2
  -9   2  -7-109.158 208.719   3
  -9   2  -7 207.525 386.199   2
  -9   2  -8-114.817 496.669   3
  -9   2  -8-191.901 476.428   2
  -9   2  -9 1516.87 723.090   3
  -9   2  -9 1371.12 728.050   2
  -9   2 -10 2099.68 935.831   3
  -9   2 -10 580.919 569.603   2
  -9   2 -11 623.643 558.968   3
  -9   2 -11 221.267 209.898   2
  -9   2 -12-331.934 294.493   3
  -9   2 -12 1246.45 790.534   2
  -9   2 -13 395.455 539.236   3
  -9   2 -13 403.206 477.794   2
  -9   2 -14 528.320 637.987   2
  -9   2 -15 447.706 672.968   2
  -9   2 -16-753.457 648.931   2
  -9   2 -17-1.47418 304.120   2
   9  -1 -16 1510.86 1052.29   4
   9  -1 -15-186.435 438.837   4
   9  -1 -14 1843.70 957.217   4
   9  -1 -13 1580.71 834.652   4
  -9   1  12 296.848 298.738   8
   9  -1 -12 84.2975 410.849   4
  -9   1  11 960.712 456.890   8
   9  -1 -11 351.702 497.821   4
  -9   1  10 3998.34 1038.61   8
   9  -1 -10 4605.00 1502.20   4
  -9   1   9-231.065 195.118   8
   9  -1  -9-97.2670 587.619   4
  -9   1   8 713.013 608.424   8
   9  -1  -8 588.243 372.416   4
  -9   1   7 3177.59 1006.61   8
   9  -1  -7 1917.21 882.465   4
   9  -1  -6 174.033 325.439   4
  -9   1   6 289.505 350.283   8
   9  -1  -5 6712.33 1606.83   4
  -9   1   5 3205.48 1011.89   8
  -9   1   4 7936.63 1536.71   2
  -9   1   3 554.862 552.343   2
  -9   1   2 16023.2 2255.58   2
  -9   1   1 507.073 556.007   2
  -9   1   0 9209.95 1750.51   2
  -9   1  -1 1205.63 652.034   3
  -9   1  -1 1559.02 603.377   2
  -9   1  -2 1692.04 696.586   3
  -9   1  -2 3410.71 1115.79   2
  -9   1  -3-174.267 400.368   3
  -9   1  -3-37.5195 235.515   2
  -9   1  -4 2164.39 947.627   3
  -9   1  -4 4157.42 1191.59   2
  -9   1  -5 761.290 566.703   3
  -9   1  -5 931.302 587.404   2
  -9   1  -6 145.027 444.838   3
  -9   1  -6 445.170 653.724   2
  -9   1  -7 1941.60 864.709   3
  -9   1  -7 1049.14 618.910   2
  -9   1  -8-515.221 598.492   3
  -9   1  -8-1316.12 737.779   2
  -9   1  -9 5778.30 1492.70   2
  -9   1 -10-168.673 347.365   2
  -9   1 -11 254.411 307.018   2
  -9   1 -12 430.917 515.785   2
  -9   1 -13-54.4465 321.669   2
  -9   1 -14-70.8467 415.249   2
  -9   1 -15 360.698 528.352   2
  -9   1 -16 191.253 459.116   2
   9   0 -16 1181.73 791.849   4
   9   0 -15 377.202 552.526   4
   9   0 -14 550.622 257.661   4
  -9   0  13-189.948 221.445   8
   9   0 -13 685.716 606.889   4
  -9   0  12 3496.76 996.765   8
   9   0 -12 3946.85 1342.69   4
  -9   0  11 4877.48 1192.33   8
   9   0 -11 3224.30 1283.39   4
  -9   0  10 17.3701 184.258   8
   9   0 -10-568.536 521.048   4
  -9   0   9 2231.66 837.590   8
   9   0  -9 1854.01 919.131   4
  -9   0   8-310.761 435.214   8
   9   0  -8 62.9776 187.524   4
   9   0  -7 2878.99 1082.19   4
  -9   0   7 3893.94 1132.25   8
  -9   0   6 4027.53 1107.63   8
  -9   0   5 8248.35 1662.96   8
  -9   0   4 102.615 241.015   8
  -9   0   3 7261.92 1541.51   2
  -9   0   2 999.195 503.513   2
  -9   0   1 2652.38 943.231   2
  -9   0   0 4529.10 1216.09   2
  -9   0  -1-21.4069 198.837   2
  -9   0  -2 184.521 234.285   2
  -9   0  -3 2608.45 1021.85   2
  -9   0  -4 337.852 253.128   2
  -9   0  -5 861.025 477.340   2
  -9   0  -6 110.276 378.774   2
  -9   0  -7 1358.10 741.099   2
  -9   0  -8 1530.93 755.846   2
  -9   0  -9-34.3765 424.905   2
  -9   0 -10 798.039 648.753   2
  -9   0 -11 66.9081 346.348   2
  -9   0 -12-458.398 481.181   2
  -9   0 -13 2.58038 172.987   2
  -9   0 -14 39.8199 264.107   2
  -9   0 -15 569.150 657.360   2
  -9   0 -16-791.495 648.406   2
   9   1 -17 188.004 742.491   4
   9   1 -16-192.396 471.164   4
   9   1 -15 674.266 635.130   4
   9   1 -14 17.3130 449.513   4
  -9  -1  13 230.837 205.522   8
   9   1 -13 532.891 355.898   4
  -9  -1  12-6.57952 101.445   8
   9   1 -12-72.6572 344.370   4
  -9  -1  11 703.284 447.349   8
   9   1 -11 140.474 361.883   4
  -9  -1  10 7173.01 1480.47   8
   9   1 -10 9152.35 2035.98   4
   9   1  -9-199.260 491.983   4
  -9  -1   9 115.752 219.430   8
  -9  -1   8 944.526 650.445   8
  -9  -1   7 6175.79 1422.31   8
  -9  -1   6 2773.36 893.941   8
  -9  -1   5 3219.70 1089.55   8
  -9  -1   4 149.494 293.376   8
  -9  -1   3 1388.64 737.818   8
  -9  -1   2 102.498 498.462   8
  -9  -1   1 5883.19 1428.77   2
  -9  -1   0 171.422 304.334   2
  -9  -1  -1 310.806 475.917   2
  -9  -1  -2 2184.52 903.319   2
  -9  -1  -3 148.243 486.138   2
  -9  -1  -4 14030.4 2254.71   2
  -9  -1  -5-320.161 475.468   2
  -9  -1  -6 1563.25 817.584   2
  -9  -1  -7 1044.39 630.935   2
  -9  -1  -8 510.757 443.700   2
  -9  -1  -9-687.484 555.014   2
  -9  -1 -10 202.539 333.044   2
  -9  -1 -11 499.561 329.674   2
  -9  -1 -12 196.759 304.787   2
  -9  -1 -13-119.821 454.835   2
  -9  -1 -14-218.458 367.744   2
  -9  -1 -15-93.7044 278.587   2
   9   2 -17 2107.55 1260.46   4
   9   2 -16 204.924 400.110   4
   9   2 -15-257.105 459.911   4
  -9  -2  14 81.5819 232.462   8
   9   2 -14 162.328 288.639   4
  -9  -2  13 93.2438 128.746   8
   9   2 -13-66.8435 253.762   4
  -9  -2  12-164.026 166.657   8
   9   2 -12-319.353 626.385   4
  -9  -2  11 681.591 463.050   8
   9   2 -11 489.035 498.567   4
  -9  -2  10 936.608 510.939   8
  -9  -2   9 295.651 359.819   8
  -9  -2   8 8854.96 1690.89   8
  -9  -2   7 4882.68 1277.86   8
  -9  -2   6 1752.43 779.885   8
  -9  -2   5 71.0747 205.090   8
  -9  -2   4 236.818 246.702   8
  -9  -2   3 568.023 184.906   8
  -9  -2   2 556.490 362.719   8
  -9  -2   1 535.080 320.035   8
  -9  -2   0 1268.56 747.073   2
  -9  -2   0 990.452 642.535   8
  -9  -2  -1 638.484 555.400   2
  -9  -2  -2 11653.4 2132.09   2
  -9  -2  -3 10222.0 1956.94   2
  -9  -2  -4 3955.41 1231.85   2
  -9  -2  -5-151.384 581.565   2
  -9  -2  -6 332.926 556.210   2
  -9  -2  -7 154.581 292.814   2
  -9  -2  -8-242.507 200.099   2
  -9  -2  -9 1372.31 720.675   2
  -9  -2 -10 577.858 694.302   2
  -9  -2 -11 563.840 500.813   2
  -9  -2 -12 169.722 323.521   2
  -9  -2 -13-309.458 416.713   2
  -9  -2 -14-188.679 339.836   2
   9   3 -17-273.128 259.725   4
   9   3 -16 64.3469 373.956   4
  -9  -3  15-240.099 283.145   8
   9   3 -15-696.585 623.984   4
  -9  -3  14-366.506 354.661   8
   9   3 -14-112.884 303.496   4
  -9  -3  13 266.457 298.105   8
  -9  -3  12 1113.15 579.324   8
  -9  -3  11 2464.07 876.611   8
  -9  -3  10-239.345 477.469   8
  -9  -3   9 1765.34 862.822   8
  -9  -3   8 2579.02 922.743   8
  -9  -3   7 428.561 506.671   8
  -9  -3   6 641.460 540.424   8
  -9  -3   5 1080.03 546.897   8
  -9  -3   4 792.635 585.819   8
  -9  -3   3 163.223 404.227   8
  -9  -3   2 37.1442 257.761   8
  -9  -3   1 1468.44 768.957   8
  -9  -3   0 750.024 650.205   8
  -9  -3  -1 6097.00 1502.71   8
  -9  -3  -2 1311.09 635.309   2
  -9  -3  -2 884.676 465.088   8
  -9  -3  -3 12928.5 2197.30   2
  -9  -3  -3 10670.5 2002.76   8
  -9  -3  -4 229.609 279.952   2
  -9  -3  -5 495.606 482.732   2
  -9  -3  -6 2141.27 954.437   2
  -9  -3  -7 1911.94 898.076   2
  -9  -3  -8-1149.29 705.216   2
  -9  -3  -9 992.303 702.923   2
  -9  -3 -10 1222.74 657.899   2
  -9  -3 -11 11.1164 241.360   2
   9   3  12-198.894 259.221   6
  -9  -3 -12 738.845 603.556   2
  -9  -3 -13-199.270 345.182   2
  -9  -3 -14 1061.64 819.682   2
  -9  -4  16 288.217 352.186   8
  -9  -4  15 368.840 395.010   8
  -9  -4  14 1354.31 644.022   8
  -9  -4  13 265.177 296.326   8
  -9  -4  12 2221.38 918.323   8
  -9  -4  11 67.5114 302.647   8
  -9  -4  10 287.901 212.716   8
  -9  -4   9 4983.63 1297.34   8
  -9  -4   8 20.7247 331.115   8
  -9  -4   7 1233.28 780.944   8
  -9  -4   6 890.204 592.021   8
  -9  -4   5 926.779 716.823   8
  -9  -4   4 1786.52 706.269   8
  -9  -4   3-187.018 406.142   8
  -9  -4   2 466.173 478.251   8
  -9  -4   1 1586.28 872.284   8
  -9  -4   0 68.2392 194.008   8
  -9  -4  -1 2946.06 1057.68   8
  -9  -4  -2 496.837 380.616   8
  -9  -4  -3 1322.98 748.985   8
  -9  -4  -4-415.437 422.848   8
  -9  -4  -5-575.005 489.546   8
  -9  -4  -6 379.076 452.760   8
  -9  -4  -7 874.066 632.207   2
  -9  -4  -7 253.186 398.641   8
  -9  -4  -8 449.971 622.369   2
  -9  -4  -8-23.0397 339.379   8
  -9  -4  -9-43.1100 380.231   2
  -9  -4  -9-15.5743 277.451   8
  -9  -4 -10 205.601 434.402   2
  -9  -4 -10-530.850 485.646   8
  -9  -4 -11-597.636 537.745   2
   9   4  11-235.510 285.737   6
  -9  -4 -11 48.9627 208.176   8
   9   4  12 767.797 513.515   6
  -9  -5  16-810.918 531.816   8
  -9  -5  15 1824.29 817.768   8
  -9  -5  14-63.4924 315.127   8
  -9  -5  13 2347.77 911.264   8
  -9  -5  12 1311.48 712.271   8
  -9  -5  11 1213.54 608.947   8
  -9  -5  10 194.363 421.058   8
  -9  -5   9 2986.96 998.592   8
  -9  -5   8 421.610 319.098   8
  -9  -5   7 795.735 625.991   8
  -9  -5   6-120.094 318.626   8
  -9  -5   5 931.143 681.757   8
  -9  -5   4 48.2309 211.067   8
  -9  -5   3 648.513 500.216   8
  -9  -5   2 2810.23 992.957   8
  -9  -5   1 5906.78 1439.11   8
  -9  -5   0 10.0487 341.956   8
  -9  -5  -1-99.6935 484.864   8
  -9  -5  -2-177.699 377.469   8
  -9  -5  -3 1774.99 873.579   8
  -9  -5  -4 121.549 441.269   8
  -9  -5  -5 335.543 431.458   8
  -9  -5  -6-255.397 340.888   8
  -9  -5  -7 870.125 615.043   8
  -9  -5  -8 741.574 574.652   8
  -9  -5  -9 889.251 630.248   8
  -9  -5 -10-117.569 272.837   8
   9   5  11 520.005 388.907   6
   9   5  12 1689.81 788.668   6
  -9  -6  17-73.6810 205.608   8
  -9  -6  16 341.973 122.401   8
  -9  -6  15 495.857 573.496   8
  -9  -6  14 500.520 427.579   8
  -9  -6  13 384.979 326.417   8
  -9  -6  12-430.057 491.293   8
  -9  -6  11 387.211 411.456   8
  -9  -6  10 2032.86 873.977   8
  -9  -6   9 3154.88 1075.44   8
  -9  -6   8 382.586 297.374   8
  -9  -6   7-144.281 318.950   8
  -9  -6   6 147.999 463.362   8
  -9  -6   5-210.012 364.776   8
  -9  -6   4-186.799 327.875   8
  -9  -6   3 2173.17 929.837   8
  -9  -6   2 9435.95 1857.63   8
  -9  -6   1 440.600 501.483   8
  -9  -6   0 1114.72 751.825   8
  -9  -6  -1 478.452 538.244   8
  -9  -6  -2-139.918 387.592   8
  -9  -6  -3 22.0534 170.462   8
  -9  -6  -4-418.741 576.509   8
  -9  -6  -5 456.092 433.039   8
  -9  -6  -6 1128.39 711.435   8
  -9  -6  -7 1122.42 670.750   8
  -9  -6  -8 187.826 210.054   8
  -9  -6  -9 544.434 344.079   8
   9   6  10 156.562 465.834   6
   9   6  11-330.175 359.298   6
   9   6  12 103.844 345.600   6
  -9  -7  18 99.0973 292.057   8
  -9  -7  17 68.0690 202.346   8
  -9  -7  16 231.638 292.198   8
  -9  -7  15-134.361 323.284   8
  -9  -7  14 781.279 615.088   8
  -9  -7  13-462.537 400.495   8
  -9  -7  12 952.024 669.203   8
  -9  -7  11 258.817 261.862   8
  -9  -7  10-65.2824 406.924   8
  -9  -7   9 450.962 290.876   8
  -9  -7   8-1.02706 200.038   8
  -9  -7   7-290.857 489.174   8
  -9  -7   6 176.103 346.485   8
  -9  -7   5 737.883 664.500   8
  -9  -7   4 540.676 699.316   8
  -9  -7   3 2104.14 916.370   8
  -9  -7   2-253.772 509.145   8
  -9  -7   1-28.3045 393.696   8
  -9  -7   0-132.770 344.286   8
  -9  -7  -1 256.193 349.236   8
  -9  -7  -2 189.653 422.213   8
  -9  -7  -3-281.290 500.885   8
  -9  -7  -4-74.3478 348.767   8
  -9  -7  -5 687.747 583.510   8
  -9  -7  -6 1284.87 676.520   8
  -9  -7  -7 1142.65 709.240   8
  -9  -7  -8-197.886 305.940   8
   9   7   9-201.219 296.616   6
   9   7  10 338.314 401.236   6
   9   7  11 84.5040 182.205   6
   9   7  12 1.04975 281.223   6
  -9  -8  18-1.11084 558.383   8
  -9  -8  17 521.063 501.793   8
  -9  -8  16-424.560 419.477   8
  -9  -8  15 380.640 511.812   8
  -9  -8  14 1921.76 909.314   8
  -9  -8  13 91.1067 334.611   8
  -9  -8  12 1009.28 657.671   8
  -9  -8  11 300.705 514.845   8
  -9  -8  10 182.796 361.532   8
  -9  -8   9 89.6067 319.255   8
  -9  -8   8-158.005 230.839   8
  -9  -8   7 685.892 541.554   8
  -9  -8   6-50.9082 585.711   8
  -9  -8   5-254.515 518.973   8
  -9  -8   4-1465.72 760.907   8
  -9  -8   3 442.913 469.959   8
  -9  -8   2 1186.37 705.211   8
  -9  -8   1 2266.66 950.864   8
  -9  -8   0-51.5183 286.487   8
  -9  -8  -1-806.044 572.136   8
  -9  -8  -2 46.6537 226.314   8
  -9  -8  -3 302.186 390.236   8
  -9  -8  -4 2169.42 878.446   8
  -9  -8  -5 1454.87 731.369   8
  -9  -8  -6 6931.45 1699.66   8
  -9  -8  -7 220.756 321.173   5
  -9  -8  -7 445.534 546.339   8
   9   8   8 729.815 573.797   6
   9   8   9 1233.69 779.211   6
   9   8  10-1.05737 180.518   6
  -9  -9  18-451.222 460.534   8
  -9  -9  17 253.502 504.269   8
  -9  -9  16-139.207 275.258   8
  -9  -9  15 1409.21 799.219   8
  -9  -9  14 549.963 508.813   8
  -9  -9  13-738.937 557.785   8
  -9  -9  12 488.924 426.903   8
  -9  -9  11 1141.36 683.877   8
  -9  -9  10 1778.45 826.508   8
  -9  -9   9 44.7926 517.496   8
  -9  -9   8 3443.92 1287.23   8
  -9  -9   7-109.564 341.211   8
  -9  -9   6 669.534 590.902   8
  -9  -9   5 85.6675 259.815   8
  -9  -9   4 1981.31 981.398   8
  -9  -9   3 61.0297 366.012   8
  -9  -9   2-93.6366 299.888   8
  -9  -9   1 391.190 483.539   8
  -9  -9   0 34.0163 199.640   8
  -9  -9  -1-744.009 565.986   8
  -9  -9  -2 119.015 279.953   8
  -9  -9  -3 489.223 454.934   8
  -9  -9  -4 2339.93 998.492   8
  -9  -9  -5 248.268 387.151   8
  -9  -9  -5-1.38599 506.743   5
  -9  -9  -6 1632.96 946.544   5
  -9  -9  -6 391.060 418.950   8
   9   9   7 349.667 414.890   6
  -9  -9  -7 439.800 553.951   8
   9   9   8 636.206 550.294   6
  -9 -10  16 407.815 557.545   8
  -9 -10  15-1966.94 920.311   8
  -9 -10  14 122.591 295.378   8
  -9 -10  13 2422.15 1048.56   8
  -9 -10  12 953.001 650.964   8
  -9 -10  11 2293.85 962.679   8
  -9 -10  10 600.638 487.288   8
  -9 -10   9 565.510 403.403   8
  -9 -10   8 964.922 567.915   8
  -9 -10   7 7.86844 227.817   8
  -9 -10   6 629.829 480.899   8
  -9 -10   5 127.809 329.700   8
  -9 -10   4 681.597 510.774   8
  -9 -10   3 4499.46 1375.96   8
  -9 -10   2 422.483 593.276   8
  -9 -10   1 275.256 320.733   8
  -9 -10   0-78.3491 401.288   8
  -9 -10  -1 381.964 419.593   8
  -9 -10  -2 10.0563 322.287   8
  -9 -10  -3-224.092 335.031   8
  -9 -10  -4 135.699 408.354   8
  -9 -10  -4-157.491 323.879   5
  -9 -10  -5 159.712 223.756   8
  -9 -10  -5 1098.24 753.825   5
   9  10   6 7.53615 203.806   6
  -9 -10  -6 1044.01 757.299   8
  -9 -11  14 897.979 578.242   8
  -9 -11  13 61.4270 218.458   8
  -9 -11  12 1098.58 658.661   8
  -9 -11  11 1433.39 899.044   8
  -9 -11  10 284.625 242.324   8
  -9 -11   9 413.537 432.882   8
  -9 -11   8 138.144 444.537   8
  -9 -11   7 94.1352 209.564   8
  -9 -11   6-426.055 451.157   8
  -9 -11   5 209.055 324.410   8
  -9 -11   4 658.706 548.791   8
  -9 -11   3 280.462 307.504   8
  -9 -11   2-328.867 387.373   8
  -9 -11   1 704.475 564.487   8
  -9 -11   0 34.2930 192.984   8
  -9 -11  -1 781.709 803.223   8
  -9 -11  -2 126.884 190.951   8
  -9 -11  -3 1099.63 780.028   8
  -9 -11  -3 611.487 667.349   5
  -9 -11  -4-308.613 378.369   8
  -9 -11  -4-589.339 579.724   5
  -9 -11  -5 139.441 265.696   8
  -9 -12  12 405.369 312.701   8
  -9 -12  11 1713.04 956.562   8
  -9 -12  10 1284.92 766.539   8
  -9 -12   9 1165.10 803.967   8
  -9 -12   8-768.457 593.462   8
  -9 -12   7 1505.87 866.601   8
  -9 -12   6 112.836 309.184   8
  -9 -12   5 259.038 334.905   8
  -9 -12   4 45.1393 323.136   8
  -9 -12   3 122.509 381.816   8
  -9 -12   2 1865.16 909.374   8
  -9 -12   1-131.346 406.969   8
  -9 -12   0-83.8894 234.259   8
  -9 -12  -1 655.316 635.908   8
  -9 -12  -2 1099.78 714.300   8
  -9 -12  -2 362.936 629.582   5
  -9 -12  -3-429.576 445.127   8
  -9 -12  -4 1055.33 665.859   8
  -9 -13   9 273.942 454.100   8
  -9 -13   8 648.166 523.399   8
  -9 -13   7 1335.15 813.446   8
  -9 -13   6 1440.51 866.241   8
  -9 -13   5 67.6921 243.673   8
  -9 -13   4 1385.14 867.086   8
  -9 -13   3 110.628 238.344   8
  -9 -13   2 670.282 588.043   8
  -9 -13   1-63.7139 204.679   8
  -9 -13   0 388.155 354.595   8
  -9 -13  -1-76.0489 252.082   8
  -9 -13  -1-368.220 459.579   5
  -9 -13  -2 1999.10 1008.95   8
  -9 -14   3-919.156 652.607   8
  -9 -14   2-482.327 497.425   8
  -9 -14   1-568.166 520.373   8
  -9 -14   0-329.532 403.728   8
  -9 -14  -1 1099.33 811.154   8
 -10  15  -3-35.6164 193.551   2
 -10  15  -4 971.051 735.259   2
 -10  15  -5 552.974 546.402   2
 -10  15  -6 865.096 754.427   2
 -10  14   2-423.984 527.162   3
 -10  14  -2 615.079 628.383   2
 -10  14  -3-862.087 640.757   2
 -10  14  -4 1135.17 768.529   2
 -10  14  -5-606.185 559.696   2
 -10  14  -6-134.753 306.520   2
 -10  14  -7 638.978 536.953   2
 -10  14  -8-278.392 422.187   2
  10 -13  -5 910.119 734.881   4
  10 -13  -4 818.305 542.858   4
  10 -13  -3 23.2870 411.712   4
 -10  13   3 614.409 585.738   3
 -10  13   2 1406.87 627.708   3
 -10  13  -1 455.291 451.455   2
 -10  13  -2 308.301 451.058   2
 -10  13  -3 41.0241 451.201   2
 -10  13  -4 528.931 570.728   2
 -10  13  -5 1.32387 141.391   2
 -10  13  -6-47.7141 214.111   2
 -10  13  -7 1330.98 830.501   2
 -10  13  -8-513.219 541.310   2
 -10  13  -9 1624.85 1066.96   2
  10 -12  -6 1820.45 1019.84   4
  10 -12  -5-1314.97 853.972   4
  10 -12  -4 2113.32 949.029   4
 -10  12   4 1048.42 732.679   3
  10 -12  -3 240.571 269.500   4
 -10  12   3 609.504 574.350   3
  10 -12  -2-909.919 652.477   4
 -10  12   2 1068.98 816.104   3
 -10  12   1-251.741 442.401   3
 -10  12   0 765.008 599.210   2
 -10  12  -1 917.042 759.890   2
 -10  12  -2 2857.61 1136.36   2
 -10  12  -3 803.199 563.322   2
 -10  12  -4-957.298 670.053   2
 -10  12  -5 2245.05 1106.21   2
 -10  12  -6 1565.24 917.336   2
 -10  12  -7 1818.81 958.148   2
 -10  12  -8-1130.61 773.060   2
 -10  12  -9 667.763 792.642   2
 -10  12 -10 1062.61 855.054   2
  10 -11  -7 3060.75 1400.00   4
  10 -11  -6 656.878 472.969   4
  10 -11  -5 2601.97 1235.03   4
  10 -11  -4 1295.46 878.036   4
 -10  11   4 806.065 410.335   3
  10 -11  -3 1034.42 767.594   4
 -10  11   3 1170.09 767.017   3
  10 -11  -2 268.527 362.219   4
 -10  11   2-112.258 386.398   3
 -10  11   1 262.420 328.656   2
  10 -11  -1 1351.41 827.649   4
 -10  11   0 637.997 560.215   2
 -10  11   0-1111.44 756.514   3
  10 -11   0 487.257 522.628   4
 -10  11  -1-4.45828 158.062   2
 -10  11  -1 431.253 197.088   3
 -10  11  -2 3910.84 1249.88   2
 -10  11  -3 3.53771 151.464   2
 -10  11  -4 834.063 594.392   2
 -10  11  -5 1572.87 983.557   2
 -10  11  -6 456.069 713.197   2
 -10  11  -7-111.810 268.509   2
 -10  11  -8 1486.75 765.118   2
 -10  11  -9 1262.06 762.424   2
 -10  11 -10-226.479 382.844   2
 -10  11 -11 286.757 611.805   2
  10 -10  -8 1419.91 970.462   4
  10 -10  -7 844.270 815.486   4
  10 -10  -6 3710.01 1413.64   4
  10 -10  -5 404.702 650.627   4
 -10  10   5 1389.04 677.881   3
  10 -10  -4 575.180 540.520   4
 -10  10   4 32.0315 489.391   3
  10 -10  -3 1716.11 884.574   4
 -10  10   3 907.676 699.041   3
  10 -10  -2 682.791 748.558   4
 -10  10   2 124.780 303.478   3
 -10  10   2 114.237 255.864   2
 -10  10   1 83.5545 249.776   2
  10 -10  -1 290.030 175.889   4
 -10  10   0-24.5388 230.145   2
 -10  10   0 355.564 409.324   3
  10 -10   0 146.729 315.403   4
 -10  10  -1 426.456 496.833   3
  10 -10   1 232.374 314.082   4
 -10  10  -2 847.478 640.224   2
 -10  10  -2 66.0418 266.887   3
 -10  10  -3 1548.25 787.156   2
 -10  10  -3 804.288 653.900   3
 -10  10  -4-506.940 493.006   2
 -10  10  -5 576.118 536.375   2
 -10  10  -6-812.981 625.157   2
 -10  10  -7-243.271 375.791   2
 -10  10  -8-433.261 481.391   2
 -10  10  -9 563.764 545.306   2
 -10  10 -10 529.826 578.991   2
 -10  10 -10 774.564 233.918   3
 -10  10 -11 675.785 185.273   2
 -10  10 -11 152.917 462.241   3
 -10  10 -12 1250.32 910.059   2
 -10  10 -12-812.133 733.571   3
 -10  10 -13 1966.72 1182.64   3
  10  -9  -9 2352.70 1247.00   4
  10  -9  -8-317.330 441.310   4
  10  -9  -7 666.144 284.303   4
  10  -9  -6 996.032 698.579   4
 -10   9   6 336.549 401.535   3
  10  -9  -5-169.646 318.734   4
 -10   9   5 162.109 644.368   3
  10  -9  -4-210.767 547.178   4
 -10   9   4-39.2397 354.724   3
  10  -9  -3 969.219 674.826   4
 -10   9   3 1351.88 762.703   3
 -10   9   3 392.710 269.508   2
 -10   9   2 400.141 286.499   3
 -10   9   2 1035.08 614.304   2
  10  -9  -2 1171.70 763.031   4
 -10   9   1 1558.10 907.346   3
  10  -9  -1 282.898 487.897   4
 -10   9   1 466.912 401.441   2
 -10   9   0 2943.02 1057.58   2
  10  -9   0 1181.91 596.844   4
 -10   9  -1-123.286 209.890   2
 -10   9  -1 155.613 639.980   3
  10  -9   1 359.302 372.451   4
 -10   9  -2 1470.57 773.347   2
 -10   9  -2 3000.39 1259.92   3
 -10   9  -3 1583.67 855.365   2
 -10   9  -3 446.279 594.884   3
 -10   9  -4 280.494 304.910   2
 -10   9  -4 129.321 390.711   3
 -10   9  -5-77.9217 208.870   2
 -10   9  -5 539.159 405.046   3
 -10   9  -6-237.122 176.210   2
 -10   9  -6 246.769 511.275   3
 -10   9  -7 67.4465 366.628   2
 -10   9  -7 1379.66 722.623   3
 -10   9  -8 90.6495 461.570   2
 -10   9  -8-152.707 392.182   3
 -10   9  -9 1292.47 734.311   2
 -10   9  -9 2467.27 1117.97   3
 -10   9 -10 1715.94 1016.15   2
 -10   9 -10 135.884 344.034   3
 -10   9 -11 536.598 568.760   2
 -10   9 -11 1757.01 1013.28   3
 -10   9 -12 838.675 916.732   2
 -10   9 -12 860.650 830.585   3
 -10   9 -13 1924.63 1130.57   3
 -10   9 -14 637.809 636.662   3
  10  -8 -10 554.438 306.177   4
  10  -8  -9-788.586 675.112   4
  10  -8  -8 1224.42 818.917   4
  10  -8  -7 853.851 603.684   4
  10  -8  -6-818.754 642.118   4
 -10   8   6-287.286 400.352   3
  10  -8  -5 66.9319 251.982   4
 -10   8   5 474.782 503.472   3
 -10   8   4 2933.26 1127.12   3
 -10   8   4 2347.02 894.155   2
  10  -8  -4 5414.42 1543.33   4
 -10   8   3 1369.36 829.799   3
 -10   8   3 1366.86 691.462   2
  10  -8  -3 1204.42 813.798   4
 -10   8   2-139.378 249.937   2
  10  -8  -2-53.1019 430.608   4
 -10   8   1 7177.21 1848.69   3
  10  -8  -1 5330.87 1461.86   4
 -10   8   1 5309.15 1451.19   2
 -10   8   0 1414.04 808.066   2
 -10   8   0 468.966 410.800   3
  10  -8   0 1191.56 618.111   4
 -10   8  -1 2836.29 1026.20   2
 -10   8  -1 3539.53 1338.25   3
  10  -8   1 2926.49 1049.48   4
 -10   8  -2 2503.76 1014.45   2
 -10   8  -2 1666.24 936.489   3
 -10   8  -3 805.110 562.413   2
 -10   8  -3 1388.16 927.343   3
 -10   8  -4 1284.89 877.328   2
 -10   8  -4 312.114 419.174   3
 -10   8  -5 636.142 458.624   2
 -10   8  -5 579.866 426.117   3
 -10   8  -6-58.2461 351.932   2
 -10   8  -6 814.904 660.018   3
 -10   8  -7-680.160 575.161   2
 -10   8  -7 493.662 278.004   3
 -10   8  -8 462.051 532.594   2
 -10   8  -8 765.419 819.743   3
 -10   8  -9 35.9361 363.510   2
 -10   8  -9 1136.51 777.463   3
 -10   8 -10-935.043 696.364   2
 -10   8 -10 887.258 780.241   3
 -10   8 -11 800.070 846.320   2
 -10   8 -11 1908.79 1203.29   3
 -10   8 -12 453.917 521.872   2
 -10   8 -12 660.186 645.563   3
 -10   8 -13 1371.36 960.757   2
 -10   8 -13 928.024 835.175   3
 -10   8 -14-278.060 470.326   3
 -10   8 -15 832.915 788.062   3
  10  -7 -11-676.066 654.476   4
  10  -7 -10 559.853 603.142   4
  10  -7  -9 2575.43 1185.28   4
  10  -7  -8 226.984 678.182   4
  10  -7  -7 526.782 399.793   4
 -10   7   7 1328.07 726.170   3
  10  -7  -6 43.8339 253.175   4
 -10   7   6 1144.81 804.246   3
 -10   7   5 92.5082 312.420   3
 -10   7   5 5.18844 268.215   2
  10  -7  -5 76.1634 421.621   4
 -10   7   4 5955.35 1564.83   3
 -10   7   4 6270.96 1426.03   2
  10  -7  -4 8875.74 1991.82   4
 -10   7   3 553.569 549.929   3
 -10   7   3 75.2151 262.931   2
  10  -7  -3 22.2318 441.467   4
 -10   7   2 4704.87 1411.83   3
 -10   7   2 4729.80 1271.64   2
  10  -7  -2 5768.03 1495.20   4
 -10   7   1 3841.92 1327.68   3
  10  -7  -1 4609.81 1357.50   4
 -10   7   1 4714.08 1301.06   2
 -10   7   0 11782.6 2281.10   3
  10  -7   0 8875.21 1760.00   4
 -10   7   0 7467.81 1666.49   2
 -10   7  -1 1544.20 732.935   2
 -10   7  -1 2731.66 1124.30   3
 -10   7  -2-443.274 443.271   2
 -10   7  -2 480.747 555.172   3
 -10   7  -3 250.113 146.723   2
 -10   7  -3-650.715 566.783   3
 -10   7  -4 279.356 420.181   2
 -10   7  -4-185.864 328.219   3
 -10   7  -5 126.351 208.737   2
 -10   7  -5 1031.39 774.677   3
 -10   7  -6 498.438 470.476   2
 -10   7  -6-472.455 746.422   3
 -10   7  -7-233.250 470.057   2
 -10   7  -7-93.0605 361.113   3
 -10   7  -8 1156.54 774.385   2
 -10   7  -8 1334.58 918.679   3
 -10   7  -9 196.669 452.209   2
 -10   7  -9 1299.64 780.508   3
 -10   7 -10 3158.61 1248.78   2
 -10   7 -10 1453.98 845.292   3
 -10   7 -11-1244.36 805.005   2
 -10   7 -11 1325.00 895.373   3
 -10   7 -12 1237.06 743.742   2
 -10   7 -12 727.549 749.289   3
 -10   7 -13-1174.16 815.818   2
 -10   7 -13-153.770 353.175   3
 -10   7 -14 252.250 581.764   3
 -10   7 -15-792.624 709.772   3
  10  -6 -11 1055.59 795.740   4
  10  -6 -10 2468.43 1198.18   4
  10  -6  -9 195.168 370.507   4
  10  -6  -8 701.378 734.345   4
 -10   6   7 2496.54 1010.76   3
  10  -6  -7 2350.42 1046.00   4
 -10   6   6 866.745 592.182   3
 -10   6   6 573.675 542.500   2
  10  -6  -6 1495.28 797.573   4
 -10   6   5 1846.86 867.334   3
 -10   6   5 2506.69 859.831   2
  10  -6  -5 2175.70 874.950   4
 -10   6   4-50.0464 455.483   3
 -10   6   4 23.3938 328.479   2
  10  -6  -4-320.366 512.205   4
 -10   6   3 323.658 243.323   3
 -10   6   3 1995.99 858.929   2
  10  -6  -3 3014.75 1104.78   4
 -10   6   2-176.884 611.954   3
 -10   6   2 887.182 565.697   2
  10  -6  -2 324.462 378.506   4
 -10   6   1 53.1923 211.206   3
  10  -6  -1 75.0125 385.204   4
 -10   6   1-29.4851 391.447   2
 -10   6   0 1114.78 740.152   3
 -10   6   0 508.722 570.384   2
 -10   6  -1 777.365 371.091   3
 -10   6  -1-611.588 503.534   2
 -10   6  -2-128.367 413.068   2
 -10   6  -2-232.955 521.550   3
 -10   6  -3 127.578 166.116   2
 -10   6  -3 367.656 361.203   3
 -10   6  -4-403.638 575.631   2
 -10   6  -4 163.562 236.246   3
 -10   6  -5 401.588 659.350   2
 -10   6  -5 602.158 731.055   3
 -10   6  -6 623.572 597.541   2
 -10   6  -6-78.3323 252.742   3
 -10   6  -7 1560.10 867.159   2
 -10   6  -7 1664.02 942.341   3
 -10   6  -8-259.418 200.543   2
 -10   6  -8 337.441 444.491   3
 -10   6  -9 6995.59 1808.51   2
 -10   6  -9 7336.67 1975.05   3
 -10   6 -10 302.297 332.052   2
 -10   6 -10 905.275 728.284   3
 -10   6 -11 1638.03 955.685   2
 -10   6 -11 217.444 481.983   3
 -10   6 -12 995.527 737.345   2
 -10   6 -12-49.9145 243.621   3
 -10   6 -13 425.867 489.742   2
 -10   6 -13-1.50045 315.620   3
 -10   6 -14 2037.44 1050.67   2
 -10   6 -14-987.057 759.535   3
 -10   6 -15 974.337 771.753   3
 -10   6 -16-7.96891 632.438   3
  10  -5 -12-194.412 680.123   4
  10  -5 -11 1366.18 924.589   4
  10  -5 -10 388.319 497.196   4
  10  -5  -9 1125.13 828.365   4
 -10   5   8 1199.46 597.632   8
  10  -5  -8 2391.15 1140.33   4
 -10   5   7 791.995 505.185   8
  10  -5  -7 1322.43 824.255   4
 -10   5   6 444.943 403.180   3
 -10   5   6 2301.42 833.080   2
  10  -5  -6 1472.74 819.879   4
 -10   5   5 740.740 413.045   3
 -10   5   5 1465.16 740.182   2
  10  -5  -5 984.179 691.221   4
 -10   5   4 2458.00 970.361   3
 -10   5   4 3448.17 1101.10   2
  10  -5  -4 3333.78 1194.37   4
 -10   5   3 1224.85 618.711   3
 -10   5   3-81.7217 311.393   2
  10  -5  -3 417.620 724.746   4
 -10   5   2 910.249 737.871   3
 -10   5   2-2.85970 165.279   2
  10  -5  -2 403.100 577.119   4
 -10   5   1 272.953 258.568   3
 -10   5   1 13.7098 392.401   2
 -10   5   0 90.2778 427.101   3
 -10   5   0 198.125 302.405   2
 -10   5  -1 516.223 378.089   3
 -10   5  -1-471.917 566.241   2
 -10   5  -2 1412.64 971.017   3
 -10   5  -2-72.1968 362.664   2
 -10   5  -3-1315.24 768.365   3
 -10   5  -3-135.309 218.973   2
 -10   5  -4 35.9015 257.898   2
 -10   5  -4 35.6516 203.506   3
 -10   5  -5 515.973 532.460   2
 -10   5  -5-67.5954 562.975   3
 -10   5  -6 17.8316 440.053   2
 -10   5  -6-168.362 668.963   3
 -10   5  -7-417.319 428.331   2
 -10   5  -7 751.657 580.992   3
 -10   5  -8 3141.85 1149.33   2
 -10   5  -8 2629.10 1117.92   3
 -10   5  -9 707.031 738.530   2
 -10   5  -9-851.428 661.404   3
 -10   5 -10-388.515 623.182   2
 -10   5 -10-371.486 468.968   3
 -10   5 -11-463.761 508.115   2
 -10   5 -11 191.021 383.953   3
 -10   5 -12 415.993 570.998   2
 -10   5 -12-1002.37 743.982   3
 -10   5 -13-1366.42 869.662   2
 -10   5 -13-468.320 534.723   3
 -10   5 -14-467.053 534.618   2
 -10   5 -14-839.138 703.447   3
 -10   5 -15 84.4651 442.008   3
 -10   5 -16 223.316 435.216   3
  10  -4 -13 367.334 511.146   4
  10  -4 -12 452.203 729.194   4
  10  -4 -11 3695.03 1416.06   4
  10  -4 -10 1853.78 919.230   4
 -10   4   9 555.804 399.947   8
  10  -4  -9 74.3242 353.759   4
 -10   4   8 3456.21 1058.91   8
  10  -4  -8 4194.54 1482.28   4
 -10   4   7 1141.86 595.093   8
  10  -4  -7 530.284 404.422   4
  10  -4  -6 102.187 469.231   4
 -10   4   5 3660.73 1070.47   2
  10  -4  -5 4743.97 1411.00   4
 -10   4   4 4088.25 1282.07   3
 -10   4   4 3584.97 1101.52   2
  10  -4  -4 5114.44 1452.40   4
 -10   4   3 1216.41 800.461   3
 -10   4   3 1644.79 788.902   2
  10  -4  -3 170.788 205.445   4
 -10   4   2 839.809 634.022   3
 -10   4   2 614.879 432.759   2
 -10   4   1 412.837 413.160   3
 -10   4   1 94.0100 240.791   2
 -10   4   0 601.732 483.515   3
 -10   4   0 433.875 481.097   2
 -10   4  -1-197.640 445.594   3
 -10   4  -1-656.288 596.380   2
 -10   4  -2-218.317 347.566   3
 -10   4  -2-64.4641 566.705   2
 -10   4  -3 770.097 660.006   3
 -10   4  -3 614.560 607.288   2
 -10   4  -4 204.998 317.453   3
 -10   4  -4-147.320 400.743   2
 -10   4  -5 553.295 646.950   3
 -10   4  -5 608.364 595.691   2
 -10   4  -6 487.829 515.451   3
 -10   4  -6 31.8989 255.068   2
 -10   4  -7 1406.68 568.435   2
 -10   4  -7 1340.28 900.781   3
 -10   4  -8-20.0624 542.392   2
 -10   4  -8 1007.74 677.149   3
 -10   4  -9-245.718 368.496   2
 -10   4  -9 605.317 437.112   3
 -10   4 -10 205.519 369.017   2
 -10   4 -10 113.739 493.860   3
 -10   4 -11-343.039 451.671   2
 -10   4 -11 839.410 677.001   3
 -10   4 -12 69.7020 230.906   2
 -10   4 -12 891.242 689.133   3
 -10   4 -13-677.114 617.443   2
 -10   4 -13 371.587 474.524   3
 -10   4 -14 12.1334 370.201   2
 -10   4 -14 326.789 540.383   3
 -10   4 -15 187.492 393.704   3
  10  -3 -13-203.654 549.633   4
  10  -3 -12-305.684 495.255   4
  10  -3 -11 2318.26 1125.62   4
 -10   3  10 310.906 376.819   8
  10  -3 -10-491.991 533.034   4
 -10   3   9 2440.70 884.577   8
  10  -3  -9 3149.69 1309.25   4
 -10   3   8-130.423 160.997   8
  10  -3  -8-67.1141 240.379   4
 -10   3   7 1466.52 616.231   8
  10  -3  -7 882.762 520.571   4
  10  -3  -6 1310.90 847.368   4
 -10   3   6 1628.00 654.697   8
 -10   3   5 2238.85 817.438   2
  10  -3  -5 1316.32 715.071   4
 -10   3   4 139.585 183.630   2
  10  -3  -4 1380.36 780.493   4
 -10   3   3-81.4938 309.466   3
 -10   3   3 211.978 423.185   2
 -10   3   2 39.0032 288.243   3
 -10   3   2-295.872 556.844   2
 -10   3   1 1510.11 785.495   3
 -10   3   1 1842.72 696.750   2
 -10   3   0 1309.55 938.032   3
 -10   3   0 2425.66 956.994   2
 -10   3  -1 1124.46 739.624   3
 -10   3  -1-11.3377 263.782   2
 -10   3  -2 496.840 396.712   3
 -10   3  -2-189.243 493.224   2
 -10   3  -3 1194.65 761.851   3
 -10   3  -3 353.506 292.923   2
 -10   3  -4-120.032 188.276   3
 -10   3  -4 135.793 221.015   2
 -10   3  -5-231.972 476.681   3
 -10   3  -5 515.837 595.437   2
 -10   3  -6 545.354 517.336   3
 -10   3  -6 1466.49 798.279   2
 -10   3  -7 549.297 569.819   3
 -10   3  -7 588.992 473.066   2
 -10   3  -8 579.544 608.036   3
 -10   3  -8 9.98596 427.141   2
 -10   3  -9 1011.26 798.911   3
 -10   3  -9 135.084 462.663   2
 -10   3 -10-246.227 497.333   3
 -10   3 -10 1192.67 803.464   2
 -10   3 -11 403.605 228.335   3
 -10   3 -11 305.190 237.951   2
 -10   3 -12 38.2156 350.540   3
 -10   3 -12-1042.08 747.825   2
 -10   3 -13 412.617 341.145   3
 -10   3 -13 971.696 977.481   2
 -10   3 -14 485.959 583.716   3
 -10   3 -14 868.502 720.001   2
 -10   3 -15 1510.91 1029.01   2
  10  -2 -14-479.376 578.801   4
  10  -2 -13-221.249 429.506   4
  10  -2 -12 1247.00 924.112   4
 -10   2  11-214.746 280.079   8
  10  -2 -11 86.7995 323.693   4
 -10   2  10 34.3376 377.355   8
  10  -2 -10-49.8701 371.120   4
 -10   2   9 1921.63 823.328   8
  10  -2  -9 2329.62 1031.35   4
 -10   2   8 2488.46 932.754   8
  10  -2  -8 1886.05 929.726   4
  10  -2  -7 672.216 626.996   4
 -10   2   7 1106.35 663.212   8
  10  -2  -6-101.887 250.111   4
 -10   2   6-753.293 526.291   8
 -10   2   5-107.486 173.615   8
 -10   2   4 271.793 158.596   2
 -10   2   3 1416.11 718.214   2
 -10   2   2 1870.40 793.497   2
 -10   2   1 3460.31 1152.28   2
 -10   2   0 1594.19 757.259   3
 -10   2   0 2068.36 845.266   2
 -10   2  -1 3942.50 1308.86   3
 -10   2  -1 2306.89 895.533   2
 -10   2  -2 725.456 576.589   3
 -10   2  -2 1224.82 685.004   2
 -10   2  -3-217.343 232.141   3
 -10   2  -3 44.5477 285.996   2
 -10   2  -4 2846.82 1141.36   3
 -10   2  -4 2713.52 1052.30   2
 -10   2  -5 955.830 726.570   3
 -10   2  -5 2638.80 987.119   2
 -10   2  -6 718.085 618.195   3
 -10   2  -6-1135.41 711.285   2
 -10   2  -7-138.243 206.012   3
 -10   2  -7-72.6020 331.374   2
 -10   2  -8 503.384 608.345   3
 -10   2  -8-306.326 511.855   2
 -10   2  -9 1812.75 942.310   3
 -10   2  -9 561.653 590.802   2
 -10   2 -10 372.668 463.263   3
 -10   2 -10-429.385 482.546   2
 -10   2 -11-129.361 426.492   2
 -10   2 -12 1.40361 696.553   2
 -10   2 -13 183.723 687.844   2
 -10   2 -14 366.571 474.481   2
 -10   2 -15 50.6229 250.473   2
  10  -1 -14 265.890 437.502   4
  10  -1 -13 881.859 750.148   4
  10  -1 -12 288.539 426.876   4
 -10   1  11 330.877 367.384   8
  10  -1 -11 742.509 428.018   4
 -10   1  10-122.541 135.115   8
  10  -1 -10-319.572 485.089   4
 -10   1   9 290.661 241.538   8
  10  -1  -9 955.131 669.488   4
 -10   1   8-101.264 202.846   8
  10  -1  -8-791.106 616.686   4
  10  -1  -7 1510.85 759.947   4
 -10   1   7-276.302 383.559   8
 -10   1   6 1975.20 820.880   8
 -10   1   5-492.379 638.958   8
 -10   1   4 926.744 654.408   8
 -10   1   3 4213.38 1157.07   2
 -10   1   2 6929.36 1586.12   2
 -10   1   1 3320.53 1131.73   2
 -10   1   0 3799.27 1181.04   2
 -10   1  -1 1225.57 519.167   2
 -10   1  -2 672.908 300.445   2
 -10   1  -3 3393.73 1170.89   2
 -10   1  -4 770.880 521.064   2
 -10   1  -5 118.333 461.568   2
 -10   1  -6 316.152 403.807   2
 -10   1  -7 24.2346 217.377   2
 -10   1  -8 569.795 728.188   2
 -10   1  -9 327.068 376.848   2
 -10   1 -10 289.102 391.015   2
 -10   1 -11-256.863 394.247   2
 -10   1 -12-282.648 412.938   2
 -10   1 -13 315.422 439.369   2
 -10   1 -14 285.711 659.727   2
 -10   1 -15 451.619 764.465   2
  10   0 -15-206.507 838.554   4
  10   0 -14 154.816 307.642   4
  10   0 -13 261.465 250.461   4
 -10   0  12 1092.45 580.876   8
  10   0 -12 1375.07 906.706   4
 -10   0  11 3740.94 1104.45   8
  10   0 -11 3844.33 1379.30   4
 -10   0  10 233.377 379.403   8
  10   0 -10 719.970 796.228   4
  10   0  -9 571.536 670.245   4
 -10   0   9 236.493 364.765   8
 -10   0   8 632.953 495.852   8
 -10   0   7 1191.49 769.188   8
 -10   0   6-33.7924 386.269   8
 -10   0   5 144.039 275.179   8
 -10   0   4 4399.27 1207.73   8
 -10   0   3 2531.31 1080.68   8
 -10   0   2 2922.68 1039.21   2
 -10   0   1 2089.45 877.725   2
 -10   0   0 1314.73 676.335   2
 -10   0  -1-449.743 448.149   2
 -10   0  -2-686.001 543.715   2
 -10   0  -3 398.592 493.619   2
 -10   0  -4 1960.72 903.006   2
 -10   0  -5 632.907 534.849   2
 -10   0  -6 408.714 477.517   2
 -10   0  -7 923.984 603.723   2
 -10   0  -8 1312.04 814.386   2
 -10   0  -9 1270.90 701.160   2
 -10   0 -10 474.691 557.097   2
 -10   0 -11 430.955 484.951   2
 -10   0 -12 1290.05 877.859   2
 -10   0 -13-419.339 494.053   2
 -10   0 -14-272.846 410.496   2
 -10   0 -15-1.51290 498.514   2
  10   1 -15 1054.47 839.555   4
  10   1 -14 1501.94 1013.21   4
 -10  -1  13 1466.49 697.165   8
  10   1 -13 123.813 505.117   4
 -10  -1  12 688.524 493.645   8
  10   1 -12-839.841 563.991   4
 -10  -1  11 959.030 524.531   8
  10   1 -11 79.5314 280.818   4
 -10  -1  10 118.444 185.228   8
 -10  -1   9 535.280 469.332   8
 -10  -1   8-514.586 450.538   8
 -10  -1   7 2512.54 922.789   8
 -10  -1   6-7.07265 272.797   8
 -10  -1   5 2693.47 944.152   8
 -10  -1   4 1765.39 909.059   8
 -10  -1   3 1145.57 743.552   8
 -10  -1   2-61.1173 534.092   8
 -10  -1   1 722.403 661.968   2
 -10  -1   1 11.6997 248.773   8
 -10  -1   0 4086.80 1269.18   2
 -10  -1  -1 2714.18 951.066   2
 -10  -1  -2-1382.53 759.605   2
 -10  -1  -3 1855.15 830.702   2
 -10  -1  -4-237.514 266.063   2
 -10  -1  -5 2122.58 938.690   2
 -10  -1  -6-361.725 431.161   2
 -10  -1  -7 772.323 726.426   2
 -10  -1  -8 60.6290 235.017   2
 -10  -1  -9 1078.27 737.541   2
 -10  -1 -10 368.481 254.483   2
 -10  -1 -11 406.940 472.054   2
 -10  -1 -12-165.385 203.235   2
 -10  -1 -13 1304.04 916.684   2
 -10  -1 -14-287.228 434.339   2
  10   2 -15 1441.91 835.766   4
 -10  -2  14 400.462 380.127   8
  10   2 -14-1277.34 863.729   4
 -10  -2  13 402.989 356.426   8
 -10  -2  12 263.651 326.094   8
 -10  -2  11 52.2321 217.250   8
 -10  -2  10-692.467 515.749   8
 -10  -2   9 636.263 506.607   8
 -10  -2   8-347.476 290.778   8
 -10  -2   7 2841.70 999.415   8
 -10  -2   6 999.574 505.252   8
 -10  -2   5 669.148 597.387   8
 -10  -2   4 445.717 481.249   8
 -10  -2   3 368.753 456.509   8
 -10  -2   2-308.601 373.912   8
 -10  -2   1 2852.76 1085.54   8
 -10  -2   0 64.3529 511.577   8
 -10  -2  -1 1173.24 551.446   2
 -10  -2  -1 370.610 259.490   8
 -10  -2  -2 1467.20 775.322   2
 -10  -2  -3 6353.38 1650.14   2
 -10  -2  -4 935.677 680.441   2
 -10  -2  -5 511.435 510.254   2
 -10  -2  -6 200.992 311.439   2
 -10  -2  -7 248.018 348.576   2
 -10  -2  -8-68.8892 193.903   2
 -10  -2  -9-297.972 415.832   2
 -10  -2 -10 451.308 422.110   2
 -10  -2 -11 651.826 688.076   2
 -10  -2 -12-364.176 466.046   2
 -10  -2 -13 467.754 555.653   2
 -10  -2 -14 1.47200 309.956   2
 -10  -3  15 848.133 479.351   8
 -10  -3  14-879.542 566.002   8
 -10  -3  13-203.130 298.787   8
 -10  -3  12 2443.77 959.187   8
 -10  -3  11-53.6607 302.417   8
 -10  -3  10 61.3824 222.370   8
 -10  -3   9 203.760 369.857   8
 -10  -3   8 91.4518 224.264   8
 -10  -3   7 1024.08 690.985   8
 -10  -3   6 4046.23 1247.92   8
 -10  -3   5 174.286 187.477   8
 -10  -3   4 1946.06 908.127   8
 -10  -3   3 831.198 652.433   8
 -10  -3   2-579.620 653.328   8
 -10  -3   1 285.100 547.940   8
 -10  -3   0 753.259 562.580   8
 -10  -3  -1-54.7648 471.548   8
 -10  -3  -2 4121.01 1272.78   8
 -10  -3  -3-16.0490 449.897   8
 -10  -3  -4 549.243 440.966   2
 -10  -3  -4 1254.44 667.911   8
 -10  -3  -5 137.506 641.268   2
 -10  -3  -5 154.336 358.117   8
 -10  -3  -6-99.3588 375.686   2
 -10  -3  -6 474.425 528.126   8
 -10  -3  -7 16.4945 325.416   2
 -10  -3  -8 824.876 528.795   2
 -10  -3  -9 586.234 694.508   2
 -10  -3 -10 2314.23 1085.53   2
 -10  -3 -11 679.707 481.408   2
 -10  -3 -11 211.460 363.159   8
 -10  -3 -12-1772.11 964.911   2
 -10  -3 -12-440.434 476.333   8
 -10  -3 -13 706.305 600.535   2
 -10  -4  15-133.280 243.601   8
 -10  -4  14 561.746 397.573   8
 -10  -4  13 2216.53 909.294   8
 -10  -4  12 319.310 461.653   8
 -10  -4  11-628.838 499.495   8
 -10  -4  10-205.313 407.102   8
 -10  -4   9 1521.46 721.872   8
 -10  -4   8 508.136 737.925   8
 -10  -4   7-86.6440 226.107   8
 -10  -4   6 1042.30 746.729   8
 -10  -4   5 2412.44 1073.71   8
 -10  -4   4 670.323 643.750   8
 -10  -4   3 495.856 649.561   8
 -10  -4   2 2071.60 943.553   8
 -10  -4   1-390.507 523.615   8
 -10  -4   0-189.092 334.085   8
 -10  -4  -1 161.630 234.882   8
 -10  -4  -2 1090.77 629.490   8
 -10  -4  -3 1359.29 755.006   8
 -10  -4  -4 1314.39 717.223   8
 -10  -4  -5 721.216 552.924   8
 -10  -4  -6 545.834 685.695   8
 -10  -4  -7 1318.25 796.906   8
 -10  -4  -8 354.959 291.660   8
 -10  -4  -9 1.25307 406.003   8
 -10  -4 -10 524.059 485.035   8
 -10  -4 -11 236.886 555.928   8
 -10  -5  16 792.021 574.708   8
 -10  -5  15 443.732 437.549   8
 -10  -5  14 339.976 411.271   8
 -10  -5  13 3128.95 1106.62   8
 -10  -5  12 623.355 580.260   8
 -10  -5  11-148.567 275.873   8
 -10  -5  10 1651.22 980.545   8
 -10  -5   9 6996.95 1678.18   8
 -10  -5   8 540.513 589.329   8
 -10  -5   7-787.984 578.448   8
 -10  -5   6 543.449 506.379   8
 -10  -5   5 902.667 632.929   8
 -10  -5   4 34.4037 241.613   8
 -10  -5   3-234.371 304.534   8
 -10  -5   2 787.449 555.236   8
 -10  -5   1 560.585 459.463   8
 -10  -5   0 1465.16 797.191   8
 -10  -5  -1 657.720 468.387   8
 -10  -5  -2-129.902 344.031   8
 -10  -5  -3 1856.81 862.461   8
 -10  -5  -4 345.554 363.484   8
 -10  -5  -5-23.9840 308.322   8
 -10  -5  -6-391.368 429.037   8
 -10  -5  -7 536.409 535.861   8
 -10  -5  -8 39.6105 281.123   8
 -10  -5  -9 1023.00 683.491   8
 -10  -5 -10-650.125 570.392   8
  10   5  11 859.989 587.795   6
 -10  -6  17 314.217 369.923   8
 -10  -6  16 159.297 251.974   8
 -10  -6  15 88.6272 221.591   8
 -10  -6  14 467.898 443.888   8
 -10  -6  13-117.535 265.401   8
 -10  -6  12-315.885 374.551   8
 -10  -6  11-324.587 353.204   8
 -10  -6  10 1556.32 891.487   8
 -10  -6   9 211.600 257.881   8
 -10  -6   8 55.6173 369.872   8
 -10  -6   7-174.597 152.076   8
 -10  -6   6 756.690 599.851   8
 -10  -6   5-607.179 518.623   8
 -10  -6   4 518.273 538.110   8
 -10  -6   3-365.836 435.621   8
 -10  -6   2 1120.06 846.790   8
 -10  -6   1 2136.79 983.451   8
 -10  -6   0 571.442 581.669   8
 -10  -6  -1 1179.96 774.064   8
 -10  -6  -2 1485.77 858.489   8
 -10  -6  -3 32.0530 315.561   8
 -10  -6  -4 1440.67 783.066   8
 -10  -6  -5 320.144 369.738   8
 -10  -6  -6 155.900 360.727   8
 -10  -6  -7-654.538 553.670   8
 -10  -6  -8-573.089 526.832   8
 -10  -6  -9 453.765 476.857   8
  10   6  10-138.971 255.260   6
  10   6  11-183.357 278.453   6
 -10  -7  17 126.699 246.156   8
 -10  -7  16-158.312 278.504   8
 -10  -7  15 523.670 501.961   8
 -10  -7  14 270.502 233.649   8
 -10  -7  13 682.961 538.284   8
 -10  -7  12-713.124 547.398   8
 -10  -7  11 136.910 374.089   8
 -10  -7  10 183.648 377.200   8
 -10  -7   9-744.070 573.058   8
 -10  -7   8 1308.49 744.699   8
 -10  -7   7 2240.93 970.439   8
 -10  -7   6 3174.77 1075.92   8
 -10  -7   5-8.09751 304.539   8
 -10  -7   4 377.762 223.276   8
 -10  -7   3 811.813 467.004   8
 -10  -7   2-1051.01 675.940   8
 -10  -7   1 60.0571 546.309   8
 -10  -7   0 373.257 485.243   8
 -10  -7  -1 207.336 572.113   8
 -10  -7  -2 366.066 319.170   8
 -10  -7  -3-612.453 533.039   8
 -10  -7  -4-413.192 453.761   8
 -10  -7  -5 1261.22 827.663   8
 -10  -7  -6-41.7910 360.714   8
 -10  -7  -7 2255.55 1026.96   8
 -10  -7  -8 531.512 506.374   8
  10   7   9 197.602 404.545   6
 -10  -8  16 431.589 448.571   8
 -10  -8  15 43.6764 226.912   8
 -10  -8  14 497.269 391.759   8
 -10  -8  13 1723.31 879.964   8
 -10  -8  12 924.096 656.840   8
 -10  -8  11-362.770 372.718   8
 -10  -8  10-264.712 197.238   8
 -10  -8   9 774.321 639.125   8
 -10  -8   8 234.480 561.724   8
 -10  -8   7 1521.00 806.686   8
 -10  -8   6 89.8438 221.165   8
 -10  -8   5-384.441 428.557   8
 -10  -8   4 1692.38 896.303   8
 -10  -8   3 601.265 454.516   8
 -10  -8   2 2255.59 1070.48   8
 -10  -8   1 793.631 559.213   8
 -10  -8   0 353.014 291.943   8
 -10  -8  -1 52.0447 318.715   8
 -10  -8  -2-81.6165 443.193   8
 -10  -8  -3 958.862 685.482   8
 -10  -8  -4 735.221 638.511   8
 -10  -8  -5 604.235 544.346   8
 -10  -8  -6 2674.96 1163.71   8
 -10  -8  -7 303.214 574.824   8
 -10  -9  15 473.703 653.602   8
 -10  -9  14 1977.37 989.157   8
 -10  -9  13 171.647 308.571   8
 -10  -9  12-135.771 303.133   8
 -10  -9  11 2925.33 1168.61   8
 -10  -9  10-419.683 449.818   8
 -10  -9   9 602.580 412.669   8
 -10  -9   8 535.439 561.745   8
 -10  -9   7-509.425 579.382   8
 -10  -9   6 160.899 412.093   8
 -10  -9   5 309.867 210.685   8
 -10  -9   4-191.044 343.831   8
 -10  -9   3 659.118 526.818   8
 -10  -9   2 284.443 502.741   8
 -10  -9   1 469.670 553.634   8
 -10  -9   0 689.623 596.359   8
 -10  -9  -1-932.921 655.483   8
 -10  -9  -2 1410.46 911.886   8
 -10  -9  -3-276.777 391.635   8
 -10  -9  -4-521.835 506.530   8
 -10  -9  -5 778.481 641.535   8
 -10  -9  -6 83.3468 321.594   8
 -10 -10  12 1401.55 880.770   8
 -10 -10  11-157.889 308.430   8
 -10 -10  10 444.675 326.553   8
 -10 -10   9 1152.84 728.562   8
 -10 -10   8 418.315 407.339   8
 -10 -10   7 121.814 237.500   8
 -10 -10   6-565.193 523.208   8
 -10 -10   5 157.138 204.368   8
 -10 -10   4 168.093 223.021   8
 -10 -10   3 1699.60 966.835   8
 -10 -10   2 1517.37 859.543   8
 -10 -10   1 128.502 200.105   8
 -10 -10   0 837.024 717.845   8
 -10 -10  -1 1003.94 855.154   8
 -10 -10  -2 446.312 628.329   8
 -10 -10  -3-309.699 395.764   8
 -10 -10  -4 324.280 383.910   8
 -10 -10  -5 903.879 702.095   8
 -10 -11  10 1782.60 936.880   8
 -10 -11   9 603.041 518.685   8
 -10 -11   8-565.747 531.275   8
 -10 -11   7 138.074 208.139   8
 -10 -11   6-23.0359 224.035   8
 -10 -11   5 99.5927 225.167   8
 -10 -11   4 545.809 506.668   8
 -10 -11   3 1005.87 784.684   8
 -10 -11   2 2134.67 977.334   8
 -10 -11   1-627.772 549.829   8
 -10 -11   0-263.343 386.611   8
 -10 -11  -1 1019.72 630.339   8
 -10 -11  -2 221.535 311.598   8
 -10 -11  -3 1159.58 787.522   8
 -10 -11  -4 1054.64 775.757   8
 -10 -12   6 1977.27 1020.46   8
 -10 -12   5 2932.53 1273.33   8
 -10 -12   4 337.666 334.491   8
 -10 -12   3 3161.39 1214.73   8
 -10 -12   2 943.091 584.643   8
 -10 -12   1-759.991 619.670   8
 -10 -12   0-1033.95 703.688   8
 -10 -12  -1-212.187 345.745   8
 -10 -12  -2-1.27937 392.612   8
 -11  14  -3 463.232 503.843   2
 -11  14  -4-1.44397 382.803   2
 -11  14  -5 1259.02 935.335   2
 -11  13   2-153.841 359.654   3
 -11  13   1 744.262 1034.69   3
 -11  13   0 132.111 404.087   3
 -11  13  -1-187.345 626.528   3
 -11  13  -2-550.479 528.844   2
 -11  13  -2 82.5144 315.001   3
 -11  13  -3 331.389 420.845   2
 -11  13  -4-625.661 579.558   2
 -11  13  -5-281.163 417.412   2
 -11  13  -6-1180.02 807.565   2
  11 -12  -5 903.454 794.222   4
  11 -12  -4 1111.45 792.879   4
 -11  12   3 483.647 628.953   3
 -11  12   2 1638.25 1020.92   3
 -11  12   1 1696.40 1009.33   3
 -11  12   0 997.216 846.892   3
 -11  12  -1-160.583 307.868   2
 -11  12  -1-325.992 719.436   3
 -11  12  -2-423.176 466.842   2
 -11  12  -2 315.004 257.366   3
 -11  12  -3 118.145 288.845   2
 -11  12  -3-268.812 445.284   3
 -11  12  -4-125.492 305.849   2
 -11  12  -4 618.232 644.105   3
 -11  12  -5-373.594 464.035   2
 -11  12  -5 1331.49 1036.99   3
 -11  12  -6-369.889 470.404   2
 -11  12  -7 931.850 714.961   2
  11 -11  -6 433.723 302.833   4
  11 -11  -5 5341.03 1741.75   4
  11 -11  -4-1127.12 788.357   4
 -11  11   4 25.2470 222.508   3
 -11  11   3 2106.32 1089.18   3
  11 -11  -3 1657.01 911.426   4
 -11  11   2 1392.40 675.945   3
  11 -11  -2 1184.36 832.022   4
 -11  11   1 2010.51 1044.46   3
 -11  11   0-184.066 315.130   2
 -11  11   0 364.811 484.736   3
 -11  11  -1-509.898 499.618   2
 -11  11  -1-141.730 348.553   3
 -11  11  -2 228.224 353.014   2
 -11  11  -2 101.885 301.259   3
 -11  11  -3-499.658 507.361   2
 -11  11  -3-476.163 554.362   3
 -11  11  -4 622.359 569.438   2
 -11  11  -4 2216.75 1182.70   3
 -11  11  -5 728.879 620.627   2
 -11  11  -5 1336.24 1010.00   3
 -11  11  -6-459.115 517.119   2
 -11  11  -6 307.931 471.241   3
 -11  11  -7 2261.93 1098.54   2
 -11  11  -7 652.162 732.554   3
 -11  11  -8 58.8623 260.025   2
  11 -10  -7 1112.67 864.470   4
  11 -10  -6 4704.83 1610.77   4
  11 -10  -5 248.573 418.801   4
 -11  10   5 175.583 268.432   3
 -11  10   4 1603.24 827.094   3
  11 -10  -4 1580.80 892.793   4
 -11  10   3 407.576 493.109   3
  11 -10  -3 1184.30 646.940   4
 -11  10   2 179.212 350.543   3
  11 -10  -2 879.575 483.528   4
 -11  10   1 287.746 290.163   3
  11 -10  -1-33.3121 208.944   4
 -11  10   1 658.056 649.194   2
 -11  10   0-133.138 254.692   3
 -11  10   0 16.6805 202.005   2
 -11  10  -1 1283.03 773.182   2
 -11  10  -1 637.171 736.179   3
 -11  10  -2 196.067 341.121   2
 -11  10  -2 1048.40 989.684   3
 -11  10  -3 1115.65 717.050   2
 -11  10  -3 1951.31 1031.47   3
 -11  10  -4-1105.43 737.724   2
 -11  10  -4 14.1017 244.479   3
 -11  10  -5 286.457 281.387   2
 -11  10  -5-774.198 682.065   3
 -11  10  -6-1.39926 166.491   2
 -11  10  -6 401.869 504.473   3
 -11  10  -7 330.473 404.034   2
 -11  10  -7 113.797 499.448   3
 -11  10  -8 1203.57 1000.48   2
 -11  10  -8 2095.88 1216.34   3
 -11  10  -9-632.276 617.748   2
 -11  10  -9 526.944 922.539   3
  11  -9  -7 2432.24 1175.10   4
  11  -9  -6-917.630 715.020   4
 -11   9   5 692.621 710.250   3
  11  -9  -5 976.842 880.062   4
 -11   9   4 39.9180 281.037   3
  11  -9  -4-550.597 540.832   4
 -11   9   3 283.180 234.582   3
  11  -9  -3 497.092 314.273   4
 -11   9   2 305.467 357.657   3
 -11   9   2 190.435 304.353   2
  11  -9  -2 3.66597 164.026   4
  11  -9  -1-1.15963 175.082   4
 -11   9   1 286.691 437.572   2
 -11   9   0 726.756 318.070   3
  11  -9   0-362.325 653.901   4
 -11   9   0 576.642 549.495   2
 -11   9  -1 519.986 545.797   3
 -11   9  -1 1938.29 1061.39   2
 -11   9  -2 627.418 335.072   2
 -11   9  -2 574.207 404.311   3
 -11   9  -3 6.39850 169.770   2
 -11   9  -3-305.027 433.622   3
 -11   9  -4 1404.29 838.718   2
 -11   9  -4 1950.53 1050.46   3
 -11   9  -5 687.988 641.527   2
 -11   9  -5 727.405 652.869   3
 -11   9  -6 155.660 220.255   2
 -11   9  -6 1034.88 888.357   3
 -11   9  -7 117.747 522.758   2
 -11   9  -7 954.555 946.721   3
 -11   9  -8 174.697 206.509   2
 -11   9  -8 736.511 542.560   3
 -11   9  -9-352.576 465.022   2
 -11   9  -9-273.364 718.888   3
 -11   9 -10-621.369 610.099   2
 -11   9 -10 138.173 591.497   3
  11  -8  -8 619.200 633.884   4
  11  -8  -7-166.457 341.390   4
 -11   8   6 451.568 310.922   3
  11  -8  -6 1126.44 924.989   4
 -11   8   5 412.918 399.454   3
  11  -8  -5 694.144 531.945   4
 -11   8   4 186.203 507.387   3
  11  -8  -4-1110.03 741.317   4
 -11   8   3 844.879 777.584   3
 -11   8   3 97.2086 314.450   2
  11  -8  -3 192.959 478.712   4
 -11   8   2 265.811 388.905   3
 -11   8   2-753.503 557.299   2
  11  -8  -2-610.761 530.280   4
 -11   8   1 423.652 272.382   3
  11  -8  -1 1154.43 736.751   4
 -11   8   1 1329.83 818.771   2
 -11   8   0 226.960 372.564   3
 -11   8   0-283.055 374.421   2
 -11   8  -1 1138.03 883.894   3
 -11   8  -1 360.486 375.360   2
 -11   8  -2 864.245 770.331   2
 -11   8  -2 125.187 325.197   3
 -11   8  -3 2186.37 1038.25   2
 -11   8  -3 1504.31 999.208   3
 -11   8  -4 370.645 412.524   2
 -11   8  -4-7.35550 433.637   3
 -11   8  -5-70.6379 424.350   2
 -11   8  -5 857.258 338.995   3
 -11   8  -6 66.9323 387.756   2
 -11   8  -6 188.781 414.310   3
 -11   8  -7-288.468 455.940   2
 -11   8  -7 6.20051 382.603   3
 -11   8  -8-373.577 470.052   2
 -11   8  -8 614.295 621.750   3
 -11   8  -9-157.550 341.950   2
 -11   8  -9 650.774 599.611   3
 -11   8 -10-105.273 313.733   2
 -11   8 -10 137.608 427.903   3
 -11   8 -11 256.682 243.517   3
  11  -7  -9-108.043 639.441   4
  11  -7  -8 157.204 497.758   4
  11  -7  -7 1111.48 711.522   4
 -11   7   6 82.0230 248.040   3
  11  -7  -6-365.451 466.256   4
 -11   7   5 534.734 485.171   3
  11  -7  -5 1039.64 721.589   4
 -11   7   4 573.958 620.117   3
 -11   7   4 451.228 426.994   2
  11  -7  -4 914.073 694.135   4
 -11   7   3 164.480 252.627   2
  11  -7  -3 246.291 479.995   4
 -11   7   2 1783.36 909.336   3
 -11   7   2 1748.31 760.362   2
  11  -7  -2 2782.62 1112.99   4
 -11   7   1 487.406 564.118   3
 -11   7   1-213.471 327.511   2
 -11   7   0 1965.18 1126.16   3
 -11   7   0 389.392 676.851   2
 -11   7  -1 1458.40 757.102   3
 -11   7  -1 1121.72 740.488   2
 -11   7  -2-693.240 607.202   3
 -11   7  -2 524.133 556.045   2
 -11   7  -3-702.413 616.658   3
 -11   7  -3-83.5284 336.254   2
 -11   7  -4 609.660 424.531   2
 -11   7  -4 417.772 636.930   3
 -11   7  -5 1598.29 971.648   2
 -11   7  -5 1967.32 1037.45   3
 -11   7  -6-90.6364 260.959   2
 -11   7  -6 1047.00 810.988   3
 -11   7  -7-946.513 707.256   2
 -11   7  -7 449.370 543.574   3
 -11   7  -8-974.688 723.277   2
 -11   7  -8 245.814 757.798   3
 -11   7  -9 906.723 686.310   2
 -11   7  -9 233.322 477.767   3
 -11   7 -10-375.936 500.540   2
 -11   7 -10 266.619 354.505   3
 -11   7 -11 32.8213 259.685   2
 -11   7 -11-689.199 667.329   3
 -11   7 -12 401.628 526.445   3
  11  -6 -10-545.362 603.334   4
  11  -6  -9-29.8397 234.279   4
  11  -6  -8 770.212 635.914   4
 -11   6   7-213.223 309.180   8
  11  -6  -7-870.049 691.271   4
  11  -6  -6 960.628 701.835   4
 -11   6   5 1150.89 835.945   3
 -11   6   5 1030.09 581.654   2
  11  -6  -5 1877.00 936.702   4
 -11   6   4 249.617 369.481   3
 -11   6   4 241.193 239.735   2
  11  -6  -4-194.983 318.636   4
 -11   6   3 1566.40 860.809   3
 -11   6   3 1311.17 752.901   2
  11  -6  -3 1286.69 817.989   4
 -11   6   2 1966.33 1015.69   3
 -11   6   2 902.984 511.402   2
 -11   6   1 638.788 420.005   3
 -11   6   1 793.643 695.919   2
 -11   6   0-1101.08 736.403   3
 -11   6   0 513.655 394.133   2
 -11   6  -1 336.017 484.192   3
 -11   6  -1 413.444 403.224   2
 -11   6  -2 411.350 317.163   3
 -11   6  -2 365.347 604.340   2
 -11   6  -3 1839.99 943.881   3
 -11   6  -3 633.514 527.357   2
 -11   6  -4 1695.85 977.279   3
 -11   6  -4 714.083 536.852   2
 -11   6  -5 992.300 833.403   3
 -11   6  -5 1145.67 793.658   2
 -11   6  -6 3956.16 1485.40   2
 -11   6  -6 768.654 818.416   3
 -11   6  -7 219.149 404.821   2
 -11   6  -7 72.5011 308.799   3
 -11   6  -8 14.1854 194.773   2
 -11   6  -8 414.547 613.157   3
 -11   6  -9-463.153 592.088   2
 -11   6  -9 15.3884 661.560   3
 -11   6 -10 1218.12 822.192   2
 -11   6 -10 552.204 859.610   3
 -11   6 -11 1976.44 1004.20   2
 -11   6 -11 1295.98 876.869   3
 -11   6 -12 503.597 581.454   3
 -11   6 -13 783.448 724.415   3
  11  -5 -10 440.549 420.765   4
  11  -5  -9 95.0525 608.613   4
 -11   5   8 737.780 463.392   8
  11  -5  -8 619.636 298.984   4
 -11   5   7 1821.24 872.939   8
  11  -5  -7 2589.09 1236.37   4
  11  -5  -6 146.957 365.493   4
 -11   5   5 1007.66 596.766   2
  11  -5  -5 968.208 765.672   4
 -11   5   4 532.760 501.764   2
  11  -5  -4 1166.52 769.572   4
 -11   5   3 840.652 633.589   3
 -11   5   3 914.853 646.516   2
 -11   5   2-335.085 700.710   3
 -11   5   2-202.736 343.179   2
 -11   5   1 1408.15 881.605   3
 -11   5   1 668.141 610.477   2
 -11   5   0 3229.28 1219.73   3
 -11   5   0 2348.10 988.462   2
 -11   5  -1-367.900 454.047   3
 -11   5  -1 2955.20 1200.63   2
 -11   5  -2 1017.02 798.965   3
 -11   5  -2-86.0735 451.275   2
 -11   5  -3-151.749 356.431   3
 -11   5  -3 594.731 536.926   2
 -11   5  -4 2179.82 1156.23   3
 -11   5  -4 1543.64 878.327   2
 -11   5  -5 775.648 576.245   3
 -11   5  -5 2342.52 1033.37   2
 -11   5  -6 494.569 491.446   3
 -11   5  -6 437.395 271.771   2
 -11   5  -7 802.188 384.603   3
 -11   5  -7 564.595 729.496   2
 -11   5  -8 1934.06 928.598   3
 -11   5  -8-492.387 452.165   2
 -11   5  -9 85.1481 595.327   3
 -11   5  -9 73.8684 400.110   2
 -11   5 -10 535.597 572.750   2
 -11   5 -10 2388.09 1230.42   3
 -11   5 -11 3571.06 1406.99   2
 -11   5 -11 232.319 408.304   3
 -11   5 -12 873.605 532.478   3
 -11   5 -13 1205.94 874.191   3
  11  -4 -11 415.651 628.100   4
  11  -4 -10 214.845 302.834   4
 -11   4   9 486.905 568.112   8
  11  -4  -9 1044.79 699.871   4
 -11   4   8 914.718 528.965   8
  11  -4  -8 1223.99 814.579   4
  11  -4  -7 714.528 682.359   4
 -11   4   7 923.589 615.114   8
  11  -4  -6 4396.59 1469.05   4
 -11   4   6 2746.55 1040.50   8
 -11   4   5 1448.43 770.557   2
  11  -4  -5 1515.39 877.224   4
 -11   4   4 922.399 728.166   2
 -11   4   3 263.823 230.217   3
 -11   4   3 988.789 706.366   2
 -11   4   2 1062.50 710.413   3
 -11   4   2 1174.93 719.748   2
 -11   4   1 333.006 424.671   3
 -11   4   1 940.229 680.356   2
 -11   4   0 1438.86 1021.34   3
 -11   4   0-647.230 538.816   2
 -11   4  -1 200.243 592.324   3
 -11   4  -1 160.574 500.140   2
 -11   4  -2 487.858 598.321   3
 -11   4  -2-159.815 374.891   2
 -11   4  -3 245.373 410.569   3
 -11   4  -3 167.465 354.400   2
 -11   4  -4 2012.36 1021.11   3
 -11   4  -4 947.773 653.262   2
 -11   4  -5 303.896 229.687   3
 -11   4  -5-189.117 290.564   2
 -11   4  -6 206.596 323.625   3
 -11   4  -6 524.612 433.129   2
 -11   4  -7-121.833 430.066   3
 -11   4  -7-1117.09 757.682   2
 -11   4  -8-101.919 303.293   3
 -11   4  -8-18.1684 341.506   2
 -11   4  -9 1723.17 846.207   3
 -11   4  -9 1658.99 977.277   2
 -11   4 -10 425.080 532.679   3
 -11   4 -10 102.209 268.515   2
 -11   4 -11-1607.46 964.983   3
 -11   4 -11 785.630 726.904   2
 -11   4 -12-818.788 708.025   3
 -11   4 -12-116.276 335.936   2
 -11   4 -13 1079.60 977.625   3
 -11   4 -14 697.901 675.690   3
  11  -3 -11 2996.13 1165.62   4
  11  -3 -10 936.864 876.920   4
 -11   3   9 227.190 278.393   8
  11  -3  -9 323.628 466.828   4
 -11   3   8 3610.15 1169.80   8
  11  -3  -8 5485.19 1684.50   4
  11  -3  -7 1579.90 1062.98   4
 -11   3   7 467.989 342.581   8
  11  -3  -6 1790.48 985.248   4
 -11   3   6 1953.62 856.373   8
 -11   3   5 1229.81 769.349   8
 -11   3   4 74.0045 445.315   2
 -11   3   3 100.070 236.896   2
 -11   3   2 511.758 405.418   2
 -11   3   1 345.897 334.708   2
 -11   3   0 76.6144 475.200   3
 -11   3   0 892.843 438.174   2
 -11   3  -1 110.461 289.171   3
 -11   3  -1 172.721 379.461   2
 -11   3  -2 37.3444 244.335   3
 -11   3  -2-1291.15 757.143   2
 -11   3  -3 1356.20 839.735   3
 -11   3  -3 306.736 757.178   2
 -11   3  -4 615.291 516.154   3
 -11   3  -4 360.799 370.636   2
 -11   3  -5 319.683 206.691   3
 -11   3  -5-1421.34 822.740   2
 -11   3  -6 868.938 607.222   3
 -11   3  -6 503.950 597.554   2
 -11   3  -7-225.394 346.251   3
 -11   3  -7 193.735 629.183   2
 -11   3  -8 129.585 312.755   3
 -11   3  -8 1814.49 1004.47   2
 -11   3  -9 356.857 743.057   3
 -11   3  -9-462.538 179.214   2
 -11   3 -10 1741.91 1048.17   3
 -11   3 -10-440.512 513.219   2
 -11   3 -11-564.636 781.658   3
 -11   3 -11 33.3568 235.656   2
 -11   3 -12-177.907 549.311   2
  11  -2 -12 704.818 774.607   4
  11  -2 -11 1126.43 732.030   4
 -11   2  10 124.768 227.970   8
  11  -2 -10 356.457 704.711   4
 -11   2   9 461.590 450.368   8
  11  -2  -9 992.189 742.215   4
  11  -2  -8 2715.33 1200.95   4
 -11   2   8 863.789 572.861   8
 -11   2   7 1203.98 645.869   8
 -11   2   6-66.3258 256.206   8
 -11   2   5 1123.43 683.684   8
 -11   2   4 571.998 559.899   8
 -11   2   3 1255.51 734.732   2
 -11   2   2 255.151 357.360   2
 -11   2   1-357.741 204.301   2
 -11   2   0-67.9633 464.249   2
 -11   2  -1 425.481 207.363   2
 -11   2  -2 1813.27 902.770   2
 -11   2  -3 813.259 570.748   2
 -11   2  -4 482.079 607.071   2
 -11   2  -5-344.697 714.453   2
 -11   2  -6 775.822 573.283   2
 -11   2  -7 594.352 665.525   2
 -11   2  -8-122.454 305.627   2
 -11   2  -9-210.181 231.676   2
 -11   2 -10 505.614 613.791   2
 -11   2 -11-87.6579 677.007   2
 -11   2 -12-561.041 588.607   2
  11  -1 -12 573.750 245.712   4
 -11   1  11-333.794 379.649   8
  11  -1 -11 63.8783 280.585   4
 -11   1  10 895.021 527.429   8
  11  -1 -10 585.962 568.415   4
 -11   1   9 2725.94 999.866   8
 -11   1   8 281.836 352.811   8
 -11   1   7 1926.24 944.535   8
 -11   1   6 122.756 270.333   8
 -11   1   5-653.511 530.588   8
 -11   1   4-754.454 575.594   8
 -11   1   3 543.088 496.844   2
 -11   1   3 445.702 363.450   8
 -11   1   2-590.614 511.436   2
 -11   1   1 2410.37 1023.58   2
 -11   1   0 748.477 821.044   2
 -11   1  -1 1555.78 885.646   2
 -11   1  -2-13.3216 165.471   2
 -11   1  -3 5145.77 1525.67   2
 -11   1  -4 307.376 349.134   2
 -11   1  -5-398.469 359.496   2
 -11   1  -6-80.8326 499.610   2
 -11   1  -7 399.480 557.507   2
 -11   1  -8 32.0621 412.862   2
 -11   1  -9 467.938 259.594   2
 -11   1 -10 2410.14 1303.88   2
 -11   1 -11 185.675 409.023   2
 -11   1 -12 324.063 654.864   2
  11   0 -13-101.639 573.943   4
 -11   0  12-498.749 445.048   8
  11   0 -12 716.555 496.937   4
 -11   0  11 877.125 538.340   8
 -11   0  10-742.526 545.492   8
 -11   0   9 305.156 372.928   8
 -11   0   8 652.074 618.343   8
 -11   0   7 516.729 547.838   8
 -11   0   6 107.240 328.371   8
 -11   0   5 3.42222 153.354   8
 -11   0   4 1319.09 776.894   8
 -11   0   3-65.2760 392.922   8
 -11   0   2 3288.46 1147.68   8
 -11   0   1 1182.39 678.646   2
 -11   0   0 2724.75 1057.92   2
 -11   0  -1-107.072 254.764   2
 -11   0  -2 1512.85 836.489   2
 -11   0  -3 97.5259 277.844   2
 -11   0  -4 858.482 670.166   2
 -11   0  -5 346.048 321.281   2
 -11   0  -6-339.501 544.500   2
 -11   0  -7 1986.99 1001.77   2
 -11   0  -8-42.1024 422.273   2
 -11   0  -9 1552.77 845.948   2
 -11   0 -10-349.857 461.204   2
 -11   0 -11-268.057 413.122   2
 -11  -1  13-517.399 448.837   8
 -11  -1  12 2365.26 1008.41   8
 -11  -1  11 469.590 343.943   8
 -11  -1  10-230.200 338.082   8
 -11  -1   9 494.338 486.313   8
 -11  -1   8 367.096 240.689   8
 -11  -1   7-61.1476 201.225   8
 -11  -1   6 410.564 399.024   8
 -11  -1   5 1839.34 791.272   8
 -11  -1   4-175.079 324.868   8
 -11  -1   3-300.822 459.356   8
 -11  -1   2 235.529 266.598   8
 -11  -1   1 2842.22 1071.92   8
 -11  -1   0 1360.88 724.902   2
 -11  -1   0 853.273 730.086   8
 -11  -1  -1 1472.84 929.196   2
 -11  -1  -2 2464.78 1096.43   2
 -11  -1  -3 1245.92 741.209   2
 -11  -1  -4 1173.21 892.579   2
 -11  -1  -5 363.195 687.146   2
 -11  -1  -6 1492.45 789.275   2
 -11  -1  -7 1797.19 995.840   2
 -11  -1  -8-442.735 504.768   2
 -11  -1  -9-669.261 613.583   2
 -11  -1 -10-350.219 429.125   2
 -11  -1 -11 328.371 471.836   2
 -11  -2  13-473.984 435.765   8
 -11  -2  12 737.341 573.792   8
 -11  -2  11-64.1574 145.579   8
 -11  -2  10 722.346 648.650   8
 -11  -2   9 990.453 634.091   8
 -11  -2   8 814.448 623.378   8
 -11  -2   7 1046.12 707.918   8
 -11  -2   6 630.307 516.656   8
 -11  -2   5 631.156 475.682   8
 -11  -2   4 254.867 375.310   8
 -11  -2   3 301.608 365.498   8
 -11  -2   2 844.056 603.188   8
 -11  -2   1 2274.24 986.750   8
 -11  -2   0 3711.91 1303.32   8
 -11  -2  -1-2.49311 458.778   8
 -11  -2  -2 246.680 230.285   2
 -11  -2  -2 535.091 482.700   8
 -11  -2  -3 910.423 663.934   2
 -11  -2  -3 763.559 619.001   8
 -11  -2  -4-6.58692 399.064   2
 -11  -2  -5 1006.32 825.317   2
 -11  -2  -6-257.711 405.746   2
 -11  -2  -7-799.640 651.601   2
 -11  -2  -8 128.842 326.896   2
 -11  -2  -9-1.46328 718.568   2
 -11  -2 -10-763.319 668.156   2
 -11  -2 -11 520.704 709.561   2
 -11  -3  14 271.930 279.254   8
 -11  -3  13-486.043 638.312   8
 -11  -3  12-824.125 590.586   8
 -11  -3  11-328.378 399.075   8
 -11  -3  10 2973.58 1061.55   8
 -11  -3   9 83.5918 469.616   8
 -11  -3   8 448.419 571.091   8
 -11  -3   7-23.5159 377.422   8
 -11  -3   6-263.055 603.921   8
 -11  -3   5 54.7972 311.490   8
 -11  -3   4 139.988 389.507   8
 -11  -3   3-121.888 274.128   8
 -11  -3   2 1212.68 829.497   8
 -11  -3   1-44.2989 335.676   8
 -11  -3   0 361.668 446.097   8
 -11  -3  -1 104.616 241.718   8
 -11  -3  -2 1354.29 798.579   8
 -11  -3  -3 1609.50 915.203   8
 -11  -3  -4 1316.22 847.505   8
 -11  -3  -5-314.460 572.345   8
 -11  -3  -6 926.797 537.872   2
 -11  -3  -6 6.72342 346.276   8
 -11  -3  -7-236.374 395.396   2
 -11  -3  -7-403.619 474.179   8
 -11  -3  -8-344.466 463.303   2
 -11  -3  -8 1213.07 1051.91   8
 -11  -3  -9 434.815 506.396   2
 -11  -3  -9 218.891 212.039   8
 -11  -3 -10 556.100 481.090   2
 -11  -3 -10-194.940 356.375   8
 -11  -3 -11 74.9776 439.332   8
 -11  -4  15-1.12807 291.551   8
 -11  -4  14-538.446 487.767   8
 -11  -4  13 616.861 456.380   8
 -11  -4  12-281.092 364.604   8
 -11  -4  11 2230.78 889.580   8
 -11  -4  10 801.910 523.722   8
 -11  -4   9 226.430 343.778   8
 -11  -4   8-452.123 476.461   8
 -11  -4   7-53.9861 321.867   8
 -11  -4   6 117.178 260.933   8
 -11  -4   5 281.699 279.434   8
 -11  -4   4 1358.81 1054.87   8
 -11  -4   3 2890.61 1211.02   8
 -11  -4   2-61.8405 401.029   8
 -11  -4   1 43.6255 295.384   8
 -11  -4   0 681.805 692.131   8
 -11  -4  -1 317.704 718.272   8
 -11  -4  -2-271.253 597.959   8
 -11  -4  -3 893.106 680.650   8
 -11  -4  -4-170.212 443.579   8
 -11  -4  -5 791.134 705.980   8
 -11  -4  -6 808.549 606.066   8
 -11  -4  -7-537.178 544.309   8
 -11  -4  -8-853.164 671.417   8
 -11  -4  -9-883.164 693.834   8
 -11  -4 -10 185.498 349.610   8
 -11  -5  15 376.650 421.464   8
 -11  -5  14 403.302 589.248   8
 -11  -5  13-123.767 258.714   8
 -11  -5  12 2506.56 1024.02   8
 -11  -5  11 535.870 542.917   8
 -11  -5  10-28.8363 190.329   8
 -11  -5   9 204.591 453.148   8
 -11  -5   8-182.845 578.887   8
 -11  -5   7-230.620 357.205   8
 -11  -5   6-185.092 426.781   8
 -11  -5   5-377.247 328.274   8
 -11  -5   4-88.4201 355.955   8
 -11  -5   3-686.295 597.942   8
 -11  -5   2 1397.72 736.792   8
 -11  -5   1 240.670 456.418   8
 -11  -5   0 154.494 179.628   8
 -11  -5  -1 310.248 192.553   8
 -11  -5  -2 993.911 622.630   8
 -11  -5  -3 630.410 624.116   8
 -11  -5  -4 1328.90 1016.50   8
 -11  -5  -5-716.756 614.107   8
 -11  -5  -6 369.409 209.684   8
 -11  -5  -7 168.745 488.471   8
 -11  -5  -8-381.063 465.071   8
 -11  -5  -9 453.238 512.244   8
 -11  -6  15-77.1352 215.098   8
 -11  -6  14-46.1851 195.954   8
 -11  -6  13 1556.41 868.593   8
 -11  -6  12 841.243 719.307   8
 -11  -6  11 1630.68 904.365   8
 -11  -6  10 50.3488 221.595   8
 -11  -6   9-1520.03 833.640   8
 -11  -6   8 529.428 371.850   8
 -11  -6   7 87.2688 376.060   8
 -11  -6   6-129.391 303.509   8
 -11  -6   5-217.672 627.522   8
 -11  -6   4 546.740 262.814   8
 -11  -6   3 937.086 697.709   8
 -11  -6   2 1189.85 789.173   8
 -11  -6   1 72.3562 234.288   8
 -11  -6   0-211.871 341.956   8
 -11  -6  -1 648.079 846.103   8
 -11  -6  -2 54.1319 403.166   8
 -11  -6  -3 1504.05 889.740   8
 -11  -6  -4-1349.82 823.568   8
 -11  -6  -5 876.990 565.201   8
 -11  -6  -6 930.319 740.013   8
 -11  -6  -7 1248.37 852.610   8
 -11  -6  -8 580.369 537.138   8
 -11  -7  14-268.151 386.260   8
 -11  -7  13 1645.47 853.524   8
 -11  -7  12 946.771 658.686   8
 -11  -7  11 457.467 444.872   8
 -11  -7  10-7.55486 205.991   8
 -11  -7   9 615.659 639.669   8
 -11  -7   8 565.210 373.156   8
 -11  -7   7 435.821 161.008   8
 -11  -7   6 521.712 423.328   8
 -11  -7   5 1944.81 919.195   8
 -11  -7   4 1269.90 833.985   8
 -11  -7   3 658.391 584.163   8
 -11  -7   2 91.6383 278.027   8
 -11  -7   1 532.003 525.370   8
 -11  -7   0 962.691 656.222   8
 -11  -7  -1 428.308 400.874   8
 -11  -7  -2-170.131 288.240   8
 -11  -7  -3 237.765 326.858   8
 -11  -7  -4 689.955 552.786   8
 -11  -7  -5 524.502 534.720   8
 -11  -7  -6 326.933 458.334   8
 -11  -7  -7 712.605 655.917   8
 -11  -8  12 80.3017 223.382   8
 -11  -8  11-47.8314 215.385   8
 -11  -8  10-522.818 514.998   8
 -11  -8   9 299.602 502.315   8
 -11  -8   8-11.7248 164.268   8
 -11  -8   7 695.632 544.520   8
 -11  -8   6 328.733 273.357   8
 -11  -8   5 570.475 451.261   8
 -11  -8   4 475.821 700.423   8
 -11  -8   3-687.409 594.422   8
 -11  -8   2 578.614 478.116   8
 -11  -8   1 1529.30 961.271   8
 -11  -8   0-152.395 437.258   8
 -11  -8  -1-1103.84 748.120   8
 -11  -8  -2 401.365 400.810   8
 -11  -8  -3 369.874 307.413   8
 -11  -8  -4 346.512 627.349   8
 -11  -8  -5 276.274 404.075   8
 -11  -8  -6 1.38577 316.949   8
 -11  -9  10-231.715 371.078   8
 -11  -9   9 589.501 510.296   8
 -11  -9   8 330.339 475.904   8
 -11  -9   7 1636.22 874.060   8
 -11  -9   6 482.121 441.370   8
 -11  -9   5 102.433 356.451   8
 -11  -9   4 524.049 581.398   8
 -11  -9   3 288.474 341.108   8
 -11  -9   2 765.424 611.059   8
 -11  -9   1 2511.83 1141.59   8
 -11  -9   0 787.145 554.992   8
 -11  -9  -1-1183.34 772.441   8
 -11  -9  -2-237.467 389.227   8
 -11  -9  -3 814.310 777.197   8
 -11  -9  -4 1010.73 826.303   8
 -11  -9  -5 589.161 567.119   8
 -11 -10   5 496.501 563.547   8
 -11 -10   4-81.0365 245.351   8
 -11 -10   3 165.389 216.370   8
 -11 -10   2-1007.49 725.274   8
 -11 -10   1 353.456 481.875   8
 -11 -10   0-419.365 473.168   8
 -12  12  -2-607.880 574.274   2
 -12  12  -3-308.332 444.246   2
 -12  11   3 605.998 602.385   3
 -12  11   2-1035.53 797.643   3
 -12  11   1 680.107 613.152   3
 -12  11   0 156.771 249.137   3
 -12  11   0 1223.80 769.142   2
 -12  11  -1 743.164 762.629   2
 -12  11  -2 478.244 675.518   2
 -12  11  -3 131.793 309.226   2
 -12  11  -4 1656.85 966.795   2
 -12  11  -5 275.429 420.643   2
  12 -10  -5 932.487 491.095   4
 -12  10   4 625.321 614.828   3
  12 -10  -4-19.5177 579.458   4
 -12  10   3 285.870 424.974   3
  12 -10  -3 638.479 597.211   4
 -12  10   2 497.255 287.892   3
 -12  10   1 345.504 492.106   3
 -12  10   1-298.307 388.211   2
 -12  10   0 216.449 428.973   3
 -12  10   0-817.538 635.509   2
 -12  10  -1-19.5501 250.063   3
 -12  10  -1-408.374 482.110   2
 -12  10  -2 750.560 693.221   3
 -12  10  -2-431.616 490.332   2
 -12  10  -3 123.900 311.905   2
 -12  10  -3 107.630 729.706   3
 -12  10  -4 39.9787 233.260   2
 -12  10  -5 196.124 368.044   2
  12  -9  -6-529.126 586.913   4
 -12   9   5-735.506 648.470   3
  12  -9  -5 171.713 360.708   4
 -12   9   4 2.96374 764.223   3
  12  -9  -4 105.488 304.507   4
 -12   9   3 1656.64 961.636   3
  12  -9  -3 1532.69 890.403   4
 -12   9   2-576.224 594.891   3
 -12   9   2 170.894 258.365   2
  12  -9  -2 129.160 498.385   4
 -12   9   1-575.950 592.422   3
 -12   9   1 484.600 483.631   2
 -12   9   0-317.451 460.091   3
 -12   9   0 551.366 377.102   2
 -12   9  -1-451.463 539.372   3
 -12   9  -1 323.835 423.157   2
 -12   9  -2-737.221 680.946   3
 -12   9  -2-385.671 462.681   2
 -12   9  -3-58.8151 266.896   3
 -12   9  -3 231.491 377.850   2
 -12   9  -4 472.716 798.273   2
 -12   9  -4 2791.03 1396.15   3
 -12   9  -5 774.715 662.524   2
 -12   9  -5 538.387 574.862   3
 -12   9  -6 583.472 589.882   2
  12  -8  -6 852.849 723.266   4
 -12   8   5 100.577 303.908   3
  12  -8  -5 286.122 435.166   4
 -12   8   4-451.419 570.893   3
  12  -8  -4 2140.23 1027.32   4
 -12   8   3 519.766 361.078   3
 -12   8   3-600.573 521.250   2
  12  -8  -3 151.841 607.887   4
 -12   8   2 1028.86 766.901   3
 -12   8   2 397.668 528.884   2
 -12   8   1 1439.72 785.941   3
 -12   8   1-146.048 301.162   2
 -12   8   0-268.569 581.234   3
 -12   8   0-1680.79 894.551   2
 -12   8  -1 571.833 587.446   3
 -12   8  -1-780.657 627.401   2
 -12   8  -2-692.518 659.085   3
 -12   8  -2 137.884 283.615   2
 -12   8  -3-659.721 635.675   3
 -12   8  -3 826.237 740.462   2
 -12   8  -4 2873.40 1338.26   3
 -12   8  -4 1363.83 935.227   2
 -12   8  -5 1272.03 803.002   3
 -12   8  -5 1399.02 980.321   2
 -12   8  -6 297.646 281.353   2
 -12   8  -6-1000.29 796.598   3
 -12   8  -7 474.380 709.116   2
  12  -7  -7 554.431 588.817   4
  12  -7  -6 2309.17 1049.57   4
 -12   7   5 727.337 808.757   3
  12  -7  -5 889.781 737.470   4
 -12   7   4 284.390 640.361   3
 -12   7   4 1072.35 692.317   2
  12  -7  -4 696.166 625.897   4
 -12   7   3-289.460 430.671   3
 -12   7   3 158.115 397.215   2
  12  -7  -3 104.901 248.674   4
 -12   7   2 136.817 320.600   3
 -12   7   2 396.770 453.171   2
 -12   7   1 640.542 618.923   3
 -12   7   1 1801.05 874.251   2
 -12   7   0 1033.68 913.322   3
 -12   7   0 2625.39 1214.17   2
 -12   7  -1 1094.82 816.560   3
 -12   7  -1 280.983 262.372   2
 -12   7  -2 791.008 838.631   3
 -12   7  -2 140.716 305.279   2
 -12   7  -3 470.006 769.637   3
 -12   7  -3 135.994 169.482   2
 -12   7  -4 188.343 383.413   3
 -12   7  -4 678.006 554.891   2
 -12   7  -5 790.065 706.416   3
 -12   7  -5 568.881 350.159   2
 -12   7  -6 664.883 670.505   3
 -12   7  -6 575.167 481.767   2
 -12   7  -7 917.247 781.404   3
 -12   7  -7 337.862 583.282   2
 -12   7  -8-280.625 433.133   2
  12  -6  -8 1057.32 728.525   4
  12  -6  -7 1176.54 984.549   4
  12  -6  -6-9.00508 638.463   4
 -12   6   6 1108.58 723.945   8
 -12   6   5 672.747 645.557   2
  12  -6  -5 234.626 275.221   4
 -12   6   4-197.450 752.085   3
 -12   6   4 973.363 689.397   2
 -12   6   3 489.014 560.768   3
 -12   6   3 309.686 315.740   2
 -12   6   2 1457.62 954.270   3
 -12   6   2 597.098 522.732   2
 -12   6   1 3277.56 1297.86   3
 -12   6   1 1869.81 893.590   2
 -12   6   0-970.452 734.041   3
 -12   6   0-325.010 420.186   2
 -12   6  -1 235.368 413.601   3
 -12   6  -1 232.032 315.451   2
 -12   6  -2 437.188 704.143   3
 -12   6  -2 781.061 535.710   2
 -12   6  -3 2846.09 1234.29   3
 -12   6  -3 885.886 766.724   2
 -12   6  -4 292.747 409.871   3
 -12   6  -4 826.221 501.487   2
 -12   6  -5-195.074 655.098   3
 -12   6  -5-8.69285 486.965   2
 -12   6  -6-286.062 464.225   3
 -12   6  -6-1069.70 768.260   2
 -12   6  -7 647.977 879.391   3
 -12   6  -7 27.5100 255.481   2
 -12   6  -8-97.5461 321.648   3
 -12   6  -8 488.287 549.671   2
  12  -5  -8-374.360 498.533   4
  12  -5  -7 1033.74 700.364   4
 -12   5   7 386.839 424.897   8
  12  -5  -6 891.678 574.742   4
 -12   5   6 1096.42 790.618   8
 -12   5   5 254.300 560.234   2
 -12   5   4-377.072 425.958   2
 -12   5   3 1369.49 892.184   2
 -12   5   2 1168.50 680.750   3
 -12   5   2 1636.48 874.857   2
 -12   5   1 70.0586 260.656   3
 -12   5   1 620.809 545.199   2
 -12   5   0 370.647 536.066   3
 -12   5   0 453.877 554.088   2
 -12   5  -1 714.265 681.209   3
 -12   5  -1-6.53701 588.887   2
 -12   5  -2 34.8039 249.900   3
 -12   5  -2-456.401 495.970   2
 -12   5  -3 35.3103 399.789   3
 -12   5  -3-1295.67 808.705   2
 -12   5  -4 567.309 638.351   3
 -12   5  -4-944.210 705.109   2
 -12   5  -5-722.764 726.240   3
 -12   5  -5-51.8633 331.394   2
 -12   5  -6 491.880 528.643   3
 -12   5  -6 125.607 301.126   2
 -12   5  -7 1070.66 824.182   3
 -12   5  -7 238.154 360.551   2
 -12   5  -8 188.096 476.220   3
 -12   5  -8-864.479 719.802   2
 -12   5  -9 1084.01 860.720   3
  12  -4  -9 1150.60 812.277   4
  12  -4  -8-44.0713 404.542   4
 -12   4   8 97.9317 244.044   8
  12  -4  -7 746.564 738.794   4
 -12   4   7 539.211 174.780   8
 -12   4   6 913.663 639.740   8
 -12   4   5-382.085 442.539   8
 -12   4   4 397.583 219.910   2
 -12   4   3-277.434 337.378   2
 -12   4   2 414.057 327.216   2
 -12   4   1-677.971 571.805   2
 -12   4   0-1710.39 963.886   3
 -12   4   0 233.368 395.737   2
 -12   4  -1 37.1831 455.883   3
 -12   4  -1-645.175 569.034   2
 -12   4  -2 480.550 657.124   3
 -12   4  -2-8.02505 347.894   2
 -12   4  -3 1405.76 948.926   3
 -12   4  -3-477.437 502.817   2
 -12   4  -4 760.600 834.348   3
 -12   4  -4-47.6274 443.934   2
 -12   4  -5-259.588 626.860   3
 -12   4  -5-1486.18 883.100   2
 -12   4  -6 412.467 516.017   3
 -12   4  -6-905.661 725.883   2
 -12   4  -7 1012.59 737.883   3
 -12   4  -7 915.294 665.125   2
 -12   4  -8 595.776 635.709   3
 -12   4  -8 744.375 576.060   2
 -12   4  -9-223.896 382.822   3
  12  -3  -9 1220.18 857.575   4
 -12   3   9 711.183 417.866   8
 -12   3   8 200.942 193.891   8
 -12   3   7 174.638 302.022   8
 -12   3   6 397.755 556.737   8
 -12   3   5 159.466 341.245   8
 -12   3   4 280.604 341.557   8
 -12   3   3 162.171 437.516   2
 -12   3   2-16.1194 190.994   2
 -12   3   1 321.797 476.783   2
 -12   3   0-636.021 570.473   2
 -12   3  -1-143.272 424.892   2
 -12   3  -2 232.207 252.528   2
 -12   3  -3 23.3003 212.670   2
 -12   3  -4 57.4730 252.043   2
 -12   3  -5-495.042 534.204   2
 -12   3  -6 1356.48 690.985   2
 -12   3  -7 2814.04 1268.24   2
 -12   3  -8-556.518 586.360   2
 -12   2  10-10.4921 159.926   8
 -12   2   9 64.0132 200.718   8
 -12   2   8 127.668 271.565   8
 -12   2   7 1685.32 893.069   8
 -12   2   6-52.1839 361.877   8
 -12   2   5 2695.65 1126.91   8
 -12   2   4-333.580 416.468   8
 -12   2   3-85.2742 250.031   2
 -12   2   3-410.643 572.601   8
 -12   2   2 82.8585 256.530   2
 -12   2   1 258.910 517.932   2
 -12   2   0 229.674 484.686   2
 -12   2  -1-3.96880 176.802   2
 -12   2  -2 700.567 765.189   2
 -12   2  -3 4873.38 1538.37   2
 -12   2  -4 374.691 224.972   2
 -12   2  -5-279.301 230.021   2
 -12   2  -6-19.1545 234.267   2
 -12   2  -7 1724.88 1120.73   2
 -12   2  -8 920.443 755.392   2
 -12   1  11-417.964 435.442   8
 -12   1  10-697.415 558.856   8
 -12   1   9 415.228 449.253   8
 -12   1   8 703.528 510.284   8
 -12   1   7 200.374 353.713   8
 -12   1   6 997.646 715.220   8
 -12   1   5-5.08551 390.732   8
 -12   1   4 338.248 435.202   8
 -12   1   3 528.539 367.970   8
 -12   1   2 391.124 472.321   2
 -12   1   2 554.918 548.400   8
 -12   1   1-332.364 421.329   2
 -12   1   0 208.933 278.503   2
 -12   1  -1 634.808 577.660   2
 -12   1  -2 2492.21 1121.03   2
 -12   1  -3 1377.56 996.599   2
 -12   1  -4 2208.35 1077.10   2
 -12   1  -5 2968.75 1315.57   2
 -12   1  -6-74.1137 267.145   2
 -12   1  -7-301.982 464.577   2
 -12   1  -8 262.610 535.049   2
 -12   0  11 305.126 379.281   8
 -12   0  10 741.995 651.976   8
 -12   0   9 451.444 467.403   8
 -12   0   8 1050.97 646.377   8
 -12   0   7 1144.34 786.576   8
 -12   0   6 639.555 572.667   8
 -12   0   5 868.312 681.294   8
 -12   0   4 236.127 470.947   8
 -12   0   3 282.716 522.975   8
 -12   0   2-319.272 413.183   8
 -12   0   1 1100.07 669.876   8
 -12   0   0 184.182 396.884   2
 -12   0  -1 376.994 461.773   2
 -12   0  -2 2434.33 1032.24   2
 -12   0  -3 2926.47 1189.87   2
 -12   0  -4 3856.16 1407.28   2
 -12   0  -5 838.380 849.519   2
 -12   0  -6 643.111 710.199   2
 -12   0  -7 661.278 779.131   2
 -12   0  -8-90.6140 302.046   2
 -12  -1  12 251.100 402.211   8
 -12  -1  11 216.206 337.422   8
 -12  -1  10 293.965 487.651   8
 -12  -1   9-508.660 573.302   8
 -12  -1   8 768.403 667.640   8
 -12  -1   7 358.153 557.863   8
 -12  -1   6 604.373 443.573   8
 -12  -1   5-74.9348 463.277   8
 -12  -1   4 5042.69 1546.08   8
 -12  -1   3-347.553 390.868   8
 -12  -1   2-465.486 544.993   8
 -12  -1   1 289.022 492.162   8
 -12  -1   0-138.268 514.907   8
 -12  -1  -1 490.987 654.073   2
 -12  -1  -1 91.4119 465.450   8
 -12  -1  -2 494.879 666.746   2
 -12  -1  -2 23.8049 330.170   8
 -12  -1  -3 377.899 366.924   2
 -12  -1  -4 1311.88 994.044   2
 -12  -1  -5-1193.42 812.372   2
 -12  -1  -6 469.715 547.891   2
 -12  -1  -7 498.225 725.528   2
 -12  -2  13 896.576 642.262   8
 -12  -2  12 931.460 649.367   8
 -12  -2  11 1447.48 886.796   8
 -12  -2  10-209.787 334.252   8
 -12  -2   9 873.438 643.106   8
 -12  -2   8 339.045 420.347   8
 -12  -2   7-314.019 524.794   8
 -12  -2   6 387.431 438.784   8
 -12  -2   5 1459.86 816.888   8
 -12  -2   4-162.632 144.352   8
 -12  -2   3 1116.20 804.003   8
 -12  -2   2-777.877 625.191   8
 -12  -2   1-136.567 397.712   8
 -12  -2   0-546.483 676.827   8
 -12  -2  -1 995.026 908.227   8
 -12  -2  -2-528.541 544.207   8
 -12  -2  -3 1107.29 789.448   8
 -12  -2  -4 2516.75 1182.41   2
 -12  -2  -4 1623.92 973.125   8
 -12  -2  -5-263.274 446.685   2
 -12  -2  -5-651.992 609.118   8
 -12  -2  -6 416.973 619.682   2
 -12  -2  -6 2214.40 1112.33   8
 -12  -2  -7-275.228 440.424   2
 -12  -2  -7-384.492 501.716   8
 -12  -2  -8-173.584 368.272   8
 -12  -3  13 306.369 601.261   8
 -12  -3  12 351.480 557.492   8
 -12  -3  11-340.216 420.872   8
 -12  -3  10 346.221 394.286   8
 -12  -3   9-689.681 587.000   8
 -12  -3   8 835.674 603.453   8
 -12  -3   7 546.277 525.392   8
 -12  -3   6 2222.05 1045.91   8
 -12  -3   5 939.223 617.753   8
 -12  -3   4 1235.13 799.724   8
 -12  -3   3 625.185 538.735   8
 -12  -3   2 422.092 602.934   8
 -12  -3   1 425.785 464.322   8
 -12  -3   0-289.511 577.695   8
 -12  -3  -1 418.054 434.588   8
 -12  -3  -2 793.593 733.118   8
 -12  -3  -3 1056.51 771.468   8
 -12  -3  -4 183.859 619.832   8
 -12  -3  -5 899.895 809.492   8
 -12  -3  -6 2752.85 1188.38   8
 -12  -3  -7-484.214 549.263   8
 -12  -4  14 286.754 345.399   8
 -12  -4  13-361.127 420.140   8
 -12  -4  12 41.0819 218.333   8
 -12  -4  11-467.815 480.577   8
 -12  -4  10 1186.32 622.558   8
 -12  -4   9 1137.76 620.763   8
 -12  -4   8 518.765 520.285   8
 -12  -4   7 2358.82 1095.49   8
 -12  -4   6 1108.64 751.508   8
 -12  -4   5-1046.45 732.632   8
 -12  -4   4 1611.36 860.887   8
 -12  -4   3 1221.74 791.807   8
 -12  -4   2-309.796 286.626   8
 -12  -4   1 328.678 336.394   8
 -12  -4   0 1630.66 964.304   8
 -12  -4  -1 78.1335 253.349   8
 -12  -4  -2 1583.26 889.772   8
 -12  -4  -3 65.4560 245.882   8
 -12  -4  -4 901.791 759.977   8
 -12  -4  -5 819.066 585.937   8
 -12  -4  -6 456.165 528.794   8
 -12  -5  13-275.484 386.731   8
 -12  -5  12 258.440 406.100   8
 -12  -5  11 539.903 529.809   8
 -12  -5  10 573.342 550.555   8
 -12  -5   9-282.202 391.319   8
 -12  -5   8 4847.69 1520.18   8
 -12  -5   7-39.6057 227.364   8
 -12  -5   6 191.727 285.454   8
 -12  -5   5 8.28196 478.442   8
 -12  -5   4 366.104 566.299   8
 -12  -5   3 201.232 363.394   8
 -12  -5   2-161.508 310.129   8
 -12  -5   1 285.478 484.756   8
 -12  -5   0-532.554 546.138   8
 -12  -5  -1 99.1744 350.291   8
 -12  -5  -2 893.686 808.725   8
 -12  -5  -3 869.770 749.743   8
 -12  -5  -4 1532.83 906.830   8
 -12  -5  -5 962.804 696.868   8
 -12  -6  10-727.034 613.571   8
 -12  -6   9-72.7788 204.771   8
 -12  -6   8 408.717 496.374   8
 -12  -6   7-606.158 568.811   8
 -12  -6   6 1305.57 755.724   8
 -12  -6   5-358.629 454.030   8
 -12  -6   4 836.544 759.677   8
 -12  -6   3 424.661 474.159   8
 -12  -6   2-301.544 433.351   8
 -12  -6   1 645.242 665.836   8
 -12  -6   0 52.1060 368.219   8
 -12  -6  -1 211.420 422.553   8
 -12  -6  -2 1043.90 927.429   8
 -12  -6  -3 369.859 510.404   8
 -12  -7   7 198.846 492.990   8
 -12  -7   6-58.3837 287.539   8
 -12  -7   5-733.073 634.217   8
 -12  -7   4 1629.98 938.783   8
 -12  -7   3 233.560 285.206   8
 -12  -7   2-1686.36 949.345   8
 -12  -7   1-373.408 556.511   8
 -12  -7   0 1074.25 798.676   8
 -12  -7  -1 468.243 402.581   8
 -13  10  -1 116.994 554.511   2
 -13   9   1-1.40619 199.011   2
 -13   9   0 449.483 546.434   2
 -13   9  -1-569.016 575.994   2
 -13   9  -2 517.228 193.844   2
 -13   8   4-399.355 534.282   3
 -13   8   3 577.032 628.047   3
 -13   8   2 725.735 696.424   3
 -13   8   2-571.936 550.107   2
 -13   8   1-381.028 461.739   2
 -13   8   0 502.877 530.385   2
 -13   8  -1 131.169 606.511   2
 -13   8  -2-852.513 700.573   2
 -13   8  -3 2286.93 1121.01   2
 -13   7   3-847.780 725.649   3
 -13   7   3 684.557 588.904   2
 -13   7   2 185.805 413.623   3
 -13   7   2 15.0103 174.766   2
 -13   7   1 1758.67 1119.80   3
 -13   7   1 1998.72 1048.09   2
 -13   7   0-446.043 836.050   3
 -13   7   0 1478.40 922.662   2
 -13   7  -1 969.944 795.694   2
 -13   7  -2 294.183 469.724   2
 -13   7  -3 1979.35 1096.55   2
 -13   6   6-936.306 688.877   8
 -13   6   5 40.3034 201.754   8
 -13   6   4 191.955 237.411   2
 -13   6   3 1104.34 592.956   2
 -13   6   2 666.807 746.618   3
 -13   6   2 1229.70 728.240   2
 -13   6   1-497.304 577.089   3
 -13   6   1-550.694 548.268   2
 -13   6   0 1043.08 1090.35   3
 -13   6   0 2679.37 1225.39   2
 -13   6  -1 755.316 694.457   3
 -13   6  -1 375.437 715.162   2
 -13   6  -2-97.2489 747.324   3
 -13   6  -2 363.049 596.876   2
 -13   6  -3 380.839 518.401   2
 -13   6  -4 2152.43 1274.97   2
 -13   5   7 272.874 360.028   8
 -13   5   6 512.805 311.060   8
 -13   5   5 244.079 373.907   8
 -13   5   4 1071.16 723.384   2
 -13   5   3 165.340 338.103   2
 -13   5   2 276.902 294.333   2
 -13   5   1-921.283 699.938   2
 -13   5   0 383.248 469.532   2
 -13   5  -1 1714.75 1028.53   3
 -13   5  -1 23.3793 515.677   2
 -13   5  -2-625.446 656.133   3
 -13   5  -2 666.854 620.134   2
 -13   5  -3-1370.00 941.910   3
 -13   5  -3-68.6250 268.620   2
 -13   5  -4 491.339 823.218   2
 -13   4   8 892.707 775.180   8
 -13   4   7-464.567 492.935   8
 -13   4   6-881.101 674.563   8
 -13   4   5-1062.59 738.526   8
 -13   4   4 1876.66 955.676   8
 -13   4   3 249.492 456.946   2
 -13   4   2 446.016 488.854   2
 -13   4   1-21.0870 191.052   2
 -13   4   0 255.279 400.985   2
 -13   4  -1 503.470 539.742   2
 -13   4  -2-542.567 567.336   2
 -13   4  -3 85.4292 261.800   2
 -13   4  -4 1987.48 1066.00   2
 -13   3   8 846.262 779.746   8
 -13   3   7 710.021 672.177   8
 -13   3   6 115.848 276.088   8
 -13   3   5 1591.34 1018.81   8
 -13   3   4 297.450 235.831   8
 -13   3   3-978.905 729.906   8
 -13   3   2 1761.67 962.084   2
 -13   3   1-290.596 411.153   2
 -13   3   0-132.653 320.187   2
 -13   3  -1 204.117 254.652   2
 -13   3  -2-637.376 610.212   2
 -13   3  -3 304.596 482.325   2
 -13   3  -4 606.631 714.738   2
 -13   2   9 261.209 373.263   8
 -13   2   8-417.891 468.091   8
 -13   2   7 1207.55 776.128   8
 -13   2   6 464.350 510.909   8
 -13   2   5 2593.56 1198.52   8
 -13   2   4 1664.99 950.530   8
 -13   2   3 1014.39 638.007   8
 -13   2   2 507.690 598.896   2
 -13   2   2-1344.50 853.863   8
 -13   2   1 524.274 538.878   2
 -13   2   0-444.084 513.676   2
 -13   2  -1 521.316 565.847   2
 -13   2  -2 386.011 486.526   2
 -13   2  -3 1900.79 967.370   2
 -13   2  -4 825.515 678.755   2
 -13   1  10-739.609 604.769   8
 -13   1   9 481.306 497.165   8
 -13   1   8 1278.10 760.701   8
 -13   1   7 2079.73 1073.02   8
 -13   1   6 1671.04 918.120   8
 -13   1   5 430.848 487.900   8
 -13   1   4-12.9216 303.111   8
 -13   1   3-274.758 414.590   8
 -13   1   2-503.942 544.306   8
 -13   1   1-38.7120 219.323   8
 -13   1   0-8.84118 320.741   2
 -13   1  -1 615.746 399.141   2
 -13   1  -2 6876.66 1952.78   2
 -13   1  -3 822.100 896.002   2
 -13   1  -4 1797.10 1091.35   2
 -13   0  10 1094.68 810.743   8
 -13   0   9 1180.00 802.183   8
 -13   0   8-708.929 617.603   8
 -13   0   7 51.6963 214.287   8
 -13   0   6 313.262 534.263   8
 -13   0   5-11.4234 154.911   8
 -13   0   4 1121.52 709.008   8
 -13   0   3 1308.54 956.199   8
 -13   0   2 436.095 720.329   8
 -13   0   1-307.045 455.668   8
 -13   0   0 1130.32 697.817   8
 -13   0  -1 370.530 485.297   2
 -13   0  -1 618.051 691.690   8
 -13   0  -2-1041.63 780.497   2
 -13   0  -3 2498.49 1228.41   2
 -13  -1  11-213.598 359.609   8
 -13  -1  10-165.706 312.208   8
 -13  -1   9 2.78266 252.198   8
 -13  -1   8 42.1361 380.044   8
 -13  -1   7 351.177 404.479   8
 -13  -1   6-740.973 625.995   8
 -13  -1   5 304.082 414.208   8
 -13  -1   4 1662.03 1039.87   8
 -13  -1   3-155.848 333.843   8
 -13  -1   2-467.730 527.346   8
 -13  -1   1-168.567 357.442   8
 -13  -1   0-637.752 620.789   8
 -13  -1  -1-432.334 529.452   8
 -13  -1  -2 720.992 672.917   8
 -13  -2  11 261.937 467.791   8
 -13  -2  10-602.083 570.986   8
 -13  -2   9-300.701 417.017   8
 -13  -2   8-139.638 299.034   8
 -13  -2   7 605.040 623.839   8
 -13  -2   6-125.988 295.348   8
 -13  -2   5 3133.89 1388.76   8
 -13  -2   4 318.234 558.008   8
 -13  -2   3 1925.88 1128.86   8
 -13  -2   2-706.597 642.332   8
 -13  -2   1 320.335 446.043   8
 -13  -2   0 1223.16 865.711   8
 -13  -2  -1 18.6322 194.417   8
 -13  -3   8 57.8514 195.899   8
 -13  -3   7 786.386 621.063   8
 -13  -3   6 763.494 765.742   8
 -13  -3   5 668.478 630.073   8
 -13  -3   4 1905.27 1028.03   8
 -13  -3   3 273.787 622.113   8
 -13  -3   2 307.503 508.704   8
 -13  -3   1 50.4478 276.118   8
 -14   5   3-248.972 403.430   2
   0   0   0    0.00    0.00   0
TITL chenchj_0418_2 in P-1
REM P-1 (#2 in standard setting)
CELL 0.71073  10.613263  15.184272  17.364037 107.9393  92.8059  93.5576
ZERR   11.00   0.000944   0.001654   0.001645   0.0091   0.0077   0.0082
LATT  1
SFAC C H N O
UNIT 121.00 110.00 11.00 11.00
TREF
HKLF 4
END
;
_shelx_hkl_checksum              2041
_shelx_shelxl_version_number     2014/7
_olex2_submission_special_instructions 'No special instructions were received'
loop_
_space_group_symop_operation_xyz
'x, y, z'
'-x, -y, -z'
loop_
_atom_site_label
_atom_site_type_symbol
_atom_site_fract_x
_atom_site_fract_y
_atom_site_fract_z
_atom_site_U_iso_or_equiv
_atom_site_adp_type
_atom_site_occupancy
_atom_site_site_symmetry_order
_atom_site_calc_flag
_atom_site_refinement_flags_posn
_atom_site_refinement_flags_adp
_atom_site_refinement_flags_occupancy
_atom_site_disorder_assembly
_atom_site_disorder_group
S1 S 0.09116(10) 0.21362(6) 0.72213(5) 0.0284(3) Uani 1 1 d . . . A 1
Na1 Na 0.26118(15) 0.06277(9) 0.63798(7) 0.0357(4) Uani 1 1 d . . . A 1
O1 O 0.1405(2) 0.19017(15) 0.64154(12) 0.0311(6) Uani 1 1 d . . . A 1
O2 O -0.0434(2) 0.18555(16) 0.71796(12) 0.0324(6) Uani 1 1 d . . . A 1
O3 O 0.1098(3) -0.06910(17) 0.56207(14) 0.0409(7) Uani 1 1 d . . . A 1
O4 O 0.2842(3) 0.01617(17) 0.48930(13) 0.0365(7) Uani 1 1 d . . . A 1
O5 O 0.4408(3) 0.14979(17) 0.59530(14) 0.0409(7) Uani 1 1 d . . . A 1
O7 O 0.4734(3) 0.04777(18) 0.69879(14) 0.0435(8) Uani 1 1 d . . . A 1
O8 O 0.2633(3) -0.06925(17) 0.69250(15) 0.0455(8) Uani 1 1 d . . . A 1
N1 N 0.1810(3) 0.17376(18) 0.77438(14) 0.0261(7) Uani 1 1 d . . . A 1
C1 C 0.1029(4) 0.3394(2) 0.76278(18) 0.0241(9) Uani 1 1 d . . . A 1
C2 C 0.2008(4) 0.3928(2) 0.74258(18) 0.0288(9) Uani 1 1 d . . . A 1
C3 C 0.1986(4) 0.4897(2) 0.76788(19) 0.0352(10) Uani 1 1 d . . . A 1
H3 H 0.2620 0.5250 0.7529 0.042 Uiso 1 1 calc R . . A 1
C4 C 0.1060(4) 0.5347(2) 0.81415(19) 0.0316(10) Uani 1 1 d . . . A 1
C5 C 0.0163(4) 0.4809(2) 0.83804(19) 0.0327(10) Uani 1 1 d . . . A 1
H5 H -0.0446 0.5108 0.8710 0.039 Uiso 1 1 calc R . . A 1
C6 C 0.0115(4) 0.3847(2) 0.81583(19) 0.0276(9) Uani 1 1 d . . . A 1
C7 C 0.3122(4) 0.3523(2) 0.6944(2) 0.0349(10) Uani 1 1 d . . . A 1
H7 H 0.3151 0.2879 0.6943 0.042 Uiso 1 1 calc R . . A 1
C8 C 0.2918(5) 0.3514(3) 0.6059(2) 0.0543(13) Uani 1 1 d . . . A 1
H8A H 0.2146 0.3148 0.5818 0.081 Uiso 1 1 calc GR . . A 1
H8B H 0.3615 0.3250 0.5762 0.081 Uiso 1 1 calc GR . . A 1
H8C H 0.2864 0.4138 0.6046 0.081 Uiso 1 1 calc GR . . A 1
C9 C 0.4391(4) 0.4048(3) 0.7326(2) 0.0561(13) Uani 1 1 d . . . A 1
H9A H 0.4432 0.4658 0.7268 0.084 Uiso 1 1 calc GR . . A 1
H9B H 0.5069 0.3716 0.7059 0.084 Uiso 1 1 calc GR . . A 1
H9C H 0.4469 0.4100 0.7892 0.084 Uiso 1 1 calc GR . . A 1
C10 C 0.1028(5) 0.6397(3) 0.8387(2) 0.0481(12) Uani 1 1 d . . . A 1
H10 H 0.0593 0.6588 0.8890 0.058 Uiso 1 1 calc R . . A 1
C11 C 0.0243(6) 0.6665(3) 0.7748(3) 0.088(2) Uani 1 1 d . . . A 1
H11A H 0.0646 0.6493 0.7246 0.132 Uiso 1 1 calc GR . . A 1
H11B H 0.0174 0.7324 0.7928 0.132 Uiso 1 1 calc GR . . A 1
H11C H -0.0587 0.6348 0.7669 0.132 Uiso 1 1 calc GR . . A 1
C12 C 0.2297(6) 0.6924(3) 0.8554(4) 0.110(2) Uani 1 1 d . . . A 1
H12A H 0.2798 0.6724 0.8935 0.165 Uiso 1 1 calc GR . . A 1
H12B H 0.2197 0.7576 0.8778 0.165 Uiso 1 1 calc GR . . A 1
H12C H 0.2711 0.6812 0.8058 0.165 Uiso 1 1 calc GR . . A 1
C13 C -0.0905(4) 0.3375(3) 0.85184(19) 0.0385(10) Uani 1 1 d . . . A 1
H13 H -0.0732 0.2721 0.8392 0.046 Uiso 1 1 calc R . . A 1
C14 C -0.2220(4) 0.3400(3) 0.8135(2) 0.0611(14) Uani 1 1 d . . . A 1
H14A H -0.2410 0.4034 0.8235 0.092 Uiso 1 1 calc GR . . A 1
H14B H -0.2835 0.3087 0.8369 0.092 Uiso 1 1 calc GR . . A 1
H14C H -0.2243 0.3095 0.7561 0.092 Uiso 1 1 calc GR . . A 1
C15 C -0.0882(4) 0.3778(3) 0.9440(2) 0.0476(12) Uani 1 1 d . . . A 1
H15A H -0.0044 0.3775 0.9673 0.071 Uiso 1 1 calc GR . . A 1
H15B H -0.1465 0.3409 0.9643 0.071 Uiso 1 1 calc GR . . A 1
H15C H -0.1123 0.4404 0.9583 0.071 Uiso 1 1 calc GR . . A 1
C16 C 0.1544(4) 0.1830(2) 0.85614(19) 0.0279(9) Uani 1 1 d . . . A 1
C17 C 0.0653(4) 0.1211(2) 0.87486(19) 0.0308(9) Uani 1 1 d . . . A 1
C18 C 0.0456(4) 0.1318(3) 0.9558(2) 0.0409(11) Uani 1 1 d . . . A 1
H18 H -0.0144 0.0917 0.9680 0.049 Uiso 1 1 calc R . . A 1
C19 C 0.1123(4) 0.1998(3) 1.0182(2) 0.0444(12) Uani 1 1 d . . . A 1
H19 H 0.0969 0.2061 1.0718 0.053 Uiso 1 1 calc R . . A 1
C20 C 0.2017(4) 0.2584(3) 1.0007(2) 0.0375(10) Uani 1 1 d . . . A 1
H20 H 0.2481 0.3035 1.0431 0.045 Uiso 1 1 calc R . . A 1
C21 C 0.2253(4) 0.2521(2) 0.92007(19) 0.0271(9) Uani 1 1 d . . . A 1
C22 C -0.0088(4) 0.0413(2) 0.8108(2) 0.0400(10) Uani 1 1 d . . . A 1
H22 H 0.0195 0.0411 0.7578 0.048 Uiso 1 1 calc R . . A 1
C23 C -0.1519(4) 0.0515(3) 0.8090(2) 0.0550(13) Uani 1 1 d . . . A 1
H23A H -0.1833 0.0478 0.8589 0.082 Uiso 1 1 calc GR . . A 1
H23B H -0.1939 0.0026 0.7644 0.082 Uiso 1 1 calc GR . . A 1
H23C H -0.1678 0.1105 0.8027 0.082 Uiso 1 1 calc GR . . A 1
C24 C 0.0183(4) -0.0524(3) 0.8219(2) 0.0538(13) Uani 1 1 d . . . A 1
H24A H 0.1073 -0.0599 0.8196 0.081 Uiso 1 1 calc GR . . A 1
H24B H -0.0277 -0.1018 0.7795 0.081 Uiso 1 1 calc GR . . A 1
H24C H -0.0079 -0.0541 0.8736 0.081 Uiso 1 1 calc GR . . A 1
C25 C 0.3280(4) 0.3179(2) 0.9060(2) 0.0320(9) Uani 1 1 d . . . A 1
H25 H 0.3268 0.3080 0.8475 0.038 Uiso 1 1 calc R . . A 1
C26 C 0.4589(4) 0.2974(3) 0.9340(2) 0.0470(11) Uani 1 1 d . . . A 1
H26A H 0.4629 0.3071 0.9914 0.070 Uiso 1 1 calc GR . . A 1
H26B H 0.5225 0.3381 0.9220 0.070 Uiso 1 1 calc GR . . A 1
H26C H 0.4734 0.2341 0.9061 0.070 Uiso 1 1 calc GR . . A 1
C27 C 0.3076(4) 0.4204(2) 0.9478(2) 0.0454(11) Uani 1 1 d . . . A 1
H27A H 0.2256 0.4334 0.9303 0.068 Uiso 1 1 calc GR . . A 1
H27B H 0.3715 0.4591 0.9336 0.068 Uiso 1 1 calc GR . . A 1
H27C H 0.3130 0.4329 1.0056 0.068 Uiso 1 1 calc GR . . A 1
C28 C 0.5581(4) 0.1567(3) 0.6413(2) 0.0448(11) Uani 1 1 d . . . A 1
H28A H 0.6012 0.2179 0.6518 0.054 Uiso 1 1 calc R . . A 1
H28B H 0.6123 0.1109 0.6113 0.054 Uiso 1 1 calc R . . A 1
C29 C 0.5310(4) 0.1402(3) 0.7193(2) 0.0483(12) Uani 1 1 d . . . A 1
H29A H 0.6087 0.1468 0.7531 0.058 Uiso 1 1 calc R . . A 1
H29B H 0.4743 0.1843 0.7487 0.058 Uiso 1 1 calc R . . A 1
C30 C 0.4444(4) 0.0201(3) 0.7669(2) 0.0489(12) Uani 1 1 d . . . A 1
H30A H 0.3899 0.0627 0.8005 0.059 Uiso 1 1 calc R . . A 1
H30B H 0.5212 0.0196 0.7993 0.059 Uiso 1 1 calc R . . A 1
C31 C 0.3784(4) -0.0757(3) 0.7352(2) 0.0510(12) Uani 1 1 d . . . A 1
H31A H 0.4311 -0.1175 0.6992 0.061 Uiso 1 1 calc R . . A 1
H31B H 0.3610 -0.0995 0.7798 0.061 Uiso 1 1 calc R . . A 1
C32 C 0.2067(4) -0.1553(3) 0.6419(2) 0.0509(12) Uani 1 1 d . . . A 1
H32A H 0.1881 -0.1966 0.6736 0.061 Uiso 1 1 calc R . . A 1
H32B H 0.2632 -0.1845 0.6010 0.061 Uiso 1 1 calc R . . A 1
C33 C 0.0861(4) -0.1363(3) 0.6023(2) 0.0489(12) Uani 1 1 d . . . A 1
H33A H 0.0482 -0.1935 0.5634 0.059 Uiso 1 1 calc R . . A 1
H33B H 0.0266 -0.1140 0.6433 0.059 Uiso 1 1 calc R . . A 1
C34 C 0.1330(4) -0.1079(3) 0.4784(2) 0.0449(11) Uani 1 1 d . . . A 1
H34A H 0.0580 -0.1443 0.4482 0.054 Uiso 1 1 calc R . . A 1
H34B H 0.2017 -0.1482 0.4729 0.054 Uiso 1 1 calc R . . A 1
C35 C 0.1669(4) -0.0298(3) 0.4470(2) 0.0449(11) Uani 1 1 d . . . A 1
H35A H 0.1764 -0.0529 0.3891 0.054 Uiso 1 1 calc R . . A 1
H35B H 0.1011 0.0131 0.4565 0.054 Uiso 1 1 calc R . . A 1
C36 C 0.3244(4) 0.0972(3) 0.4690(2) 0.0450(12) Uani 1 1 d . . . A 1
H36A H 0.2658 0.1447 0.4871 0.054 Uiso 1 1 calc R . . A 1
H36B H 0.3283 0.0824 0.4108 0.054 Uiso 1 1 calc R . . A 1
C38 C 0.4518(4) 0.1302(3) 0.5107(2) 0.0458(12) Uani 1 1 d . . . A 1
H38A H 0.5104 0.0829 0.4919 0.055 Uiso 1 1 calc R . . A 1
H38B H 0.4835 0.1858 0.4991 0.055 Uiso 1 1 calc R . . A 1
C1A C 0.2312(6) 0.3426(5) 0.3912(3) 0.133(3) Uani 1 1 d . . . B 1
H H 0.1489 0.3610 0.3807 0.200 Uiso 1 1 calc GR . . B 1
HA H 0.2812 0.3945 0.4284 0.200 Uiso 1 1 calc GR . . B 1
HB H 0.2228 0.2929 0.4144 0.200 Uiso 1 1 calc GR . . B 1
C2A C 0.2922(6) 0.3116(5) 0.3164(4) 0.0931(19) Uani 1 1 d . . . B 1
C3A C 0.2990(6) 0.2202(4) 0.2800(4) 0.0800(18) Uani 1 1 d . . . B 1
HC H 0.2652 0.1775 0.3036 0.096 Uiso 1 1 calc R . . B 1
C4A C 0.3568(7) 0.1888(5) 0.2063(5) 0.100(2) Uani 1 1 d . . . B 1
HD H 0.3562 0.1253 0.1801 0.120 Uiso 1 1 calc R . . B 1
C5A C 0.4115(6) 0.2470(6) 0.1740(4) 0.100(2) Uani 1 1 d . . . B 1
HE H 0.4547 0.2254 0.1273 0.120 Uiso 1 1 calc R . . B 1
C6A C 0.4040(7) 0.3445(5) 0.2114(4) 0.103(2) Uani 1 1 d . . . B 1
HF H 0.4392 0.3869 0.1880 0.124 Uiso 1 1 calc R . . B 1
C7A C 0.3444(6) 0.3749(5) 0.2820(4) 0.095(2) Uani 1 1 d . . . B 1
HG H 0.3391 0.4381 0.3067 0.115 Uiso 1 1 calc R . . B 1
C1B C 0.3856(16) 0.6161(12) 0.5831(10) 0.174(10) Uani 0.550(14) 1 d D . P C -1
HH H 0.4419 0.6702 0.5893 0.260 Uiso 0.550(14) 1 calc GR . P C -1
HI H 0.4313 0.5616 0.5662 0.260 Uiso 0.550(14) 1 calc GR . P C -1
HJ H 0.3507 0.6203 0.6340 0.260 Uiso 0.550(14) 1 calc GR . P C -1
C2B C 0.2901(9) 0.6109(5) 0.5261(5) 0.084(5) Uani 0.550(14) 1 d . . P C -1
C7B C 0.1633(10) 0.5992(5) 0.5403(6) 0.072(6) Uani 0.550(14) 1 d DG . P C -1
HK H 0.1413 0.5928 0.5896 0.087 Uiso 0.550(14) 1 calc R . P C -1
C6B C 0.0695(8) 0.5970(6) 0.4809(8) 0.123(8) Uani 0.550(14) 1 d G . P C -1
HL H -0.0153 0.5892 0.4905 0.147 Uiso 0.550(14) 1 calc R . P C -1
C5B C 0.1024(11) 0.6066(7) 0.4072(7) 0.186(14) Uani 0.550(14) 1 d G . P C -1
HM H 0.0396 0.6052 0.3675 0.223 Uiso 0.550(14) 1 calc R . P C -1
C4B C 0.2291(13) 0.6183(7) 0.3930(5) 0.123(7) Uani 0.550(14) 1 d G . P C -1
HN H 0.2511 0.6247 0.3437 0.148 Uiso 0.550(14) 1 calc R . P C -1
C3B C 0.3229(9) 0.6205(6) 0.4524(6) 0.103(7) Uani 0.550(14) 1 d DG . P C -1
HO H 0.4077 0.6283 0.4428 0.123 Uiso 0.550(14) 1 calc R . P C -1
C1C C 0.0839(14) 0.6199(12) 0.3993(7) 0.083(6) Uani 0.450(14) 1 d D U P C -2
HP H 0.0024 0.6259 0.4212 0.125 Uiso 0.450(14) 1 calc GR . P C -2
HQ H 0.0810 0.5642 0.3539 0.125 Uiso 0.450(14) 1 calc GR . P C -2
HR H 0.1060 0.6726 0.3817 0.125 Uiso 0.450(14) 1 calc GR . P C -2
C2C C 0.1755(9) 0.6156(7) 0.4597(5) 0.055(4) Uani 0.450(14) 1 d . U P C -2
C3C C 0.1371(9) 0.5970(7) 0.5289(5) 0.064(4) Uani 0.450(14) 1 d DG U P C -2
HS H 0.0514 0.5880 0.5356 0.076 Uiso 0.450(14) 1 calc R . P C -2
C4C C 0.2268(12) 0.5918(7) 0.5881(5) 0.061(3) Uani 0.450(14) 1 d G U P C -2
HT H 0.2011 0.5794 0.6344 0.073 Uiso 0.450(14) 1 calc R . P C -2
C5C C 0.3550(11) 0.6053(8) 0.5781(6) 0.080(4) Uani 0.450(14) 1 d G U P C -2
HU H 0.4150 0.6018 0.6177 0.096 Uiso 0.450(14) 1 calc R . P C -2
C6C C 0.3934(8) 0.6239(8) 0.5089(7) 0.084(4) Uani 0.450(14) 1 d G U P C -2
HV H 0.4791 0.6329 0.5022 0.100 Uiso 0.450(14) 1 calc R . P C -2
C7C C 0.3037(10) 0.6291(7) 0.4497(6) 0.070(4) Uani 0.450(14) 1 d DG U P C -2
HW H 0.3294 0.6415 0.4034 0.085 Uiso 0.450(14) 1 calc R . P C -2
C1D C 0.7161(14) 1.0255(9) 1.0193(9) 0.086(4) Uani 0.5 1 d . U P D -3
HX H 0.7560 0.9942 0.9710 0.129 Uiso 0.5 1 calc GR . P D -3
HY H 0.7468 1.0050 1.0633 0.129 Uiso 0.5 1 calc GR . P D -3
HZ H 0.7354 1.0913 1.0327 0.129 Uiso 0.5 1 calc GR . P D -3
C2D C 0.5794(6) 1.0042(6) 1.0054(5) 0.055(2) Uani 0.5 1 d . U P D -3
C7D C 0.5023(8) 1.0650(4) 0.9841(4) 0.059(3) Uani 0.5 1 d G U P D -3
H0AA H 0.5380 1.1188 0.9762 0.071 Uiso 0.5 1 calc R . P D -3
C6D C 0.3717(8) 1.0453(6) 0.9745(4) 0.068(3) Uani 0.5 1 d G U P D -3
H1AA H 0.3201 1.0859 0.9603 0.082 Uiso 0.5 1 calc R . P D -3
C5D C 0.3183(6) 0.9649(7) 0.9863(5) 0.073(3) Uani 0.5 1 d G U P D -3
H2AA H 0.2310 0.9517 0.9799 0.088 Uiso 0.5 1 calc R . P D -3
C4D C 0.3955(8) 0.9042(5) 1.0076(4) 0.071(3) Uani 0.5 1 d G U P D -3
H3AA H 0.3598 0.8504 1.0154 0.085 Uiso 0.5 1 calc R . P D -3
C3D C 0.5260(8) 0.9238(5) 1.0171(4) 0.064(3) Uani 0.5 1 d G U P D -3
H4AA H 0.5777 0.8832 1.0314 0.077 Uiso 0.5 1 calc R . P D -3
loop_
_atom_site_aniso_label
_atom_site_aniso_U_11
_atom_site_aniso_U_22
_atom_site_aniso_U_33
_atom_site_aniso_U_23
_atom_site_aniso_U_13
_atom_site_aniso_U_12
S1 0.0314(7) 0.0230(5) 0.0282(5) 0.0035(4) 0.0053(4) 0.0027(4)
Na1 0.0374(11) 0.0278(8) 0.0386(8) 0.0044(6) 0.0036(7) 0.0073(7)
O1 0.0369(18) 0.0269(14) 0.0251(12) 0.0005(11) 0.0037(11) 0.0078(12)
O2 0.0233(17) 0.0309(14) 0.0386(13) 0.0043(11) 0.0017(12) 0.0025(12)
O3 0.039(2) 0.0358(16) 0.0425(15) 0.0038(13) 0.0062(13) 0.0061(14)
O4 0.0345(19) 0.0342(15) 0.0368(14) 0.0054(12) -0.0008(12) 0.0041(13)
O5 0.041(2) 0.0370(16) 0.0382(14) 0.0013(12) 0.0062(13) 0.0066(14)
O7 0.047(2) 0.0405(17) 0.0390(15) 0.0059(13) 0.0017(13) 0.0042(14)
O8 0.045(2) 0.0341(16) 0.0544(16) 0.0097(13) -0.0034(15) 0.0044(14)
N1 0.034(2) 0.0240(16) 0.0221(14) 0.0089(13) 0.0035(13) 0.0049(14)
C1 0.026(2) 0.0231(19) 0.0201(17) 0.0017(15) -0.0002(16) 0.0047(17)
C2 0.033(3) 0.027(2) 0.0258(18) 0.0068(16) 0.0031(17) 0.0058(18)
C3 0.049(3) 0.024(2) 0.034(2) 0.0098(17) 0.0082(19) 0.0054(19)
C4 0.041(3) 0.023(2) 0.0285(19) 0.0042(17) 0.0005(18) 0.0058(19)
C5 0.028(3) 0.034(2) 0.035(2) 0.0064(18) 0.0055(18) 0.0116(19)
C6 0.027(3) 0.028(2) 0.0258(18) 0.0043(16) -0.0003(17) 0.0033(18)
C7 0.038(3) 0.024(2) 0.043(2) 0.0084(18) 0.018(2) 0.0027(18)
C8 0.079(4) 0.040(3) 0.048(2) 0.014(2) 0.033(2) 0.015(2)
C9 0.047(3) 0.041(3) 0.077(3) 0.011(2) 0.024(3) 0.004(2)
C10 0.074(4) 0.031(2) 0.039(2) 0.0067(19) 0.016(2) 0.018(2)
C11 0.151(6) 0.053(3) 0.074(3) 0.031(3) 0.023(4) 0.046(4)
C12 0.102(6) 0.031(3) 0.165(6) -0.014(3) 0.018(4) -0.013(3)
C13 0.033(3) 0.036(2) 0.037(2) -0.0036(18) 0.0057(19) 0.0033(19)
C14 0.033(3) 0.080(4) 0.058(3) 0.005(2) -0.003(2) -0.005(3)
C15 0.049(3) 0.044(3) 0.046(2) 0.008(2) 0.016(2) -0.004(2)
C16 0.027(3) 0.0233(19) 0.033(2) 0.0080(16) 0.0043(17) 0.0051(17)
C17 0.035(3) 0.025(2) 0.032(2) 0.0086(17) 0.0049(18) 0.0057(18)
C18 0.038(3) 0.042(3) 0.045(2) 0.016(2) 0.009(2) 0.002(2)
C19 0.056(3) 0.052(3) 0.031(2) 0.016(2) 0.015(2) 0.022(2)
C20 0.043(3) 0.038(2) 0.030(2) 0.0079(18) 0.0021(19) 0.011(2)
C21 0.023(2) 0.028(2) 0.0301(19) 0.0078(16) -0.0003(16) 0.0072(17)
C22 0.044(3) 0.032(2) 0.047(2) 0.0179(19) 0.008(2) -0.003(2)
C23 0.046(4) 0.048(3) 0.071(3) 0.022(2) 0.004(2) -0.011(2)
C24 0.068(4) 0.043(3) 0.050(2) 0.015(2) 0.009(2) -0.005(2)
C25 0.025(3) 0.035(2) 0.034(2) 0.0086(18) -0.0031(17) 0.0014(18)
C26 0.039(3) 0.048(3) 0.053(2) 0.014(2) 0.002(2) 0.002(2)
C27 0.047(3) 0.033(2) 0.051(2) 0.0059(19) -0.003(2) 0.005(2)
C28 0.035(3) 0.034(2) 0.058(3) 0.003(2) 0.007(2) -0.001(2)
C29 0.041(3) 0.037(3) 0.055(3) -0.002(2) -0.003(2) 0.002(2)
C30 0.048(3) 0.048(3) 0.051(2) 0.016(2) -0.009(2) 0.007(2)
C31 0.045(3) 0.055(3) 0.059(3) 0.025(2) 0.000(2) 0.016(2)
C32 0.057(4) 0.033(2) 0.061(3) 0.013(2) 0.007(2) -0.001(2)
C33 0.044(3) 0.040(3) 0.054(3) 0.004(2) 0.008(2) -0.004(2)
C34 0.033(3) 0.049(3) 0.039(2) -0.005(2) -0.002(2) -0.001(2)
C35 0.038(3) 0.052(3) 0.040(2) 0.008(2) -0.003(2) 0.009(2)
C36 0.056(4) 0.043(3) 0.038(2) 0.014(2) 0.005(2) 0.011(2)
C38 0.060(4) 0.030(2) 0.048(2) 0.0115(19) 0.017(2) 0.004(2)
C1A 0.110(7) 0.231(9) 0.058(4) 0.043(4) 0.007(4) 0.014(6)
C2A 0.073(5) 0.110(6) 0.090(4) 0.026(4) -0.014(4) 0.006(4)
C3A 0.075(5) 0.062(4) 0.098(4) 0.020(4) -0.011(4) 0.006(3)
C4A 0.080(6) 0.091(5) 0.138(6) 0.054(5) -0.018(5) -0.006(4)
C5A 0.076(6) 0.114(6) 0.095(4) 0.014(5) -0.007(4) -0.002(4)
C6A 0.122(7) 0.086(5) 0.090(4) 0.025(4) -0.022(4) -0.036(4)
C7A 0.106(6) 0.093(5) 0.109(5) 0.071(4) -0.009(4) -0.031(4)
C1B 0.23(2) 0.053(10) 0.217(18) 0.030(11) -0.114(16) 0.003(12)
C2B 0.112(13) 0.042(6) 0.088(9) 0.010(6) -0.021(8) -0.006(7)
C7B 0.061(9) 0.047(8) 0.098(12) 0.004(7) 0.046(9) -0.010(7)
C6B 0.105(13) 0.044(7) 0.196(19) -0.005(10) 0.076(13) -0.004(8)
C5B 0.25(4) 0.059(13) 0.25(3) 0.043(17) 0.09(3) 0.041(17)
C4B 0.17(2) 0.079(9) 0.116(11) 0.021(8) 0.054(12) -0.025(11)
C3B 0.160(18) 0.096(11) 0.052(8) 0.024(8) 0.053(10) -0.040(10)
C1C 0.115(12) 0.056(9) 0.059(8) 0.000(7) -0.043(10) -0.011(9)
C2C 0.087(7) 0.035(5) 0.043(6) 0.014(4) -0.015(5) 0.010(5)
C3C 0.086(8) 0.045(7) 0.056(6) 0.011(6) -0.005(6) 0.012(6)
C4C 0.096(8) 0.045(6) 0.047(5) 0.021(5) 0.000(5) 0.015(6)
C5C 0.093(8) 0.058(7) 0.085(8) 0.016(6) -0.019(7) 0.010(7)
C6C 0.075(7) 0.066(7) 0.105(8) 0.021(6) 0.007(6) -0.002(6)
C7C 0.088(8) 0.048(7) 0.080(8) 0.024(6) 0.011(6) 0.010(7)
C1D 0.086(7) 0.088(9) 0.085(8) 0.031(7) -0.011(7) 0.006(6)
C2D 0.070(5) 0.055(5) 0.042(4) 0.014(4) 0.012(5) 0.020(4)
C7D 0.081(6) 0.049(5) 0.052(5) 0.020(4) 0.006(5) 0.022(4)
C6D 0.082(6) 0.068(5) 0.054(5) 0.016(4) 0.005(5) 0.017(5)
C5D 0.080(7) 0.084(7) 0.053(6) 0.016(5) 0.004(6) 0.009(5)
C4D 0.081(6) 0.073(6) 0.060(5) 0.022(4) -0.005(5) 0.010(5)
C3D 0.080(6) 0.057(5) 0.061(6) 0.023(4) 0.005(5) 0.018(5)
loop_
_atom_type_symbol
_atom_type_description
_atom_type_scat_dispersion_real
_atom_type_scat_dispersion_imag
_atom_type_scat_source
C C 0.0033 0.0016 'International Tables Vol C Tables 4.2.6.8 and 6.1.1.4'
H H 0.0000 0.0000 'International Tables Vol C Tables 4.2.6.8 and 6.1.1.4'
N N 0.0061 0.0033 'International Tables Vol C Tables 4.2.6.8 and 6.1.1.4'
Na Na 0.0362 0.0249 'International Tables Vol C Tables 4.2.6.8 and 6.1.1.4'
O O 0.0106 0.0060 'International Tables Vol C Tables 4.2.6.8 and 6.1.1.4'
S S 0.1246 0.1234 'International Tables Vol C Tables 4.2.6.8 and 6.1.1.4'
loop_
_geom_angle_atom_site_label_1
_geom_angle_atom_site_label_2
_geom_angle_atom_site_label_3
_geom_angle
O1 S1 Na1 49.09(9)
O1 S1 N1 106.10(14)
O1 S1 C1 106.83(15)
O2 S1 Na1 116.53(10)
O2 S1 O1 112.03(14)
O2 S1 N1 116.90(16)
O2 S1 C1 105.04(16)
N1 S1 Na1 60.54(10)
N1 S1 C1 109.56(15)
C1 S1 Na1 137.23(13)
S1 Na1 C29 103.90(8)
O1 Na1 S1 27.84(5)
O1 Na1 O3 101.00(10)
O1 Na1 O4 95.23(9)
O1 Na1 O5 87.04(9)
O1 Na1 O7 134.06(10)
O1 Na1 O8 139.89(11)
O1 Na1 N1 57.01(8)
O1 Na1 C29 108.43(11)
O3 Na1 S1 103.63(8)
O3 Na1 O4 67.79(9)
O3 Na1 O5 132.66(9)
O3 Na1 O7 124.76(10)
O3 Na1 N1 115.12(11)
O3 Na1 C29 150.38(11)
O4 Na1 S1 122.22(8)
O4 Na1 O5 65.03(9)
O4 Na1 O7 104.87(10)
O4 Na1 N1 152.21(10)
O4 Na1 C29 105.58(11)
O5 Na1 S1 104.22(7)
O5 Na1 N1 108.33(9)
O5 Na1 C29 48.09(10)
O7 Na1 S1 122.52(7)
O7 Na1 O5 66.03(10)
O7 Na1 N1 95.58(9)
O7 Na1 C29 26.53(9)
O8 Na1 S1 114.76(8)
O8 Na1 O3 67.01(9)
O8 Na1 O4 112.88(9)
O8 Na1 O5 130.04(11)
O8 Na1 O7 67.05(10)
O8 Na1 N1 92.23(9)
O8 Na1 C29 91.52(11)
N1 Na1 S1 30.61(6)
N1 Na1 C29 84.55(10)
S1 O1 Na1 103.07(12)
C33 O3 Na1 114.4(2)
C33 O3 C34 114.0(3)
C34 O3 Na1 114.0(2)
C35 O4 Na1 109.2(2)
C36 O4 Na1 108.10(19)
C36 O4 C35 113.6(3)
C28 O5 Na1 114.2(2)
C38 O5 Na1 116.8(2)
C38 O5 C28 114.3(3)
C29 O7 Na1 102.1(2)
C30 O7 Na1 103.3(2)
C30 O7 C29 113.7(3)
C31 O8 Na1 115.4(2)
C32 O8 Na1 116.9(2)
C32 O8 C31 114.0(3)
S1 N1 Na1 88.85(11)
C16 N1 S1 119.2(2)
C16 N1 Na1 145.4(2)
C2 C1 S1 120.6(3)
C2 C1 C6 119.6(3)
C6 C1 S1 119.8(3)
C1 C2 C3 118.8(3)
C1 C2 C7 124.3(3)
C3 C2 C7 116.9(3)
C2 C3 H3 118.8
C4 C3 C2 122.4(4)
C4 C3 H3 118.8
C3 C4 C10 121.6(4)
C5 C4 C3 117.4(3)
C5 C4 C10 120.9(3)
C4 C5 H5 118.1
C4 C5 C6 123.9(3)
C6 C5 H5 118.1
C1 C6 C13 126.2(3)
C5 C6 C1 117.5(3)
C5 C6 C13 116.3(3)
C2 C7 H7 107.9
C2 C7 C8 110.3(3)
C8 C7 H7 107.9
C9 C7 C2 112.3(3)
C9 C7 H7 107.9
C9 C7 C8 110.5(3)
C7 C8 H8A 109.5
C7 C8 H8B 109.5
C7 C8 H8C 109.5
H8A C8 H8B 109.5
H8A C8 H8C 109.5
H8B C8 H8C 109.5
C7 C9 H9A 109.5
C7 C9 H9B 109.5
C7 C9 H9C 109.5
H9A C9 H9B 109.5
H9A C9 H9C 109.5
H9B C9 H9C 109.5
C4 C10 H10 107.1
C4 C10 C11 110.0(3)
C11 C10 H10 107.1
C12 C10 C4 114.7(4)
C12 C10 H10 107.1
C12 C10 C11 110.3(4)
C10 C11 H11A 109.5
C10 C11 H11B 109.5
C10 C11 H11C 109.5
H11A C11 H11B 109.5
H11A C11 H11C 109.5
H11B C11 H11C 109.5
C10 C12 H12A 109.5
C10 C12 H12B 109.5
C10 C12 H12C 109.5
H12A C12 H12B 109.5
H12A C12 H12C 109.5
H12B C12 H12C 109.5
C6 C13 H13 107.3
C6 C13 C15 112.7(3)
C14 C13 C6 111.7(3)
C14 C13 H13 107.3
C14 C13 C15 110.3(3)
C15 C13 H13 107.3
C13 C14 H14A 109.5
C13 C14 H14B 109.5
C13 C14 H14C 109.5
H14A C14 H14B 109.5
H14A C14 H14C 109.5
H14B C14 H14C 109.5
C13 C15 H15A 109.5
C13 C15 H15B 109.5
C13 C15 H15C 109.5
H15A C15 H15B 109.5
H15A C15 H15C 109.5
H15B C15 H15C 109.5
C17 C16 N1 121.6(3)
C17 C16 C21 119.2(3)
C21 C16 N1 119.0(3)
C16 C17 C22 123.0(3)
C18 C17 C16 119.2(3)
C18 C17 C22 117.7(4)
C17 C18 H18 119.1
C19 C18 C17 121.8(4)
C19 C18 H18 119.1
C18 C19 H19 120.3
C20 C19 C18 119.4(3)
C20 C19 H19 120.3
C19 C20 H20 119.2
C19 C20 C21 121.6(4)
C21 C20 H20 119.2
C16 C21 C25 123.1(3)
C20 C21 C16 118.6(4)
C20 C21 C25 118.3(3)
C17 C22 H22 107.6
C17 C22 C23 112.5(3)
C17 C22 C24 111.3(3)
C23 C22 H22 107.6
C23 C22 C24 110.0(3)
C24 C22 H22 107.6
C22 C23 H23A 109.5
C22 C23 H23B 109.5
C22 C23 H23C 109.5
H23A C23 H23B 109.5
H23A C23 H23C 109.5
H23B C23 H23C 109.5
C22 C24 H24A 109.5
C22 C24 H24B 109.5
C22 C24 H24C 109.5
H24A C24 H24B 109.5
H24A C24 H24C 109.5
H24B C24 H24C 109.5
C21 C25 H25 107.7
C21 C25 C26 111.2(3)
C21 C25 C27 112.9(3)
C26 C25 H25 107.7
C26 C25 C27 109.3(3)
C27 C25 H25 107.7
C25 C26 H26A 109.5
C25 C26 H26B 109.5
C25 C26 H26C 109.5
H26A C26 H26B 109.5
H26A C26 H26C 109.5
H26B C26 H26C 109.5
C25 C27 H27A 109.5
C25 C27 H27B 109.5
C25 C27 H27C 109.5
H27A C27 H27B 109.5
H27A C27 H27C 109.5
H27B C27 H27C 109.5
O5 C28 H28A 110.0
O5 C28 H28B 110.0
O5 C28 C29 108.3(3)
H28A C28 H28B 108.4
C29 C28 H28A 110.0
C29 C28 H28B 110.0
Na1 C29 H29A 159.5
Na1 C29 H29B 74.7
O7 C29 Na1 51.39(18)
O7 C29 C28 106.5(3)
O7 C29 H29A 110.4
O7 C29 H29B 110.4
C28 C29 Na1 86.2(2)
C28 C29 H29A 110.4
C28 C29 H29B 110.4
H29A C29 H29B 108.6
O7 C30 H30A 110.3
O7 C30 H30B 110.3
O7 C30 C31 107.1(3)
H30A C30 H30B 108.6
C31 C30 H30A 110.3
C31 C30 H30B 110.3
O8 C31 C30 107.5(3)
O8 C31 H31A 110.2
O8 C31 H31B 110.2
C30 C31 H31A 110.2
C30 C31 H31B 110.2
H31A C31 H31B 108.5
O8 C32 H32A 110.3
O8 C32 H32B 110.3
O8 C32 C33 107.1(3)
H32A C32 H32B 108.5
C33 C32 H32A 110.3
C33 C32 H32B 110.3
O3 C33 C32 111.2(4)
O3 C33 H33A 109.4
O3 C33 H33B 109.4
C32 C33 H33A 109.4
C32 C33 H33B 109.4
H33A C33 H33B 108.0
O3 C34 H34A 110.2
O3 C34 H34B 110.2
O3 C34 C35 107.6(3)
H34A C34 H34B 108.5
C35 C34 H34A 110.2
C35 C34 H34B 110.2
O4 C35 C34 107.4(3)
O4 C35 H35A 110.2
O4 C35 H35B 110.2
C34 C35 H35A 110.2
C34 C35 H35B 110.2
H35A C35 H35B 108.5
O4 C36 H36A 110.4
O4 C36 H36B 110.4
O4 C36 C38 106.8(3)
H36A C36 H36B 108.6
C38 C36 H36A 110.4
C38 C36 H36B 110.4
O5 C38 C36 107.9(3)
O5 C38 H38A 110.1
O5 C38 H38B 110.1
C36 C38 H38A 110.1
C36 C38 H38B 110.1
H38A C38 H38B 108.4
H C1A HA 109.5
H C1A HB 109.5
HA C1A HB 109.5
C2A C1A H 109.5
C2A C1A HA 109.5
C2A C1A HB 109.5
C3A C2A C1A 119.6(7)
C3A C2A C7A 119.7(6)
C7A C2A C1A 120.7(7)
C2A C3A HC 119.9
C2A C3A C4A 120.3(6)
C4A C3A HC 119.9
C3A C4A HD 119.3
C5A C4A C3A 121.4(7)
C5A C4A HD 119.3
C4A C5A HE 120.5
C4A C5A C6A 119.0(7)
C6A C5A HE 120.5
C5A C6A HF 120.3
C7A C6A C5A 119.4(7)
C7A C6A HF 120.3
C2A C7A HG 120.0
C6A C7A C2A 120.1(7)
C6A C7A HG 120.0
HH C1B HI 109.5
HH C1B HJ 109.5
HI C1B HJ 109.5
C2B C1B HH 109.5
C2B C1B HI 109.5
C2B C1B HJ 109.5
C1B C2B C7B 122.3(7)
C1B C2B C3B 117.6(7)
C7B C2B C3B 120.0
C2B C7B HK 120.0
C2B C7B C6B 120.0
C6B C7B HK 120.0
C7B C6B HL 120.0
C5B C6B C7B 120.0
C5B C6B HL 120.0
C6B C5B HM 120.0
C4B C5B C6B 120.0
C4B C5B HM 120.0
C5B C4B HN 120.0
C3B C4B C5B 120.0
C3B C4B HN 120.0
C2B C3B HO 120.0
C4B C3B C2B 120.0
C4B C3B HO 120.0
HP C1C HQ 109.5
HP C1C HR 109.5
HQ C1C HR 109.5
C2C C1C HP 109.5
C2C C1C HQ 109.5
C2C C1C HR 109.5
C3C C2C C1C 119.8(7)
C3C C2C C7C 120.0
C7C C2C C1C 120.2(7)
C2C C3C HS 120.0
C4C C3C C2C 120.0
C4C C3C HS 120.0
C3C C4C HT 120.0
C3C C4C C5C 120.0
C5C C4C HT 120.0
C4C C5C HU 120.0
C4C C5C C6C 120.0
C6C C5C HU 120.0
C5C C6C HV 120.0
C7C C6C C5C 120.0
C7C C6C HV 120.0
C2C C7C HW 120.0
C6C C7C C2C 120.0
C6C C7C HW 120.0
HX C1D HY 109.5
HX C1D HZ 109.5
HY C1D HZ 109.5
C2D C1D HX 109.5
C2D C1D HY 109.5
C2D C1D HZ 109.5
C7D C2D C1D 120.9(8)
C7D C2D C3D 120.0
C3D C2D C1D 119.0(8)
C2D C7D H0AA 120.0
C2D C7D C6D 120.0
C6D C7D H0AA 120.0
C7D C6D H1AA 120.0
C7D C6D C5D 120.0
C5D C6D H1AA 120.0
C6D C5D H2AA 120.0
C4D C5D C6D 120.0
C4D C5D H2AA 120.0
C5D C4D H3AA 120.0
C5D C4D C3D 120.0
C3D C4D H3AA 120.0
C2D C3D H4AA 120.0
C4D C3D C2D 120.0
C4D C3D H4AA 120.0
loop_
_geom_bond_atom_site_label_1
_geom_bond_atom_site_label_2
_geom_bond_distance
S1 Na1 3.0573(16)
S1 O1 1.466(2)
S1 O2 1.456(3)
S1 N1 1.557(3)
S1 C1 1.815(3)
Na1 O1 2.372(3)
Na1 O3 2.469(3)
Na1 O4 2.487(3)
Na1 O5 2.522(3)
Na1 O7 2.494(3)
Na1 O8 2.467(3)
Na1 N1 2.663(3)
Na1 C29 3.121(5)
O3 C33 1.419(5)
O3 C34 1.429(4)
O4 C35 1.436(4)
O4 C36 1.427(4)
O5 C28 1.426(4)
O5 C38 1.418(4)
O7 C29 1.426(4)
O7 C30 1.412(4)
O8 C31 1.422(4)
O8 C32 1.409(4)
N1 C16 1.427(4)
C1 C2 1.402(5)
C1 C6 1.429(4)
C2 C3 1.402(4)
C2 C7 1.531(5)
C3 H3 0.9300
C3 C4 1.379(5)
C4 C5 1.376(5)
C4 C10 1.522(5)
C5 H5 0.9300
C5 C6 1.388(5)
C6 C13 1.524(5)
C7 H7 0.9800
C7 C8 1.536(5)
C7 C9 1.531(5)
C8 H8A 0.9600
C8 H8B 0.9600
C8 H8C 0.9600
C9 H9A 0.9600
C9 H9B 0.9600
C9 H9C 0.9600
C10 H10 0.9800
C10 C11 1.523(6)
C10 C12 1.491(7)
C11 H11A 0.9600
C11 H11B 0.9600
C11 H11C 0.9600
C12 H12A 0.9600
C12 H12B 0.9600
C12 H12C 0.9600
C13 H13 0.9800
C13 C14 1.524(5)
C13 C15 1.525(4)
C14 H14A 0.9600
C14 H14B 0.9600
C14 H14C 0.9600
C15 H15A 0.9600
C15 H15B 0.9600
C15 H15C 0.9600
C16 C17 1.411(5)
C16 C21 1.415(5)
C17 C18 1.393(5)
C17 C22 1.514(5)
C18 H18 0.9300
C18 C19 1.373(5)
C19 H19 0.9300
C19 C20 1.369(5)
C20 H20 0.9300
C20 C21 1.409(4)
C21 C25 1.512(5)
C22 H22 0.9800
C22 C23 1.536(5)
C22 C24 1.536(5)
C23 H23A 0.9600
C23 H23B 0.9600
C23 H23C 0.9600
C24 H24A 0.9600
C24 H24B 0.9600
C24 H24C 0.9600
C25 H25 0.9800
C25 C26 1.531(5)
C25 C27 1.536(5)
C26 H26A 0.9600
C26 H26B 0.9600
C26 H26C 0.9600
C27 H27A 0.9600
C27 H27B 0.9600
C27 H27C 0.9600
C28 H28A 0.9700
C28 H28B 0.9700
C28 C29 1.490(5)
C29 H29A 0.9700
C29 H29B 0.9700
C30 H30A 0.9700
C30 H30B 0.9700
C30 C31 1.501(5)
C31 H31A 0.9700
C31 H31B 0.9700
C32 H32A 0.9700
C32 H32B 0.9700
C32 C33 1.510(5)
C33 H33A 0.9700
C33 H33B 0.9700
C34 H34A 0.9700
C34 H34B 0.9700
C34 C35 1.483(5)
C35 H35A 0.9700
C35 H35B 0.9700
C36 H36A 0.9700
C36 H36B 0.9700
C36 C38 1.483(5)
C38 H38A 0.9700
C38 H38B 0.9700
C1A H 0.9600
C1A HA 0.9600
C1A HB 0.9600
C1A C2A 1.439(7)
C2A C3A 1.345(7)
C2A C7A 1.381(8)
C3A HC 0.9300
C3A C4A 1.407(8)
C4A HD 0.9300
C4A C5A 1.307(8)
C5A HE 0.9300
C5A C6A 1.431(8)
C6A HF 0.9300
C6A C7A 1.371(8)
C7A HG 0.9300
C1B HH 0.9600
C1B HI 0.9600
C1B HJ 0.9600
C1B C2B 1.363(16)
C2B C7B 1.3900
C2B C3B 1.3900
C7B HK 0.9300
C7B C6B 1.3900
C6B HL 0.9300
C6B C5B 1.3900
C5B HM 0.9300
C5B C4B 1.3900
C4B HN 0.9300
C4B C3B 1.3900
C3B HO 0.9300
C1C HP 0.9600
C1C HQ 0.9600
C1C HR 0.9600
C1C C2C 1.415(18)
C2C C3C 1.3900
C2C C7C 1.3900
C3C HS 0.9300
C3C C4C 1.3900
C4C HT 0.9300
C4C C5C 1.3900
C5C HU 0.9300
C5C C6C 1.3900
C6C HV 0.9300
C6C C7C 1.3900
C7C HW 0.9300
C1D HX 0.9600
C1D HY 0.9600
C1D HZ 0.9600
C1D C2D 1.458(13)
C2D C7D 1.3900
C2D C3D 1.3900
C7D H0AA 0.9300
C7D C6D 1.3900
C6D H1AA 0.9300
C6D C5D 1.3900
C5D H2AA 0.9300
C5D C4D 1.3900
C4D H3AA 0.9300
C4D C3D 1.3900
C3D H4AA 0.9300
loop_
_geom_torsion_atom_site_label_1
_geom_torsion_atom_site_label_2
_geom_torsion_atom_site_label_3
_geom_torsion_atom_site_label_4
_geom_torsion
S1 N1 C16 C17 81.8(4)
S1 N1 C16 C21 -102.5(3)
S1 C1 C2 C3 173.0(2)
S1 C1 C2 C7 -7.3(5)
S1 C1 C6 C5 -173.0(2)
S1 C1 C6 C13 8.0(5)
Na1 S1 N1 C16 -158.9(3)
Na1 S1 C1 C2 15.3(4)
Na1 S1 C1 C6 -164.75(19)
Na1 O3 C33 C32 -41.6(4)
Na1 O3 C34 C35 -41.3(4)
Na1 O4 C35 C34 -55.2(3)
Na1 O4 C36 C38 64.3(3)
Na1 O5 C28 C29 -19.9(3)
Na1 O5 C38 C36 26.0(4)
Na1 O7 C29 C28 -71.0(3)
Na1 O7 C30 C31 67.1(3)
Na1 O8 C31 C30 25.0(4)
Na1 O8 C32 C33 -41.8(4)
Na1 N1 C16 C17 -58.7(6)
Na1 N1 C16 C21 117.0(4)
O1 S1 N1 Na1 -18.97(14)
O1 S1 N1 C16 -177.8(2)
O1 S1 C1 C2 -31.8(3)
O1 S1 C1 C6 148.1(2)
O2 S1 O1 Na1 -106.67(14)
O2 S1 N1 Na1 106.77(13)
O2 S1 N1 C16 -52.1(3)
O2 S1 C1 C2 -151.0(3)
O2 S1 C1 C6 29.0(3)
O3 C34 C35 O4 64.8(4)
O4 C36 C38 O5 -59.4(4)
O5 C28 C29 Na1 14.6(3)
O5 C28 C29 O7 62.3(4)
O7 C30 C31 O8 -63.4(4)
O8 C32 C33 O3 54.3(4)
N1 S1 O1 Na1 21.99(17)
N1 S1 C1 C2 82.7(3)
N1 S1 C1 C6 -97.4(3)
N1 C16 C17 C18 178.2(3)
N1 C16 C17 C22 -0.3(5)
N1 C16 C21 C20 -177.6(3)
N1 C16 C21 C25 0.7(5)
C1 S1 O1 Na1 138.82(14)
C1 S1 N1 Na1 -133.95(14)
C1 S1 N1 C16 67.2(3)
C1 C2 C3 C4 2.2(5)
C1 C2 C7 C8 102.1(4)
C1 C2 C7 C9 -134.3(4)
C1 C6 C13 C14 -108.4(4)
C1 C6 C13 C15 126.8(4)
C2 C1 C6 C5 6.9(5)
C2 C1 C6 C13 -172.1(3)
C2 C3 C4 C5 2.5(5)
C2 C3 C4 C10 -178.0(3)
C3 C2 C7 C8 -78.2(4)
C3 C2 C7 C9 45.4(4)
C3 C4 C5 C6 -2.4(5)
C3 C4 C10 C11 90.0(5)
C3 C4 C10 C12 -35.0(5)
C4 C5 C6 C1 -2.2(5)
C4 C5 C6 C13 176.9(3)
C5 C4 C10 C11 -90.5(5)
C5 C4 C10 C12 144.5(4)
C5 C6 C13 C14 72.7(4)
C5 C6 C13 C15 -52.1(4)
C6 C1 C2 C3 -6.9(5)
C6 C1 C2 C7 172.8(3)
C7 C2 C3 C4 -177.6(3)
C10 C4 C5 C6 178.0(3)
C16 C17 C18 C19 -1.3(6)
C16 C17 C22 C23 -116.4(4)
C16 C17 C22 C24 119.6(4)
C16 C21 C25 C26 -111.2(4)
C16 C21 C25 C27 125.5(3)
C17 C16 C21 C20 -1.8(5)
C17 C16 C21 C25 176.4(3)
C17 C18 C19 C20 -0.7(6)
C18 C17 C22 C23 65.1(4)
C18 C17 C22 C24 -58.9(5)
C18 C19 C20 C21 1.5(6)
C19 C20 C21 C16 -0.2(5)
C19 C20 C21 C25 -178.5(3)
C20 C21 C25 C26 67.1(4)
C20 C21 C25 C27 -56.3(4)
C21 C16 C17 C18 2.5(5)
C21 C16 C17 C22 -175.9(3)
C22 C17 C18 C19 177.3(4)
C28 O5 C38 C36 163.1(3)
C29 O7 C30 C31 176.9(3)
C30 O7 C29 Na1 -110.5(3)
C30 O7 C29 C28 178.5(3)
C31 O8 C32 C33 179.4(3)
C32 O8 C31 C30 164.4(3)
C33 O3 C34 C35 -175.1(3)
C34 O3 C33 C32 92.1(4)
C35 O4 C36 C38 -174.2(3)
C36 O4 C35 C34 -176.0(3)
C38 O5 C28 C29 -158.2(3)
C1A C2A C3A C4A 179.2(5)
C1A C2A C7A C6A 179.0(6)
C2A C3A C4A C5A 4.0(10)
C3A C2A C7A C6A -0.6(9)
C3A C4A C5A C6A -4.6(10)
C4A C5A C6A C7A 2.7(10)
C5A C6A C7A C2A -0.1(9)
C7A C2A C3A C4A -1.2(9)
C1B C2B C7B C6B 178.1(11)
C1B C2B C3B C4B -178.2(10)
C2B C7B C6B C5B 0.0
C7B C2B C3B C4B 0.0
C7B C6B C5B C4B 0.0
C6B C5B C4B C3B 0.0
C5B C4B C3B C2B 0.0
C3B C2B C7B C6B 0.0
C1C C2C C3C C4C 179.4(11)
C1C C2C C7C C6C -179.4(11)
C2C C3C C4C C5C 0.0
C3C C2C C7C C6C 0.0
C3C C4C C5C C6C 0.0
C4C C5C C6C C7C 0.0
C5C C6C C7C C2C 0.0
C7C C2C C3C C4C 0.0
C1D C2D C7D C6D -177.2(11)
C1D C2D C3D C4D 177.3(11)
C2D C7D C6D C5D 0.0
C7D C2D C3D C4D 0.0
C7D C6D C5D C4D 0.0
C6D C5D C4D C3D 0.0
C5D C4D C3D C2D 0.0
C3D C2D C7D C6D 0.0
