#------------------------------------------------------------------------------
#$Date: 2016-11-08 22:10:22 +0200 (Tue, 08 Nov 2016) $
#$Revision: 188249 $
#$URL: file:///home/coder/svn-repositories/cod/cif/1/54/41/1544140.cif $
#------------------------------------------------------------------------------
#
# This file is available in the Crystallography Open Database (COD),
# http://www.crystallography.net/
#
# All data on this site have been placed in the public domain by the
# contributors.
#
data_1544140
loop_
_publ_author_name
'Milshtein, Jarrod D.'
'Kaur, Aman Preet'
'Casselman, Matthew D.'
'Kowalski, Jeffrey A.'
'Modekrutti, Subrahmanyam'
'Zhang, Peter L.'
'Harsha Attanayake, N.'
'Elliott, Corrine F.'
'Parkin, Sean R.'
'Risko, Chad'
'Brushett, Fikile R.'
'Odom, Susan A.'
_publ_section_title
;
 High current density, long duration cycling of soluble organic active
 species for non-aqueous redox flow batteries
;
_journal_issue                   11
_journal_name_full               'Energy Environ. Sci.'
_journal_page_first              3531
_journal_paper_doi               10.1039/C6EE02027E
_journal_volume                  9
_journal_year                    2016
_chemical_formula_moiety         'C15 H15 N O S, B F4'
_chemical_formula_sum            'C15 H15 B F4 N O S'
_chemical_formula_weight         344.15
_space_group_crystal_system      monoclinic
_space_group_IT_number           14
_space_group_name_Hall           '-P 2ybc'
_space_group_name_H-M_alt        'P 1 21/c 1'
_symmetry_space_group_name_Hall  '-P 2ybc'
_symmetry_space_group_name_H-M   'P 1 21/c 1'
_atom_sites_solution_hydrogens   mixed
_atom_sites_solution_primary     direct
_atom_sites_solution_secondary   difmap
_audit_creation_method           'SHELXL-2014/7 and CIFFIX'
_audit_update_record
;
2016-07-11 deposited with the CCDC.
2016-09-15 downloaded from the CCDC.
;
_cell_angle_alpha                90
_cell_angle_beta                 90.004(2)
_cell_angle_gamma                90
_cell_formula_units_Z            4
_cell_length_a                   6.8493(2)
_cell_length_b                   10.8341(3)
_cell_length_c                   19.2816(4)
_cell_measurement_reflns_used    3982
_cell_measurement_temperature    90.0(2)
_cell_measurement_theta_max      68.00
_cell_measurement_theta_min      4.59
_cell_volume                     1430.81(6)
_computing_cell_refinement       '<i>APEX2</i> (Bruker-AXS, 2006)'
_computing_data_collection       '<i>APEX2</i> (Bruker-AXS, 2006)'
_computing_data_reduction        '<i>APEX2</i> (Bruker-AXS, 2006)'
_computing_molecular_graphics    '<i>XP in SHELXTL</i> (Sheldrick, 2008)'
_computing_publication_material
'<i>SHELX</i> (Sheldrick, 2008) and <i>CIFFIX</i> (Parkin, 2013)'
_computing_structure_refinement  '<i>SHELXL-2014/7</i> (Sheldrick, 2015b)'
_computing_structure_solution    '<i>SHELXT</i> (Sheldrick, 2015a)'
_diffrn_ambient_temperature      90.0(2)
_diffrn_detector_area_resol_mean 5.6
_diffrn_measured_fraction_theta_full 0.990
_diffrn_measured_fraction_theta_max 0.987
_diffrn_measurement_device_type  'Bruker X8 Proteum diffractometer'
_diffrn_measurement_method       '\f and \w scans'
_diffrn_radiation_type           CuK\a
_diffrn_radiation_wavelength     1.54178
_diffrn_reflns_av_R_equivalents  0.0817
_diffrn_reflns_av_unetI/netI     0.0558
_diffrn_reflns_Laue_measured_fraction_full 0.990
_diffrn_reflns_Laue_measured_fraction_max 0.987
_diffrn_reflns_limit_h_max       3
_diffrn_reflns_limit_h_min       -8
_diffrn_reflns_limit_k_max       13
_diffrn_reflns_limit_k_min       -12
_diffrn_reflns_limit_l_max       23
_diffrn_reflns_limit_l_min       -23
_diffrn_reflns_number            18466
_diffrn_reflns_point_group_measured_fraction_full 0.990
_diffrn_reflns_point_group_measured_fraction_max 0.987
_diffrn_reflns_theta_full        67.679
_diffrn_reflns_theta_max         68.215
_diffrn_reflns_theta_min         2.291
_diffrn_source                   'fine-focus rotating anode'
_exptl_absorpt_coefficient_mu    2.471
_exptl_absorpt_correction_T_max  0.889
_exptl_absorpt_correction_T_min  0.586
_exptl_absorpt_correction_type   multi-scan
_exptl_absorpt_process_details   '<i>SADABS</i> (Krause et al., 2015)'
_exptl_crystal_colour            green
_exptl_crystal_density_diffrn    1.598
_exptl_crystal_description       rod
_exptl_crystal_F_000             708
_exptl_crystal_size_max          0.240
_exptl_crystal_size_mid          0.060
_exptl_crystal_size_min          0.050
_refine_diff_density_max         0.375
_refine_diff_density_min         -0.312
_refine_diff_density_rms         0.068
_refine_ls_extinction_method     none
_refine_ls_goodness_of_fit_ref   1.026
_refine_ls_hydrogen_treatment    mixed
_refine_ls_matrix_type           full
_refine_ls_number_parameters     222
_refine_ls_number_reflns         2571
_refine_ls_number_restraints     0
_refine_ls_restrained_S_all      1.026
_refine_ls_R_factor_all          0.0602
_refine_ls_R_factor_gt           0.0487
_refine_ls_shift/su_max          0.000
_refine_ls_shift/su_mean         0.000
_refine_ls_structure_factor_coef Fsqd
_refine_ls_weighting_details
'w=1/[\s^2^(Fo^2^)+(0.0843P)^2^] where P=(Fo^2^+2Fc^2^)/3'
_refine_ls_weighting_scheme      calc
_refine_ls_wR_factor_gt          0.1226
_refine_ls_wR_factor_ref         0.1313
_reflns_Friedel_coverage         0.000
_reflns_number_gt                2177
_reflns_number_total             2571
_reflns_threshold_expression     'I > 2\s(I)'
_cod_data_source_file            c6ee02027e2.cif
_cod_data_source_block           x16014
_cod_depositor_comments
'Adding full bibliography for 1544139--1544142.cif.'
_cod_database_code               1544140
_shelx_shelxl_version_number     2014/7
_shelx_space_group_comment
; 
The symmetry employed for this shelxl refinement is uniquely defined 
by the following loop, which should always be used as a source of 
symmetry information in preference to the above space-group names. 
They are only intended as comments. 
;
_shelx_estimated_absorpt_t_min   0.589
_shelx_estimated_absorpt_t_max   0.886
_exptl_absorpt_special_details
; 
In addition to absorption, multi-scan techniques also correct other slowly 
varying changes in scale factor over reciprocal space, such as those caused 
by x-ray beam inhomogeneity, goniometer imperfection, crystal decomposition, 
crystal longer than the x-ray beam cross section, absorption by the crystal 
mount etc.  These account, by and large, for much of the difference between 
estimated values of Tmin and Tmax and the _exptl_absorpt_correction_ values. 
;
_shelx_res_file
; 
 
    x16014.res created by SHELXL-2014/7 
 
 
TITL x16014 : space group P21/c 
CELL  1.54178   6.8493  10.8341  19.2816   90.000   90.004   90.000 
ZERR    4.000   0.0002   0.0003   0.0004    0.000    0.002    0.000 
LATT  1 
SYMM -X, 1/2+Y, 1/2-Z 
SFAC C H B N O F S 
UNIT 60 60 4 4 4 16 4 
TWIN 1 0 0 0 -1 0 0 0 -1 
TEMP -183 
SIZE 0.24 0.06 0.05 
REM COLR green 
REM FORM rod 
L.S. 10 
BOND $H 
REM Hydrogens on C2, C11, and C13 were refined freely to see what the effect 
REM on calculated close contacts would be. The affected hydrogen atoms relax 
REM slightly to alleviate the close contacts. 
LIST 4 
CONF 
HTAB 
ACTA 
FMAP 2 
PLAN 5 
REM EXTI    0.000000  not needed. 
WGHT    0.084300 
BASF   0.16928 
FVAR       0.33080 
N1    4    0.771765    0.632689    0.443746    11.00000    0.01980    0.02059 = 
         0.02081   -0.00121    0.00171   -0.00026 
S1    7    0.721595    0.493431    0.584618    11.00000    0.02805    0.02251 = 
         0.01992    0.00041    0.00112    0.00186 
O1    5    0.492425    0.778248    0.363140    11.00000    0.02587    0.03327 = 
         0.02370   -0.00148    0.00091    0.00120 
C1    1    0.778799    0.504438    0.442155    11.00000    0.01929    0.01722 = 
         0.02728   -0.00185    0.00127   -0.00238 
C2    1    0.816031    0.439940    0.379999    11.00000    0.02367    0.02512 = 
         0.02379   -0.00025    0.00327   -0.00084 
H2A   2    0.827760    0.479905    0.337260    11.00000   -1.20000 
C3    1    0.832778    0.313743    0.378682    11.00000    0.02460    0.02658 = 
         0.02716   -0.00676    0.00532   -0.00116 
AFIX  43 
H3A   2    0.860039    0.273202    0.336082    11.00000   -1.20000 
AFIX   0 
C4    1    0.810251    0.243921    0.439238    11.00000    0.02120    0.02081 = 
         0.03420   -0.00377    0.00215   -0.00067 
AFIX  43 
H4A   2    0.822791    0.156624    0.437939    11.00000   -1.20000 
AFIX   0 
C5    1    0.769837    0.303088    0.500498    11.00000    0.02428    0.02184 = 
         0.02832    0.00236   -0.00038   -0.00241 
AFIX  43 
H5A   2    0.750805    0.256100    0.541543    11.00000   -1.20000 
AFIX   0 
C6    1    0.756306    0.432282    0.503187    11.00000    0.01920    0.02039 = 
         0.02547   -0.00211    0.00077   -0.00024 
C7    1    0.705734    0.649609    0.568628    11.00000    0.02157    0.02342 = 
         0.02298   -0.00139   -0.00050    0.00101 
C8    1    0.668518    0.722304    0.627110    11.00000    0.02928    0.02663 = 
         0.02031   -0.00037    0.00056    0.00149 
AFIX  43 
H8A   2    0.656639    0.684233    0.671292    11.00000   -1.20000 
AFIX   0 
C9    1    0.649049    0.847418    0.621443    11.00000    0.03268    0.02830 = 
         0.02630   -0.00668   -0.00044    0.00395 
AFIX  43 
H9A   2    0.624196    0.896392    0.661347    11.00000   -1.20000 
AFIX   0 
C10   1    0.666238    0.902512    0.555971    11.00000    0.02766    0.02024 = 
         0.03179   -0.00392   -0.00235    0.00250 
AFIX  43 
H10A  2    0.650550    0.989291    0.551617    11.00000   -1.20000 
AFIX   0 
C11   1    0.705518    0.832917    0.497796    11.00000    0.02259    0.02411 = 
         0.02665    0.00140    0.00025    0.00005 
 
H11A  2    0.711835    0.879283    0.454144    11.00000   -1.20000 
C12   1    0.727441    0.703334    0.502630    11.00000    0.01940    0.02154 = 
         0.02189   -0.00316   -0.00165    0.00129 
C13   1    0.814576    0.697928    0.377607    11.00000    0.02862    0.02020 = 
         0.02130    0.00009    0.00665   -0.00275 
H13A  2    0.913572    0.653802    0.355923    11.00000   -1.20000 
H13B  2    0.856501    0.780409    0.388630    11.00000   -1.20000 
C14   1    0.639896    0.707424    0.330130    11.00000    0.03564    0.02502 = 
         0.01974    0.00064    0.00482   -0.00323 
AFIX  23 
H14A  2    0.678443    0.747291    0.286007    11.00000   -1.20000 
H14B  2    0.589556    0.623889    0.319482    11.00000   -1.20000 
AFIX   0 
C15   1    0.340882    0.811011    0.316489    11.00000    0.03213    0.02534 = 
         0.02905    0.00229   -0.00574    0.00036 
AFIX 137 
H15A  2    0.241505    0.859047    0.341156    11.00000   -1.50000 
H15B  2    0.281453    0.735992    0.297494    11.00000   -1.50000 
H15C  2    0.394995    0.860628    0.278590    11.00000   -1.50000 
AFIX   0 
B1    3   -0.124639    0.999903    0.284660    11.00000    0.03248    0.02201 = 
         0.02714    0.00045    0.00539   -0.00049 
F1    6   -0.055344    0.890049    0.256972    11.00000    0.03816    0.02308 = 
         0.03548   -0.00452    0.00810    0.00129 
F2    6   -0.006334    1.096511    0.262249    11.00000    0.04398    0.02392 = 
         0.03555    0.00097    0.00937   -0.00747 
F3    6   -0.121237    0.992727    0.356325    11.00000    0.07746    0.02696 = 
         0.02498   -0.00175    0.01070   -0.00904 
F4    6   -0.314864    1.017139    0.261021    11.00000    0.03048    0.04598 = 
         0.06541    0.01708    0.00432    0.00686 
 
HKLF 4 
 
REM  x16014 : space group P21/c 
REM R1 =  0.0487 for    2177 Fo > 4sig(Fo)  and  0.0602 for all    2571 data 
REM    222 parameters refined using      0 restraints 
 
END 
 
WGHT      0.0843      0.0000 
 
REM Instructions for potential hydrogen bonds 
EQIV $1 -x+1, y-1/2, -z+1/2 
HTAB C2 F1_$1 
HTAB C2 F2_$1 
EQIV $2 -x+1, -y+1, -z+1 
HTAB C5 O1_$2 
HTAB C11 O1 
EQIV $3 x+1, y, z 
HTAB C11 F3_$3 
HTAB C13 F2_$1 
HTAB C13 F3_$3 
HTAB C14 F1_$3 
EQIV $4 -x, y-1/2, -z+1/2 
HTAB C15 F4_$4 
HTAB C15 F4_$3 
 
REM Highest difference peak  0.375,  deepest hole -0.312,  1-sigma level  0.068 
Q1    1   0.7897  0.4877  0.5377  11.00000  0.05    0.38 
Q2    1   0.6462  0.5745  0.5766  11.00000  0.05    0.34 
Q3    1   0.7147  0.3627  0.4995  11.00000  0.05    0.31 
Q4    1   0.6331  0.4115  0.6101  11.00000  0.05    0.29 
Q5    1  -0.2480  0.9966  0.3120  11.00000  0.05    0.28 
;
_shelx_res_checksum              6384
_shelx_hkl_file
;
  -1   0   0 22.3681 4.05321   7
  -1   0   0 23.2814 3.48903   6
  -1   0   0 22.3893 3.81690   5
  -1   0   0 23.8708 3.80044   4
  -2   0   0 4328.13 435.871   5
  -2   0   0 4439.69 435.217   7
  -2   0   0 4246.77 414.716   6
  -2   0   0 4412.80 430.376   4
  -3   0   0 307.498 33.0615   7
  -3   0   0 306.854 32.1358   4
  -3   0   0 318.275 30.9095   6
  -3   0   0 306.810 32.8561   5
  -4   0   0 260.729 26.0412   6
  -4   0   0 266.329 27.5833   4
  -4   0   0 238.622 28.0155   5
  -4   0   0 241.179 28.1264   7
  -5   0   0 73.7483 9.13830  12
  -5   0   0 61.9412 14.1861   7
  -5   0   0 75.2573 10.4892  13
  -5   0   0 75.8746 8.95969  14
  -5   0   0 83.5430 8.35287  15
  -5   0   0 75.8182 9.22209  16
  -5   0   0 79.9363 9.51760  17
  -5   0   0 80.4487 9.32347  18
  -5   0   0 76.5219 8.84383  11
  -5   0   0 69.0279 11.5381   4
  -6   0   0 56.4622 7.22119  14
  -6   0   0 59.7791 7.16617  11
  -6   0   0 51.5834 6.49452  15
  -6   0   0 54.6184 7.05090  16
  -6   0   0 47.7809 7.28208  17
  -6   0   0 55.9782 7.33302  18
  -6   0   0 59.0430 8.10306  13
  -6   0   0 55.0406 7.42902  12
  -7   0   0 -1.4943 2.69067  12
  -7   0   0 0.95164 2.62126  17
  -7   0   0 -2.6283 3.92860  18
  -7   0   0 -1.0674 2.78834  16
   0  -1   0 0.03130 0.90878   2
   0  -1   0 -0.2427 0.82851   3
   0  -1   0 1.19886 0.77637   1
   0  -1   0 0.45010 0.71698   1
   0   1   0 -0.2085 0.72713   1
   0   1   0 -0.0771 0.79799   3
   0   1   0 0.52275 0.72551   1
   0   1   0 -0.3879 0.85375   2
  -1  -1   0 392.590 38.9062   3
  -1  -1   0 398.867 40.0560   4
  -1  -1   0 381.543 40.4067   5
  -1  -1   0 403.486 36.7049   2
   1  -1   0 430.960 31.1438   1
   1  -1   0 434.299 31.1585   1
  -1  -1   0 408.455 31.1808   1
  -1  -1   0 367.555 38.8604   3
  -1  -1   0 367.616 36.6780   2
  -1  -1   0 406.026 31.1709   1
  -1   1   0 382.585 40.3609   7
  -1   1   0 404.004 31.1067   1
   1   1   0 435.865 31.2017   1
  -1   1   0 421.430 40.5623   5
  -1   1   0 380.913 38.5460   6
  -1   1   0 391.446 38.8346   3
  -1   1   0 363.462 39.6033   4
   1   1   0 403.970 31.1784   1
  -1   1   0 403.888 36.6261   2
  -2  -1   0 468.951 46.2271   4
  -2  -1   0 446.288 44.3693   3
  -2  -1   0 461.652 46.6736   7
  -2  -1   0 483.464 41.8336   2
   2  -1   0 471.510 35.3891   1
  -2  -1   0 456.044 35.5049   1
  -2  -1   0 453.834 44.3191   3
  -2  -1   0 428.711 43.8483   6
  -2  -1   0 447.449 35.5586   1
  -2  -1   0 463.448 46.6969   5
  -2  -1   0 427.009 41.8480   2
   2  -1   0 460.286 35.3847   1
  -2   1   0 433.967 35.3674   1
  -2   1   0 454.588 41.6625   2
  -2   1   0 448.528 35.3807   1
  -2   1   0 447.281 45.7082   4
  -2   1   0 458.447 46.7427   5
   2   1   0 461.310 35.5856   1
   2   1   0 483.779 35.5437   1
  -2   1   0 447.446 44.1898   3
  -2   1   0 458.208 44.1907   3
  -2   1   0 447.843 46.6506   7
  -2   1   0 460.873 41.6531   2
  -2   1   0 467.860 44.3864   6
  -3  -1   0 6.25062 4.00365   7
  -3  -1   0 2.17211 3.63588   5
  -3  -1   0 4.39123 2.73070   6
  -3  -1   0 2.77644 3.82493   4
  -3   1   0 6.20618 4.23529   7
  -3   1   0 6.43478 3.85320   5
  -3   1   0 1.85983 2.83228   6
  -3   1   0 3.31355 2.92861   4
  -4  -1   0 280.853 32.5532   5
  -4  -1   0 302.165 32.7921   7
  -4  -1   0 330.031 32.1419   4
  -4   1   0 287.875 33.1381   7
  -4   1   0 254.009 31.9934   5
  -4   1   0 330.946 30.6094   6
  -4   1   0 295.713 31.4434   4
  -5  -1   0 13.6450 8.25635   4
  -5  -1   0 2.16516 2.49680  16
  -5  -1   0 4.50474 2.78674  12
  -5  -1   0 -4.0066 2.36009  11
  -5  -1   0 4.50855 3.39061  17
  -5  -1   0 -6.5715 4.29711  13
  -5  -1   0 -3.8069 2.67853  18
  -5  -1   0 0.30939 2.79657  14
  -5   1   0 -0.4938 2.49284  16
  -5   1   0 1.28636 2.84153  18
  -5   1   0 1.10340 8.22094   7
  -5   1   0 2.20017 3.78729  13
  -5   1   0 0.69553 2.30429  15
  -5   1   0 -0.8621 2.77831  12
  -5   1   0 3.16884 2.97254  14
  -5   1   0 -1.5203 3.17357  17
  -5   1   0 2.43506 2.27201  11
  -6  -1   0 2.26385 3.74573  17
  -6  -1   0 1.44910 3.01692  16
  -6  -1   0 5.44023 3.92890  18
  -6  -1   0 1.55267 3.05494  12
  -6  -1   0 -2.9095 4.21265  13
  -6   1   0 4.78583 2.61633  11
  -6   1   0 2.51734 2.91015  12
  -6   1   0 7.56081 2.67542  15
  -6   1   0 4.05517 4.52552  13
  -6   1   0 6.69826 4.00565  17
  -6   1   0 -2.4152 3.34284  18
  -6   1   0 0.79429 3.16467  14
  -6   1   0 13.1449 3.25921  16
  -7  -1   0 0.49462 2.04529  12
  -7  -1   0 3.31936 4.04801  18
  -7   1   0 -0.1214 2.97933  16
  -7   1   0 -1.0969 3.64183  18
  -7   1   0 5.82270 3.94028  17
   0  -2   0 14.9399 2.47223   1
   0  -2   0 17.8190 2.62364   4
   0  -2   0 19.8454 2.56044   1
   0  -2   0 15.9106 3.04486   2
   0  -2   0 16.6430 3.00774   3
   0   2   0 19.7495 2.51950   1
   0   2   0 19.2362 2.99816   2
   0   2   0 17.7231 2.64616   6
  -1  -2   0 618.220 63.2363   4
  -1  -2   0 640.180 49.5672   1
  -1  -2   0 652.275 58.3719   2
   1  -2   0 649.411 49.5389   1
  -1  -2   0 656.316 61.8733   3
   1  -2   0 655.159 49.5368   1
  -1  -2   0 547.230 61.7241   3
  -1   2   0 633.898 58.2264   2
   1   2   0 596.273 61.8062   3
  -1   2   0 626.381 60.9540   6
  -1   2   0 582.672 61.7063   3
   1   2   0 688.477 49.6153   1
  -1   2   0 637.830 49.4802   1
   1   2   0 671.413 49.6048   1
  -2  -2   0 39.1735 4.40396   1
   2  -2   0 47.0994 4.46194   1
  -2  -2   0 47.5933 5.42627   2
  -2  -2   0 51.6377 7.42385   4
   2  -2   0 46.9047 4.42323   1
  -2  -2   0 45.3743 4.70879   1
  -2  -2   0 41.7180 5.37530   3
  -2  -2   0 53.7212 7.42319   5
  -2  -2   0 46.6626 5.56041   3
  -2  -2   0 41.7489 5.32808   2
   2   2   0 48.4561 4.66037   1
  -2   2   0 38.7445 5.04649   2
  -2   2   0 52.4318 6.61071   6
  -2   2   0 36.7302 5.25873   4
  -2   2   0 44.7058 4.29181   1
   2   2   0 43.2855 4.70630   1
  -2   2   0 44.2659 5.21028   3
  -2   2   0 60.0496 7.31109   7
  -2   2   0 46.0357 5.05732   2
  -2   2   0 44.9707 4.28447   1
  -2   2   0 45.5328 5.21262   3
  -3  -2   0 58.7928 6.37997   3
  -3  -2   0 63.8546 6.63540   3
  -3  -2   0 65.9422 6.23376   2
  -3  -2   0 75.9966 9.73423   5
  -3  -2   0 68.9367 9.21818   4
  -3  -2   0 53.1006 5.20610   1
  -3  -2   0 52.7708 6.33641   2
  -3  -2   0 56.6103 5.45739   1
  -3   2   0 47.0441 7.29410   4
  -3   2   0 74.1297 8.40018   6
   3   2   0 50.9546 5.27930   1
  -3   2   0 76.3954 9.79569   7
  -4  -2   0 8.95245 4.80672   4
  -4  -2   0 10.5418 6.88964   5
  -4   2   0 6.45251 5.67455   7
  -4   2   0 13.7300 4.61300   6
  -5  -2   0 38.1427 6.41907  13
  -5  -2   0 43.7709 5.95633  12
  -5  -2   0 47.6043 10.4044   4
  -5  -2   0 34.0900 5.93881  17
  -5  -2   0 48.2002 6.20636  18
  -5  -2   0 39.8895 5.69238  11
  -5   2   0 48.9154 5.91252  14
  -5   2   0 35.4512 5.99957  17
  -5   2   0 48.1561 5.76586  15
  -5   2   0 40.3614 6.61714  13
  -5   2   0 37.0995 9.74790   6
  -5   2   0 39.2061 12.9891   7
  -5   2   0 43.0792 5.67821  18
  -5   2   0 40.4660 5.73108  16
  -6  -2   0 77.1750 8.68017  12
  -6  -2   0 65.6972 9.20180  13
  -6  -2   0 68.7697 8.67077  18
  -6  -2   0 61.5248 8.08387  17
  -6   2   0 65.8034 8.24955  14
  -6   2   0 59.8886 8.32069  18
  -6   2   0 60.6786 8.18730  17
  -6   2   0 63.1408 8.11597  16
  -7  -2   0 54.2279 7.97941  18
  -7  -2   0 65.3221 8.08525  12
  -7   2   0 62.2142 7.18464  16
  -7   2   0 60.9393 7.87676  17
  -7   2   0 72.0357 7.78971  18
   0  -3   0 0.57563 1.96972   1
   0  -3   0 -0.8165 1.64322   4
   0  -3   0 -0.8514 2.29091   3
   0  -3   0 -2.5384 1.81728   1
   0  -3   0 2.39010 2.56040   2
   0   3   0 -2.1700 2.16998   2
   0   3   0 -4.4119 1.88534   3
   0   3   0 0.77614 1.91209   1
   0   3   0 0.19400 1.94659   6
  -1  -3   0 -2.2725 2.23982   4
   1  -3   0 4.52751 2.44491   1
  -1  -3   0 -0.0279 2.88044   2
   1  -3   0 -1.1863 2.26985   1
  -1  -3   0 -0.5897 2.19125   1
  -1  -3   0 2.12411 2.38482   3
   1  -3   0 -2.7649 2.67417   2
  -1  -3   0 -0.2060 1.74439   1
   1  -3   0 -0.1172 2.31998   3
  -1   3   0 -0.2336 2.57103   2
  -1   3   0 0.45144 2.30093   3
   1   3   0 -0.4809 2.22427   1
  -1   3   0 -2.4160 2.83263   6
   1   3   0 -1.7638 1.74656   1
  -1   3   0 2.31410 1.94291   1
  -1   3   0 -1.3997 2.01903   1
   1   3   0 -1.1193 2.12573   3
  -1   3   0 -1.9042 1.93460   3
   1   3   0 2.37047 2.90070   2
  -2  -3   0 54.0784 7.61434   4
  -2  -3   0 53.7023 6.64433   3
  -2  -3   0 56.1184 8.16758   5
  -2  -3   0 54.9903 6.35069   2
   2  -3   0 47.6236 5.08848   1
  -2  -3   0 43.0742 6.08568   3
  -2  -3   0 33.2514 5.88945   2
  -2  -3   0 39.7889 5.05197   1
   2  -3   0 44.5626 4.99529   1
  -2  -3   0 48.6705 5.14344   1
  -2   3   0 48.0333 4.88147   1
  -2   3   0 59.9139 7.37810   6
  -2   3   0 43.5871 5.74566   2
   2   3   0 43.4705 5.05291   1
  -2   3   0 55.9426 5.82930   2
  -2   3   0 58.5977 7.83763   7
  -2   3   0 45.7371 5.81880   3
  -2   3   0 40.8578 5.79889   3
  -2   3   0 38.5168 4.62827   1
   2   3   0 50.0552 5.24319   1
  -3  -3   0 56.1143 6.78200   3
  -3  -3   0 41.7539 6.19355   2
  -3  -3   0 48.5871 6.23061   2
  -3  -3   0 62.3199 9.34948   4
  -3  -3   0 44.6871 6.16840   3
  -3  -3   0 53.6244 8.80049   5
  -3   3   0 53.6347 6.03735   3
  -3   3   0 42.9302 5.85919   3
  -3   3   0 52.7817 5.81205   2
  -3   3   0 70.9084 8.75157   6
  -3   3   0 61.3487 9.15701   7
  -3   3   0 42.1421 4.96718   1
  -3   3   0 50.3684 6.01945   2
  -4  -3   0 -0.5233 2.21334  11
  -4  -3   0 0.88561 3.09864  17
  -4  -3   0 -3.5686 5.84481   5
  -4  -3   0 1.28479 2.44498  12
  -4  -3   0 -1.9877 3.09526  13
  -4  -3   0 1.18742 1.22908  10
  -4  -3   0 -3.3332 4.46542   4
  -4  -3   0 2.80642 2.89998  18
  -4   3   0 5.28829 6.36573   7
  -4   3   0 0.04387 2.37263  16
  -4   3   0 1.88775 2.13473  15
  -4   3   0 -0.3405 2.57282  14
  -4   3   0 -1.2821 0.87922  10
  -4   3   0 -0.2466 2.93808  17
  -4   3   0 -1.3105 5.02569   6
  -5  -3   0 11.8150 3.89943  18
  -5  -3   0 10.4460 3.17849  11
  -5  -3   0 4.05789 3.20847  12
  -5  -3   0 -1.1535 3.80609  17
  -5  -3   0 4.21850 1.20680  10
  -5  -3   0 3.03382 4.02458  13
  -5  -3   0 2.95591 9.91265   4
  -5   3   0 9.58551 7.70033   6
  -5   3   0 21.7467 12.7467   7
  -5   3   0 9.60441 3.55353  14
  -5   3   0 0.29161 4.38738  13
  -5   3   0 6.52838 3.82400  17
  -5   3   0 6.88630 2.77274  15
  -5   3   0 4.61176 3.16803  16
  -5   3   0 3.57509 3.21155  18
  -6  -3   0 14.5064 4.73874  13
  -6  -3   0 19.9536 3.91758  18
  -6  -3   0 8.85067 3.97007  12
  -6   3   0 7.92190 2.81062  16
  -6   3   0 11.9021 3.81705  14
  -6   3   0 5.26505 4.39850  17
  -6   3   0 11.7873 3.76138  18
  -7  -3   0 3.75172 4.21103  13
  -7  -3   0 8.03076 2.69774  12
  -7   3   0 3.05784 3.00760  16
  -7   3   0 0.49837 3.79157  17
   0  -4   0 626.398 50.3715   1
   0  -4   0 625.938 59.3314   2
   0  -4   0 619.998 50.3915   1
   0  -4   0 637.669 62.7422   3
   0   4   0 642.459 50.3153   1
   0   4   0 646.947 59.2076   2
   0   4   0 674.072 62.6931   3
   0   4   0 595.513 60.9722   6
   0   4   0 641.560 50.3305   1
  -1  -4   0 102.373 9.76988   1
  -1  -4   0 118.905 12.3908   3
  -1  -4   0 106.952 11.7893   2
   1  -4   0 69.7706 11.1286   2
   1  -4   0 103.077 9.73309   1
  -1  -4   0 101.121 12.0896   4
  -1  -4   0 115.475 10.1152   1
   1  -4   0 112.007 9.80820   1
  -1   4   0 100.593 9.33509   1
   1   4   0 96.0620 12.0243   3
   1   4   0 108.091 9.87714   1
  -1   4   0 115.625 11.7916   6
  -1   4   0 110.636 11.6928   3
   1   4   0 98.7049 9.77024   1
   1   4   0 81.8796 11.4725   2
  -1   4   0 116.330 11.2032   2
  -1   4   0 102.977 9.63937   1
  -2  -4   0 549.819 54.4667   4
  -2  -4   0 554.802 55.4330   5
  -2  -4   0 451.653 42.3401   1
  -2  -4   0 545.208 52.9445   3
  -2  -4   0 544.772 50.0777   2
  -2   4   0 471.574 42.2264   1
  -2   4   0 557.884 52.3983   6
  -2   4   0 542.352 55.0961   7
  -2   4   0 548.723 52.6218   3
  -2   4   0 555.490 49.7987   2
  -3  -4   0 186.650 19.2784   3
  -3  -4   0 169.895 21.6252   5
  -3  -4   0 178.291 20.6498   4
  -3  -4   0 180.252 17.9398   2
  -3   4   0 168.040 17.5646   2
  -3   4   0 181.558 18.5242   3
  -3   4   0 182.861 19.6075   6
  -3   4   0 170.456 21.1092   7
  -4  -4   0 -0.4833 3.65643  13
  -4  -4   0 -1.4810 1.26438  10
  -4  -4   0 -0.4966 3.31764   3
  -4  -4   0 -5.6489 5.59594   4
  -4  -4   0 0.07210 3.15027  18
  -4  -4   0 4.67556 2.68316  12
  -4  -4   0 1.34351 7.34907   5
  -4  -4   0 -1.7237 2.69765   2
  -4  -4   0 0.17284 2.47552  11
  -4  -4   0 0.79411 0.86991   9
  -4   4   0 1.72168 2.55624  16
  -4   4   0 5.31656 7.47270   7
  -4   4   0 -0.6596 4.86146   6
  -4   4   0 -4.8089 2.86999  17
  -4   4   0 0.80289 1.25374  10
  -4   4   0 -0.6769 2.08350  15
  -4   4   0 -2.6498 3.17245  18
  -4   4   0 -2.9156 2.68435  14
  -5  -4   0 101.147 11.4724  11
  -5  -4   0 101.783 11.6771  12
  -5  -4   0 97.9169 9.42846  10
  -5  -4   0 116.754 11.9794  18
  -5  -4   0 99.3910 12.5804  13
  -5  -4   0 50.7838 14.7212   4
  -5   4   0 107.991 12.0384  17
  -5   4   0 99.4458 10.8578  16
  -5   4   0 39.5722 16.0740   7
  -5   4   0 124.053 11.5622  14
  -6  -4   0 9.11209 4.65839  13
  -6  -4   0 2.58265 3.22673  18
  -6  -4   0 0.91561 2.65517  12
  -6   4   0 -1.9830 2.85217  17
  -6   4   0 5.64678 3.25037  16
  -7  -4   0 9.20093 3.39736  13
  -7  -4   0 11.1735 3.09318  12
  -7   4   0 8.28843 3.23298  17
  -7   4   0 17.8252 2.85353  16
   0  -5   0 -0.3005 4.12909   2
   0  -5   0 -0.3405 4.00440   3
   0  -5   0 -4.6494 3.22333   1
   0  -5   0 3.91260 3.41798   1
   0   5   0 0.37999 3.71606   3
   0   5   0 3.43527 3.20536   1
   0   5   0 -3.5509 3.89450   2
   0   5   0 -2.5990 2.75171   1
   1  -5   0 475.356 45.4216   1
  -1  -5   0 600.142 53.9840   2
  -1  -5   0 567.130 56.7513   3
  -1  -5   0 591.653 57.6575   4
  -1  -5   0 521.451 45.6917   1
   1   5   0 511.034 45.4395   1
  -1   5   0 542.721 45.4364   1
  -1   5   0 621.097 56.6202   3
  -1   5   0 588.136 55.4374   6
  -1   5   0 642.366 53.7343   2
  -2  -5   0 5.67821 4.28909   4
  -2  -5   0 -0.0683 4.98211   5
  -2  -5   0 5.63616 3.76417   3
  -2  -5   0 -0.2343 3.25299   2
  -2   5   0 2.87306 5.30420   7
  -2   5   0 4.08648 3.80190   6
  -2   5   0 5.75378 2.99531   3
  -2   5   0 4.64408 3.07785   2
  -3  -5   0 107.949 11.1861  10
  -3  -5   0 129.711 16.0215   4
  -3  -5   0 119.704 9.77080   8
  -3  -5   0 119.588 13.5777   2
  -3  -5   0 123.800 16.6521   5
  -3  -5   0 110.105 10.6676   9
  -3  -5   0 127.519 14.5714   3
  -3   5   0 112.570 10.9404  10
  -3   5   0 135.097 13.6382   3
  -3   5   0 133.139 16.4051   7
  -3   5   0 116.795 12.7309   2
  -3   5   0 132.400 14.6516   6
  -3   5   0 108.167 10.4871   9
  -3   5   0 114.256 12.8795  17
  -4  -5   0 2.26765 1.31621   9
  -4  -5   0 4.67258 4.18003  13
  -4  -5   0 2.38310 4.36878   2
  -4  -5   0 4.06299 2.18779  10
  -4  -5   0 10.0695 3.85408  18
  -4  -5   0 0.67780 2.91950  12
  -4  -5   0 5.42803 2.84346  11
  -4  -5   0 9.59097 7.21457   4
  -4  -5   0 12.6634 11.4568   5
  -4   5   0 6.06748 3.22772   3
  -4   5   0 4.51014 1.73227  10
  -4   5   0 2.61581 2.80582   2
  -4   5   0 0.26772 3.27031  17
  -4   5   0 3.09597 2.85205  16
  -4   5   0 3.16358 2.32171  15
  -4   5   0 8.61152 6.04853   6
  -4   5   0 -2.2030 8.64065   7
  -4   5   0 2.48186 0.93557   9
  -5  -5   0 20.3418 4.01969  12
  -5  -5   0 22.8414 4.77888  13
  -5  -5   0 22.2682 3.01786  10
  -5   5   0 17.8814 2.49881  10
  -5   5   0 23.9925 3.82742  16
  -5   5   0 10.6712 4.88461  17
  -5   5   0 13.6226 14.0291   7
  -6  -5   0 2.11258 2.78180  12
  -6  -5   0 2.41525 3.38224  13
  -6   5   0 0.21166 2.33528  16
  -6   5   0 0.45466 2.85138  17
  -7  -5   0 0.35734 2.62699  12
  -7  -5   0 1.44940 2.93856  13
  -7   5   0 5.32232 2.05401  16
  -7   5   0 1.19445 2.71929  17
   0   6   0 438.654 43.2873   2
   0   6   0 449.696 45.3520   3
  -1  -6   0 31.2184 7.01871   2
  -1  -6   0 40.2172 7.79858   3
  -1   6   0 29.5412 6.88288   2
  -1   6   0 34.4463 6.41501   3
  -1   6   0 29.1578 6.18831   6
  -2  -6   0 655.911 63.3033   2
  -2  -6   0 652.922 68.4053   4
  -2  -6   0 654.682 69.8395   5
  -2  -6   0 690.228 67.0697   3
  -2  -6   0 615.180 54.2677   8
  -2   6   0 667.896 65.4506   6
  -2   6   0 731.171 63.0268   2
  -2   6   0 734.121 66.5413   3
  -2   6   0 590.451 54.0777   8
  -2   6   0 710.079 69.3861   7
  -3  -6   0 6.15014 6.84645   4
  -3  -6   0 8.60052 3.12660  12
  -3  -6   0 7.22039 5.35298   3
  -3  -6   0 10.5716 2.70741  10
  -3  -6   0 21.0462 9.46905   5
  -3  -6   0 9.26689 1.67184   8
  -3  -6   0 13.4942 2.37032   9
  -3  -6   0 7.16083 5.25880   2
  -3   6   0 6.98139 2.07428  10
  -3   6   0 9.08599 1.80617   9
  -3   6   0 16.9968 6.31479   6
  -3   6   0 9.10048 2.70345  15
  -3   6   0 1.44636 8.05299   7
  -3   6   0 9.91315 3.24771  17
  -3   6   0 16.9945 3.50607  16
  -3   6   0 4.11883 4.22137   3
  -3   6   0 8.07286 4.19601   2
  -4  -6   0 -4.1182 6.25496   2
  -4  -6   0 1.17333 1.44314   9
  -4  -6   0 1.60577 11.7262   5
  -4  -6   0 2.45170 3.15796  11
  -4  -6   0 -1.0990 8.28684   4
  -4  -6   0 0.23115 4.80956  13
  -4  -6   0 2.92013 2.68649  10
  -4  -6   0 -1.1418 3.05425  12
  -4   6   0 1.52437 2.60430  17
  -4   6   0 3.00526 4.27799   2
  -4   6   0 30.7989 11.3565   7
  -4   6   0 6.62801 4.46872   3
  -4   6   0 6.72684 3.07802  16
  -4   6   0 0.08299 1.53591  10
  -5  -6   0 124.513 15.8076  13
  -5  -6   0 128.511 15.2423  12
  -5  -6   0 135.599 13.1474  10
  -5   6   0 157.915 15.5143  17
  -5   6   0 141.821 14.6558  16
  -6  -6   0 21.7986 4.84733  12
  -6  -6   0 21.1533 4.64243  13
  -6   6   0 10.4199 3.46674  16
  -6   6   0 19.4585 3.89861  17
  -7  -6   0 26.5326 4.60434  12
  -7  -6   0 39.1752 5.24135  13
  -7   6   0 37.3822 4.56252  17
  -7   6   0 31.6659 4.10285  16
  -1  -7   0 55.0611 5.45214   8
  -1  -7   0 34.3370 8.93152   2
  -1  -7   0 37.2471 9.26072   3
  -1   7   0 45.0431 4.84170   8
  -1   7   0 67.2241 10.5416   2
  -1   7   0 53.3463 9.74589   3
  -2  -7   0 0.17699 6.14839   3
  -2  -7   0 2.72688 6.27924   2
  -2  -7   0 4.05431 3.05689  10
  -2  -7   0 11.0712 7.84469   5
  -2  -7   0 6.66010 1.94114   8
  -2  -7   0 4.48648 2.48155   9
  -2   7   0 2.12344 4.25047   3
  -2   7   0 6.96570 6.32578   7
  -2   7   0 4.36654 1.35783   8
  -2   7   0 -3.5669 4.91454   2
  -2   7   0 3.25756 2.12845  10
  -2   7   0 1.64096 1.80292   9
  -3  -7   0 1.81961 7.79354   2
  -3  -7   0 -1.0290 1.56571   8
  -3  -7   0 2.06022 6.36598   3
  -3  -7   0 1.02271 2.18124   9
  -3  -7   0 -0.2583 2.74925  12
  -3  -7   0 -1.7311 9.98584   5
  -3  -7   0 3.81233 2.79394  10
  -3   7   0 -1.0996 1.76400  10
  -3   7   0 13.5467 8.53902   7
  -3   7   0 -0.7200 2.39589  16
  -3   7   0 -1.0663 1.48621   9
  -3   7   0 6.75384 3.30738  17
  -3   7   0 0.14616 5.24760   3
  -4  -7   0 30.6679 4.27357  10
  -4  -7   0 16.8752 4.75182  12
  -4  -7   0 20.5283 16.0775   5
  -4  -7   0 27.4877 3.52507   9
  -4  -7   0 19.8386 6.76943  13
  -4   7   0 33.0370 4.77883  16
  -4   7   0 22.0099 3.83675  15
  -4   7   0 32.2030 5.48345  17
  -4   7   0 23.2478 13.1551   7
  -4   7   0 29.7371 3.65072  10
  -5  -7   0 1.86182 5.79297  13
  -5  -7   0 -1.3341 2.18574  10
  -5  -7   0 -0.4574 2.73018  12
  -5   7   0 3.97849 4.11654  17
  -5   7   0 -2.3082 2.91549  16
  -6  -7   0 3.27421 3.63357  13
  -6  -7   0 -2.2875 2.60718  12
  -6   7   0 -0.5649 1.63245  16
  -6   7   0 -0.4093 2.53946  17
  -1  -8   0 18.0953 3.36310   8
  -1   8   0 14.6095 3.12575   9
  -1   8   0 14.9616 7.24298   3
  -1   8   0 25.1567 8.26365   2
  -1   8   0 18.1757 2.61145   8
  -1   8   0 26.3812 8.40532   7
  -2  -8   0 6.73367 2.31615   8
  -2  -8   0 3.60950 2.97261   9
  -2  -8   0 -12.537 9.15446   5
  -2  -8   0 -12.032 8.59825   3
  -2  -8   0 4.82630 9.24313   2
  -2   8   0 2.18537 2.01727   9
  -2   8   0 -4.2051 6.96208   2
  -2   8   0 5.99162 6.19441   3
  -2   8   0 2.92107 2.41797  10
  -2   8   0 10.6415 8.61250   7
  -3  -8   0 13.4918 3.77060  10
  -3  -8   0 13.1894 2.71356   8
  -3  -8   0 14.5505 3.25388   9
  -3  -8   0 5.10322 13.7055   5
  -3   8   0 5.06140 10.5296   7
  -3   8   0 13.4399 4.06541  17
  -3   8   0 10.5439 3.11190  16
  -3   8   0 10.7975 2.67248  10
  -3   8   0 11.8928 2.42246   9
  -4  -8   0 15.1337 3.58223  10
  -4  -8   0 4.10533 3.70530  12
  -4  -8   0 12.4639 6.47190  13
  -4   8   0 11.9093 2.52604  10
  -4   8   0 6.18212 3.04415  16
  -4   8   0 13.4897 3.42331  17
  -5  -8   0 50.8711 7.56292  13
  -5  -8   0 47.9812 6.04329  12
  -5   8   0 34.6055 5.33083  16
  -5   8   0 43.9687 6.26064  17
  -6  -8   0 12.4671 3.03975  12
  -6  -8   0 15.5098 3.89292  13
  -6   8   0 10.8864 2.04490  16
  -6   8   0 12.4862 2.90421  17
   0   9   0 4.19051 2.32781   8
  -1  -9   0 4.89596 2.79559   8
  -1   9   0 1.28548 2.53388   9
  -1   9   0 -0.1032 1.83674   8
  -1   9   0 3.18205 6.68685   7
  -2  -9   0 22.8384 11.8206   5
  -2  -9   0 9.19536 3.59115   9
  -2   9   0 9.47149 2.96934  10
  -2   9   0 23.9680 11.8000   7
  -3  -9   0 -0.5333 5.80440  13
  -3   9   0 5.13500 2.44881  10
  -3   9   0 4.94296 2.71530  17
  -4  -9   0 15.1557 6.70174  13
  -4   9   0 5.57323 3.04727  17
  -5  -9   0 4.05017 2.35277  12
  -5  -9   0 2.51511 4.11726  13
  -5   9   0 0.12443 1.36568  16
  -5   9   0 -2.0057 3.54621  17
  -2  10   0 14.6638 3.36168  17
  -3 -10   0 21.4624 6.83829  13
  -3  10   0 22.3518 4.48331  17
  -4 -10   0 6.57997 4.44005  13
  -4  10   0 14.6640 3.91302  17
  -5 -10   0 6.53192 3.50750  13
  -5  10   0 8.71413 3.18871  17
  -2  11   0 41.2057 5.83880  17
  -3 -11   0 0.43168 3.84894  13
  -3  11   0 8.44508 2.61874  17
  -4 -11   0 25.5425 4.95425  13
  -4  11   0 29.8919 3.95622  17
  -1  12   0 2.64659 2.44088  17
  -2 -12   0 19.5293 4.51618  13
  -2  12   0 20.6355 3.28662  17
  -3 -12   0 -1.3745 3.06989  13
  -3  12   0 3.40482 2.01342  17
   0  13   0 0.05437 1.99310  17
  -7   0   1 -4.3829 3.34676  18
  -7   0   1 -0.5195 2.76233  12
  -7   0   1 -2.7152 3.55237  17
  -7   0   1 -2.9968 2.83173  16
  -7   0   1 -7.3030 3.87737  13
  -6   0   1 -0.7549 3.50649  17
  -6   0   1 8.22246 4.45786  13
  -6   0   1 -2.0193 2.77100  16
  -6   0   1 1.49472 2.50648  18
  -6   0   1 0.96703 2.21709  15
  -6   0   1 -0.3420 3.27454  14
  -6   0   1 2.61315 2.78215  11
  -6   0   1 6.92313 3.17810  12
  -5   0   1 -1.1084 2.20771  15
  -5   0   1 -1.5378 2.49754  16
  -5   0   1 0.09815 2.73260  18
  -5   0   1 -1.0050 3.72115  13
  -5   0   1 -1.0215 2.23513  11
  -5   0   1 0.66991 2.60764  12
  -5   0   1 0.10680 6.87469   4
  -5   0   1 5.15499 3.54005  17
  -5   0   1 0.76474 2.90240  14
  -4   0   1 2.96858 4.84311   4
  -4   0   1 -0.6002 3.15605   6
  -4   0   1 -0.2530 5.73042   7
  -4   0   1 -2.9236 5.07913   5
  -3   0   1 0.75663 3.03803   6
  -3   0   1 4.45173 3.35125   4
  -3   0   1 -2.1170 4.37414   5
  -3   0   1 0.68416 3.41210   7
  -2   0   1 0.70642 2.53694   6
  -2   0   1 1.30766 2.53108   4
  -2   0   1 -5.5047 3.45817   5
  -2   0   1 1.12847 2.82371   7
  -1   0   1 -3.9814 0.52448   3
  -1   0   1 -4.4183 1.18333   4
   1   0  -1 -3.3481 0.56124   1
  -1   0   1 -3.3718 0.58585   2
  -1   0   1 -1.6775 1.30913   6
  -1   0   1 -3.8338 0.55585   1
  -1   0   1 -3.0323 0.65402   3
   1   0  -1 -4.3318 0.62704   1
  -1   0   1 -2.5943 2.26548   5
  -1   0   1 -3.5654 0.61838   1
  -1   0   1 -2.7863 0.78224   2
  -1   0   1 -4.1185 1.59907   7
   0   0  -1 0.22466 0.47918   1
   0   0  -1 -0.0145 0.49515   1
   0   0   1 -0.4226 0.44148   3
   0   0   1 -0.2054 0.45774   1
   0   0  -1 -0.1639 0.55672   2
   0   0   1 0.01757 0.58179   2
   0   0  -1 -0.0764 0.50954   3
   0   0   1 -0.3673 0.53919   3
   0   0   1 -0.5606 0.47773   1
   1   0   1 -14.166 1.00852   1
  -1   0  -1 -14.110 0.91274   2
  -1   0  -1 -15.622 1.13338   5
  -1   0  -1 -15.066 0.83064   1
  -1   0  -1 -10.982 2.00888   7
  -1   0  -1 -12.843 1.79015   4
  -1   0  -1 -14.122 0.93698   3
   1   0   1 -14.776 0.86758   1
  -1   0  -1 -14.354 0.94700   1
  -1   0  -1 -13.030 1.39186   6
  -1   0  -1 -14.080 0.91293   3
  -1   0  -1 -14.134 1.06612   2
  -2   0  -1 -6.5591 2.66726   4
  -2   0  -1 -1.7056 2.36030   6
  -2   0  -1 -1.8899 0.82087   2
   2   0   1 -2.0770 0.65193   1
  -2   0  -1 -1.5739 2.65464   5
  -2   0  -1 -2.3263 0.74289   3
  -2   0  -1 -2.3718 0.68354   1
   2   0   1 -1.6721 0.65818   1
  -2   0  -1 -5.2205 3.15305   7
  -3   0  -1 1.23352 2.91542   4
  -3   0  -1 -2.0849 4.39093   7
  -3   0  -1 -2.6437 2.14921   6
  -3   0  -1 -1.5357 3.58612   5
  -4   0  -1 -8.8111 4.17771   4
  -4   0  -1 0.96619 5.71186   5
  -4   0  -1 3.65219 5.27968   7
  -5   0  -1 1.42855 2.69111  16
  -5   0  -1 3.44430 2.90760  14
  -5   0  -1 7.72146 8.26083   7
  -5   0  -1 2.40927 2.53981  11
  -5   0  -1 -2.3282 3.02231  18
  -5   0  -1 -2.7306 7.10031   4
  -5   0  -1 2.70754 3.38043  17
  -5   0  -1 4.42081 2.27567  15
  -5   0  -1 2.92077 2.84642  12
  -5   0  -1 2.43066 3.66385  13
  -6   0  -1 3.56801 3.25592  12
  -6   0  -1 8.72575 3.07081  16
  -6   0  -1 1.66850 3.80993  18
  -6   0  -1 3.88149 2.27052  15
  -6   0  -1 2.56489 3.79756  17
  -7   0  -1 -1.5426 2.45863  17
  -7   0  -1 5.53640 4.22745  18
  -7  -1   1 -2.9919 4.18605  13
  -7  -1   1 9.97135 2.64238  12
  -7  -1   1 7.72095 3.05796  18
  -7   1   1 7.82947 3.01897  17
  -7   1   1 5.63004 3.03825  14
  -7   1   1 10.9684 2.63202  16
  -7   1   1 14.7750 2.91154  18
  -6  -1   1 30.9808 5.03973  14
  -6  -1   1 43.7786 6.57495  13
  -6  -1   1 32.2649 5.14380  11
  -6  -1   1 41.7037 5.64905  12
  -6  -1   1 42.3449 5.76774  18
  -6  -1   1 21.0767 4.79179  16
  -6  -1   1 37.8550 5.67292  17
  -6   1   1 38.9253 5.43755  14
  -6   1   1 39.6882 4.97497  16
  -6   1   1 36.2400 5.08436  12
  -6   1   1 29.8058 5.26320  18
  -6   1   1 37.3138 5.24733  17
  -6   1   1 49.0827 6.70998  13
  -6   1   1 26.1599 4.63522  11
  -5  -1   1 8.73296 4.30039  13
  -5  -1   1 10.3058 3.35056  12
  -5  -1   1 6.38890 3.08938  14
  -5  -1   1 8.14413 2.97293  11
  -5  -1   1 -2.9186 9.92130   5
  -5  -1   1 7.58417 6.54196   4
  -5  -1   1 20.1640 3.60456  18
  -5  -1   1 5.90317 2.78992  16
  -5  -1   1 9.31347 3.73017  17
  -5   1   1 12.5993 2.82938  11
  -5   1   1 15.2381 5.09285  13
  -5   1   1 8.96440 3.10929  18
  -5   1   1 1.37327 6.46516   6
  -5   1   1 9.95374 3.39722  14
  -5   1   1 17.4071 3.01398  15
  -5   1   1 16.7762 3.38685  12
  -5   1   1 12.5643 3.91694  17
  -5   1   1 7.66876 8.55941   7
  -5   1   1 10.6316 3.16633  16
  -4  -1   1 268.886 26.6739   5
  -4  -1   1 211.121 25.2375   4
  -4   1   1 210.328 23.9331   6
  -4   1   1 250.033 26.2193   7
  -4   1   1 215.191 24.7153   4
  -4   1   1 237.079 26.0275   5
  -3  -1   1 59.8192 8.72961   7
  -3  -1   1 56.0897 9.03094   5
  -3  -1   1 50.4771 7.09796   6
  -3  -1   1 61.0879 8.55405   4
  -3   1   1 60.9953 9.33478   5
  -3   1   1 59.7859 8.04935   6
  -3   1   1 60.9646 8.87553   7
  -3   1   1 60.7926 7.94848   4
  -2  -1   1 1288.32 131.945   7
  -2  -1   1 1375.20 130.641   4
  -2  -1   1 1295.61 101.841   1
  -2  -1   1 1391.35 119.934   2
  -2  -1   1 1217.59 125.390   6
  -2  -1   1 1307.42 101.853   1
   2  -1  -1 1333.31 101.726   1
  -2  -1   1 1299.55 132.302   5
   2  -1  -1 1397.85 101.706   1
  -2  -1   1 1310.33 119.930   2
  -2  -1   1 1365.18 127.257   3
  -2  -1   1 1346.51 127.243   3
  -2   1   1 1246.71 119.762   2
   2   1  -1 1410.35 101.880   1
  -2   1   1 1240.18 127.091   3
  -2   1   1 1339.59 127.080   3
  -2   1   1 1330.09 119.737   2
  -2   1   1 1277.61 131.930   7
  -2   1   1 1331.91 125.856   6
  -2   1   1 1240.22 101.713   1
  -2   1   1 1290.86 101.688   1
  -2   1   1 1314.10 132.365   5
  -2   1   1 1156.21 130.073   4
   2   1  -1 1409.29 101.890   1
   1  -1  -1 192.215 14.4906   1
  -1  -1   1 192.709 17.0378   2
  -1  -1   1 156.637 17.6082   6
  -1  -1   1 188.945 14.4551   1
  -1  -1   1 191.810 18.0193   3
  -1  -1   1 170.129 16.9879   2
  -1  -1   1 196.056 14.4629   1
  -1  -1   1 184.287 19.0901   5
  -1  -1   1 167.221 18.6589   4
  -1  -1   1 181.820 17.9760   3
   1   1  -1 204.237 14.5242   1
   1   1  -1 197.265 14.4815   1
  -1   1   1 185.336 17.9994   3
  -1   1   1 170.485 18.7859   7
  -1   1   1 186.447 19.1748   5
  -1   1   1 173.004 16.9999   2
  -1   1   1 188.621 14.4513   1
  -1   1   1 178.070 16.9284   2
  -1   1   1 173.814 17.9274   3
  -1   1   1 173.841 18.0287   6
  -1   1   1 187.096 14.4160   1
  -1   1   1 169.834 18.2429   4
   0  -1  -1 845.013 84.4461   3
   0  -1   1 920.433 67.5945   1
   0  -1   1 894.735 79.6070   2
   0  -1  -1 818.688 79.6081   2
   0  -1   1 815.647 84.3983   3
   0  -1  -1 887.654 67.6286   1
   0  -1  -1 888.584 67.6209   1
   0  -1   1 923.780 67.6024   1
   0   1  -1 831.326 84.3978   3
   0   1  -1 857.000 79.5673   2
   0   1   1 884.459 67.6077   1
   0   1   1 849.418 84.4314   3
   0   1  -1 931.534 67.5945   1
   0   1   1 790.050 82.8855   6
   0   1  -1 949.028 67.6136   1
   0   1   1 813.826 79.5796   2
   0   1   1 884.361 67.6044   1
  -1  -1  -1 252.197 26.1263   4
  -1  -1  -1 262.066 25.2647   3
   1  -1   1 278.342 20.2369   1
  -1  -1  -1 234.912 25.1975   3
  -1  -1  -1 255.392 20.2498   1
  -1  -1  -1 253.730 20.2633   1
   1  -1   1 271.413 20.1986   1
  -1  -1  -1 267.638 23.8646   2
  -1  -1  -1 241.471 23.8513   2
  -1  -1  -1 230.200 26.3258   7
  -1   1  -1 221.266 25.6631   4
  -1   1  -1 251.987 25.0128   6
   1   1   1 275.410 20.3119   1
   1   1   1 281.245 20.2773   1
  -1   1  -1 248.904 25.1420   3
  -1   1  -1 260.802 23.7547   2
  -1   1  -1 243.616 23.7428   2
  -1   1  -1 268.742 20.1831   1
  -1   1  -1 272.265 20.2055   1
  -1   1  -1 263.780 25.1424   3
  -1   1  -1 244.437 26.2891   7
  -2  -1  -1 842.233 84.7382   5
  -2  -1  -1 870.863 85.0355   7
  -2  -1  -1 792.699 80.2747   6
  -2  -1  -1 811.950 65.2533   1
  -2  -1  -1 782.108 81.4700   3
   2  -1   1 896.432 65.2039   1
  -2  -1  -1 829.531 83.9796   4
  -2  -1  -1 769.321 65.3041   1
  -2  -1  -1 868.316 76.8643   2
  -2  -1  -1 847.214 81.5714   3
  -2  -1  -1 856.358 76.9450   2
   2  -1   1 893.159 65.2535   1
   2   1   1 899.213 65.3091   1
  -2   1  -1 820.630 81.4303   3
  -2   1  -1 817.648 65.1612   1
  -2   1  -1 883.853 84.9666   7
  -2   1  -1 826.472 84.7378   5
   2   1   1 837.597 65.3514   1
  -2   1  -1 826.858 76.7339   2
  -2   1  -1 880.913 76.7810   2
  -2   1  -1 840.447 65.2029   1
  -2   1  -1 770.479 83.5046   4
  -2   1  -1 836.733 81.3867   3
  -2   1  -1 846.782 80.7888   6
  -3  -1  -1 11.6937 3.94100   5
  -3  -1  -1 10.2652 4.62238   7
  -3  -1  -1 8.35060 3.72450   4
  -3   1  -1 13.8048 4.42508   5
  -3   1  -1 13.8133 3.61523   4
  -3   1  -1 9.62265 4.44669   7
  -3   1  -1 10.2788 3.90980   6
  -4  -1  -1 957.686 97.8757   7
  -4  -1  -1 816.981 96.9502   5
  -4  -1  -1 1070.12 96.6291   4
  -4   1  -1 942.282 97.7575   7
  -4   1  -1 987.819 95.8386   4
  -5  -1  -1 53.3061 5.97767  12
  -5  -1  -1 41.6070 5.49745  11
  -5  -1  -1 40.5721 5.30320  16
  -5  -1  -1 38.9178 5.82604  18
  -5  -1  -1 41.5368 6.26199  13
  -5  -1  -1 35.7123 5.79380  17
  -5  -1  -1 33.0731 9.03985   4
  -5   1  -1 48.3246 6.01061  18
  -5   1  -1 47.3708 5.32165  15
  -5   1  -1 42.3821 5.56819  14
  -5   1  -1 31.1036 5.15013  12
  -5   1  -1 25.0273 10.0230   7
  -5   1  -1 38.3400 5.20448  11
  -5   1  -1 31.6115 6.36937  13
  -5   1  -1 42.9369 5.57624  16
  -5   1  -1 38.2762 5.79482  17
  -6  -1  -1 180.999 19.5536  16
  -6  -1  -1 177.312 20.0432  12
  -6  -1  -1 220.657 20.2574  18
  -6  -1  -1 177.120 19.8394  17
  -6   1  -1 196.763 20.3116  17
  -6   1  -1 183.393 19.4324  14
  -6   1  -1 182.498 19.6873  11
  -6   1  -1 214.412 20.0921  18
  -6   1  -1 198.818 19.7056  16
  -6   1  -1 209.183 18.8581  15
  -7  -1  -1 10.3750 4.01156  17
  -7  -1  -1 10.0391 4.45381  18
  -7  -1  -1 4.07523 2.92271  12
  -7   1  -1 6.65757 3.03672  18
  -7   1  -1 3.24137 3.03321  16
  -7   1  -1 4.80228 3.90631  17
  -8  -2   1 6.62567 1.87410  12
  -7  -2   1 6.27768 3.31886  13
  -7  -2   1 2.60734 2.96590  18
  -7  -2   1 1.07791 3.02167  12
  -7   2   1 -2.0164 3.65684  17
  -7   2   1 6.83343 2.33947  16
  -6  -2   1 0.68847 1.98480  12
  -6  -2   1 5.94182 3.70733  17
  -6  -2   1 0.23403 4.02097  18
  -6  -2   1 2.98885 4.38854  13
  -6   2   1 4.41372 3.52266  14
  -6   2   1 1.87744 2.21560  16
  -6   2   1 3.92839 3.96393  17
  -6   2   1 1.38702 4.41626  13
  -6   2   1 3.59195 3.15104  18
  -5  -2   1 10.4358 3.78525  18
  -5  -2   1 6.67377 7.40605   4
  -5  -2   1 7.52851 10.7746   5
  -5  -2   1 14.5204 3.97329  17
  -5  -2   1 17.5194 4.47716  13
  -5  -2   1 10.7706 3.20584  11
  -5  -2   1 18.1222 3.72585  12
  -5   2   1 22.7961 6.97456   6
  -5   2   1 9.23965 9.31879   7
  -5   2   1 14.4604 3.22028  15
  -5   2   1 13.2069 3.28652  18
  -5   2   1 12.4286 4.52605  13
  -5   2   1 16.3123 4.21004  17
  -5   2   1 13.5384 3.44075  16
  -5   2   1 9.81694 3.52578  14
  -4  -2   1 21.0219 6.68962   5
  -4  -2   1 17.0630 6.70062   4
  -4   2   1 14.2237 6.71737   7
  -4   2   1 25.8324 6.36068   6
  -3  -2   1 77.3941 9.67815   4
  -3  -2   1 81.2160 7.14186   2
  -3  -2   1 62.9869 5.98566   1
  -3  -2   1 70.1218 7.36282   3
  -3  -2   1 82.4041 10.8794   5
  -3  -2   1 69.8103 7.23760   2
  -3  -2   1 60.8280 6.04995   1
  -3  -2   1 74.9134 7.54984   3
  -3   2   1 82.3758 9.32692   6
  -3   2   1 86.6340 10.7066   7
  -3   2   1 56.4931 8.11816   4
   3   2  -1 59.4680 6.00572   1
  -2  -2   1 6.62927 1.83919   1
  -2  -2   1 4.64927 1.78130   1
  -2  -2   1 5.53535 1.99184   3
  -2  -2   1 6.43947 2.11373   2
  -2  -2   1 5.89545 3.69847   5
  -2  -2   1 5.11240 1.54650   6
   2  -2  -1 5.22896 1.75188   1
  -2  -2   1 0.52081 2.03233   2
  -2  -2   1 3.24881 1.84898   3
   2  -2  -1 6.04330 1.60159   1
  -2  -2   1 2.30483 2.90305   4
  -2   2   1 4.10266 1.81641   2
  -2   2   1 4.20413 1.51856   1
  -2   2   1 4.77217 1.97699   2
  -2   2   1 5.39210 1.50744   1
  -2   2   1 4.94380 1.73015   4
   2   2  -1 3.91847 1.84863   1
  -2   2   1 10.8940 3.31622   6
  -2   2   1 4.84372 1.89023   3
   2   2  -1 4.59847 1.81566   1
  -2   2   1 3.16574 1.60997   3
  -2   2   1 3.01046 4.06891   7
  -1  -2   1 33.0343 4.23656   2
   1  -2  -1 31.2409 3.51127   1
  -1  -2   1 29.7768 4.10983   3
  -1  -2   1 28.9187 4.79540   4
  -1  -2   1 29.2630 3.43073   1
   1  -2  -1 34.6004 3.68687   1
  -1  -2   1 21.4495 3.95555   3
   1   2  -1 29.3114 4.06944   3
  -1   2   1 29.5532 3.34639   1
   1   2  -1 32.9428 3.66488   1
  -1   2   1 31.0072 4.08900   2
  -1   2   1 28.8896 3.80419   2
  -1   2   1 24.3166 4.60950   6
  -1   2   1 33.6116 4.19610   3
  -1   2   1 32.9053 3.44671   1
   1   2  -1 30.7689 3.51524   1
  -1   2   1 26.5491 3.90137   3
   0  -2  -1 -0.6863 2.27618   2
   0  -2  -1 -1.5552 1.68334   3
   0  -2  -1 0.74379 1.56339   1
   0  -2   1 0.87612 2.02401   3
   0  -2  -1 -0.6545 1.44735   4
   0  -2   1 -0.7659 1.69950   1
   0  -2  -1 2.66880 1.97446   1
   0  -2   1 0.52549 1.45124   1
   0  -2   1 0.73267 1.84615   2
   0   2   1 0.20041 1.82484   1
   0   2  -1 0.00873 1.35572   1
   0   2   1 1.88849 1.46301   1
   0   2   1 0.39588 1.63182   3
   0   2  -1 -0.9273 1.70462   2
   0   2   1 3.00094 2.26232   2
   0   2   1 1.01566 1.47706   6
   0   2  -1 0.86651 1.87488   1
   0   2  -1 3.12478 2.12918   3
   1  -2   1 42.0109 5.83866   3
  -1  -2  -1 50.2451 5.03504   1
   1  -2   1 55.1274 5.12341   1
  -1  -2  -1 60.7516 6.09341   2
  -1  -2  -1 59.3639 6.54772   3
  -1  -2  -1 41.5302 4.89052   1
   1  -2   1 52.5949 4.93878   1
  -1  -2  -1 59.0068 6.74989   4
  -1   2  -1 52.9991 6.24887   6
  -1   2  -1 56.6976 5.06875   1
  -1   2  -1 46.2674 5.97077   3
  -1   2  -1 52.2303 4.97344   1
   1   2   1 53.6183 6.21110   3
  -1   2  -1 53.0166 5.92856   3
  -1   2  -1 47.3267 6.55678   7
  -1   2  -1 42.7515 5.61056   2
   1   2   1 57.8124 5.32380   1
  -1   2  -1 53.3763 5.95389   2
   1   2   1 59.2544 5.30194   1
  -2  -2  -1 0.29780 1.57451   3
  -2  -2  -1 -4.7972 3.52473   4
  -2  -2  -1 -2.2058 2.07978   3
  -2  -2  -1 -1.4901 3.42629   5
  -2  -2  -1 1.47517 1.63209   1
  -2  -2  -1 0.92179 1.98917   2
   2  -2   1 -1.1323 1.50019   1
   2  -2   1 -0.5620 1.46215   1
  -2  -2  -1 3.45711 2.09517   2
  -2  -2  -1 2.12269 1.98805   1
  -2   2  -1 -1.7928 2.53853   6
   2   2   1 -2.1766 1.91602   1
  -2   2  -1 1.59896 4.19752   7
  -2   2  -1 1.27049 1.95730   2
  -2   2  -1 1.62175 1.68206   3
  -2   2  -1 -0.0995 1.82616   4
  -2   2  -1 0.34487 1.72401   3
  -2   2  -1 0.03935 1.74125   2
   2   2   1 1.68891 1.59125   1
  -2   2  -1 0.61890 1.47516   1
  -2   2  -1 -0.3946 1.44676   1
  -3  -2  -1 60.5063 8.87919   5
  -3  -2  -1 45.9266 5.60856   3
  -3  -2  -1 46.8150 5.83611   2
  -3  -2  -1 42.4159 4.98990   1
  -3  -2  -1 62.0202 5.68400   2
  -3  -2  -1 56.9709 8.70173   4
  -3  -2  -1 60.1843 6.21002   3
   3  -2   1 40.5887 4.39421   1
  -3  -2  -1 46.2383 4.74247   1
  -3   2  -1 52.6389 5.31246   3
  -3   2  -1 57.9351 7.88358   6
  -3   2  -1 46.2770 6.53481   4
  -3   2  -1 47.9916 4.35290   1
  -3   2  -1 52.8033 5.22317   2
  -3   2  -1 70.7346 9.07805   7
  -3   2  -1 50.9596 5.11692   2
   3   2   1 35.8571 4.67162   1
  -3   2  -1 50.0350 4.39342   1
  -3   2  -1 53.0382 5.43979   3
  -4  -2  -1 6.73898 6.31774   5
  -4  -2  -1 3.35776 5.75896   4
  -4   2  -1 -0.3519 3.71804   6
  -4   2  -1 5.53375 5.49893   7
  -5  -2  -1 53.7905 6.53213  11
  -5  -2  -1 60.3047 11.4429   4
  -5  -2  -1 59.6043 6.85823  12
  -5  -2  -1 43.7790 6.93364  13
  -5  -2  -1 50.7220 6.75997  17
  -5  -2  -1 50.5965 6.68130  18
  -5  -2  -1 43.7995 6.06536  16
  -5   2  -1 42.7380 6.53656  17
  -5   2  -1 49.3886 6.37510  16
  -5   2  -1 40.0830 11.9422   7
  -5   2  -1 51.2411 6.71927  18
  -5   2  -1 54.6416 6.49599  14
  -5   2  -1 40.9808 6.12442  11
  -5   2  -1 54.4886 6.26407  15
  -6  -2  -1 4.51820 3.94214  17
  -6  -2  -1 4.21977 4.38052  18
  -6  -2  -1 0.89893 3.34466  12
  -6  -2  -1 3.13191 4.10651  13
  -6   2  -1 2.50271 3.84975  18
  -6   2  -1 5.81158 3.43425  14
  -6   2  -1 -0.3273 2.75711  17
  -6   2  -1 4.52219 3.19125  16
  -7  -2  -1 4.79559 4.38074  18
  -7  -2  -1 5.28712 3.12630  12
  -7   2  -1 3.07347 2.91036  17
  -7   2  -1 -2.1179 1.99540  16
  -7   2  -1 1.92138 2.62056  18
  -8   2  -1 4.44441 2.54803  17
  -7  -3   1 2.53986 3.04030  13
  -7  -3   1 5.03659 3.27909  12
  -7   3   1 2.72322 3.83229  17
  -7   3   1 1.85741 2.04714  16
  -6  -3   1 39.6169 5.81750  12
  -6  -3   1 36.6286 6.00833  18
  -6  -3   1 39.2707 5.77276  13
  -6   3   1 23.7812 5.06753  16
  -6   3   1 26.9875 5.13804  17
  -6   3   1 35.2977 5.49274  14
  -5  -3   1 19.6682 12.5160   5
  -5  -3   1 35.3592 5.85992  13
  -5  -3   1 22.8755 4.69560  12
  -5  -3   1 20.1080 10.7687   4
  -5  -3   1 31.6356 3.00730  10
  -5  -3   1 15.8716 4.23359  11
  -5  -3   1 34.2239 5.15285  18
  -5   3   1 26.2753 3.85630  15
  -5   3   1 25.9197 4.72977  14
  -5   3   1 25.9014 4.55017  16
  -5   3   1 38.9966 6.89710  13
  -5   3   1 32.1399 5.47147  17
  -5   3   1 24.1438 10.9947   7
  -4  -3   1 28.4499 4.52519  18
  -4  -3   1 24.8623 3.13550  10
  -4  -3   1 20.7029 3.99948  11
  -4  -3   1 35.1370 8.72784   4
  -4  -3   1 27.2682 4.89157  13
  -4  -3   1 23.8436 4.15042  12
  -4  -3   1 33.8044 9.38662   5
  -4   3   1 27.2411 3.82155  15
  -4   3   1 26.9743 6.73021   6
  -4   3   1 31.9186 4.67811  17
  -4   3   1 28.3734 4.31898  14
  -4   3   1 24.8300 2.92292  10
  -4   3   1 29.3678 9.30370   7
  -4   3   1 36.4790 4.31754  16
  -3  -3   1 71.8595 9.57407   2
  -3  -3   1 74.0110 9.75034   3
  -3  -3   1 97.8263 12.4905   5
  -3  -3   1 100.647 10.1953   3
  -3  -3   1 97.7226 9.56860   2
  -3  -3   1 93.0889 12.3650   4
  -3   3   1 86.7035 9.48156   3
  -3   3   1 85.4792 9.45793   2
  -3   3   1 107.252 13.2359   7
  -3   3   1 99.8575 9.77697   3
  -3   3   1 101.266 11.9108   6
  -3   3   1 93.4644 9.09277   2
  -3   3   1 79.2284 8.02729   1
  -2  -3   1 21.8982 3.10191   1
  -2  -3   1 12.7216 3.52660   2
   2  -3  -1 21.0481 3.01781   1
   2  -3  -1 19.2995 3.19227   1
  -2  -3   1 14.7104 3.49762   3
  -2  -3   1 22.9761 5.96298   5
  -2  -3   1 24.3068 4.04708   3
  -2  -3   1 25.2826 5.38597   4
  -2  -3   1 18.9305 3.81707   2
  -2  -3   1 20.0843 3.10674   1
  -2   3   1 17.1364 2.66912   1
  -2   3   1 29.7790 5.84632   7
  -2   3   1 19.0806 2.83310   1
   2   3  -1 24.4200 3.32122   1
  -2   3   1 21.4356 3.56412   3
  -2   3   1 11.8713 3.13948   2
  -2   3   1 19.8336 3.43001   3
  -2   3   1 26.9260 3.68905   2
  -2   3   1 31.0942 5.48969   6
   2   3  -1 22.1035 3.20007   1
  -1  -3   1 1661.22 130.458   1
  -1  -3   1 1752.99 162.936   3
   1  -3  -1 1772.21 130.558   1
  -1  -3   1 1785.93 153.687   2
  -1  -3   1 1636.55 130.438   1
   1  -3  -1 1484.68 153.535   2
   1  -3  -1 1668.06 130.458   1
  -1  -3   1 1736.69 166.222   4
   1  -3  -1 1603.38 162.958   3
   1   3  -1 1687.82 130.484   1
  -1   3   1 1669.41 130.387   1
  -1   3   1 1625.68 130.344   1
  -1   3   1 1694.02 153.485   2
  -1   3   1 1773.35 162.847   3
  -1   3   1 1708.53 160.242   6
   1   3  -1 1536.86 153.549   2
   0  -3   1 1.53448 3.13125   2
   0  -3  -1 5.41599 3.00622   2
   0  -3   1 9.32162 2.80430   3
   0  -3   1 6.06128 2.20366   1
   0  -3  -1 6.74181 3.26592   3
   0  -3   1 12.8352 2.79768   1
   0  -3  -1 5.05060 2.33357   1
   0  -3  -1 6.07173 2.08374   4
   0  -3  -1 5.52035 2.78800   1
   0   3  -1 4.16880 2.53424   1
   0   3   1 7.03272 2.24554   1
   0   3   1 5.94167 2.21373   6
   0   3  -1 5.95917 2.37476   1
   0   3   1 6.32333 3.01931   3
   0   3  -1 6.17840 3.26814   2
   0   3  -1 8.60555 2.79471   3
   0   3   1 10.6066 2.85452   2
   0   3   1 9.36883 2.63914   1
   1  -3   1 708.907 54.3164   1
   1  -3   1 732.953 54.3628   1
  -1  -3  -1 699.766 67.7866   3
  -1  -3  -1 654.049 69.1256   4
  -1  -3  -1 694.331 64.0429   2
  -1  -3  -1 687.117 54.3804   1
   1  -3   1 607.979 67.6274   3
  -1  -3  -1 712.821 54.3793   1
   1  -3   1 573.406 63.8005   2
  -1   3  -1 720.531 54.2746   1
   1   3   1 646.602 67.6410   3
   1   3   1 748.649 54.4378   1
  -1   3  -1 575.441 67.4796   3
   1   3   1 752.468 54.3778   1
  -1   3  -1 741.608 63.8726   2
  -1   3  -1 744.555 54.3031   1
  -1   3  -1 736.073 66.6937   6
   1   3   1 646.338 63.9170   2
  -1   3  -1 737.549 67.6550   3
  -2  -3  -1 75.5830 9.21325   5
   2  -3   1 68.3934 6.19228   1
   2  -3   1 65.6702 6.29315   1
  -2  -3  -1 78.2147 9.27716   4
  -2  -3  -1 54.0613 7.13385   3
  -2  -3  -1 43.0778 7.07955   2
  -2  -3  -1 52.2385 6.16515   1
  -2  -3  -1 62.1421 7.06865   2
  -2  -3  -1 61.4842 6.21167   1
  -2  -3  -1 70.6897 7.70657   3
  -2   3  -1 44.8185 6.48644   4
  -2   3  -1 65.8882 7.03261   2
   2   3   1 65.8978 6.40916   1
  -2   3  -1 69.9602 8.80602   7
  -2   3  -1 65.0424 7.98489   6
   2   3   1 62.4974 6.27339   1
  -2   3  -1 56.3366 7.15520   3
  -2   3  -1 72.5859 6.22255   1
  -3  -3  -1 68.3881 7.87665   3
  -3  -3  -1 73.4739 9.86248   4
  -3  -3  -1 65.2380 9.84761   5
  -3  -3  -1 55.6518 7.15175   2
  -3   3  -1 65.4531 9.88375   7
  -3   3  -1 69.7754 6.97619   2
  -3   3  -1 65.8917 7.07968   3
  -3   3  -1 68.3501 9.06501   6
  -3   3  -1 55.6120 6.86309   2
  -3   3  -1 42.5141 6.87320   3
  -4  -3  -1 108.090 11.3427  12
  -4  -3  -1 103.151 9.71254  10
  -4  -3  -1 118.789 14.6900   4
  -4  -3  -1 124.822 16.2176   5
  -4  -3  -1 87.9431 11.5423  17
  -4  -3  -1 99.5231 11.3153  18
  -4  -3  -1 104.753 11.2502  11
  -4   3  -1 105.445 11.1478  16
  -4   3  -1 95.9293 14.8875   7
  -4   3  -1 127.206 13.6933   6
  -4   3  -1 109.750 11.2403  14
  -4   3  -1 98.3739 9.56967  10
  -4   3  -1 105.426 10.5704  15
  -4   3  -1 96.5898 11.4857  17
  -5  -3  -1 125.480 13.0638  12
  -5  -3  -1 116.777 10.7373  10
  -5  -3  -1 136.576 18.6006   4
  -5  -3  -1 126.119 12.9613  11
  -5  -3  -1 109.262 13.2475  17
  -5  -3  -1 97.0492 13.6125  13
  -5  -3  -1 107.091 12.4967  18
  -5   3  -1 109.918 13.1551  17
  -5   3  -1 114.027 12.8111  18
  -5   3  -1 113.960 19.6610   7
  -5   3  -1 127.649 12.0941  15
  -5   3  -1 121.499 12.7624  14
  -5   3  -1 120.303 12.7018  16
  -6  -3  -1 25.2245 6.00633  13
  -6  -3  -1 39.9648 6.05128  12
  -6  -3  -1 37.2625 5.62997  18
  -6   3  -1 39.3458 6.03859  17
  -6   3  -1 42.3111 5.47479  16
  -6   3  -1 27.4351 5.51103  18
  -7  -3  -1 4.19628 3.45961  12
  -7  -3  -1 5.90044 3.28641  18
  -7   3  -1 7.31333 3.32514  18
  -7   3  -1 11.8013 3.26323  17
  -7   3  -1 5.08213 3.07548  16
  -7  -4   1 6.66013 4.64087  13
  -7  -4   1 14.1279 3.14720  12
  -7   4   1 1.97086 3.84595  17
  -7   4   1 9.94185 2.56492  16
  -6  -4   1 13.0748 5.21084  13
  -6  -4   1 10.9126 4.23541  12
  -6   4   1 10.8728 4.61494  17
  -6   4   1 18.6987 3.38039  16
  -5  -4   1 24.6315 5.52945  13
  -5  -4   1 19.9499 4.17643  11
  -5  -4   1 15.7736 4.66396  18
  -5  -4   1 19.8852 2.60283  10
  -5  -4   1 7.84138 9.32654   4
  -5  -4   1 12.1327 11.5794   5
  -5  -4   1 21.0007 4.29944  12
  -5   4   1 -6.9370 12.3007   7
  -5   4   1 18.4464 4.99631  17
  -5   4   1 15.8433 4.06172  16
  -5   4   1 22.0372 4.35161  14
  -4  -4   1 50.9875 6.04337  12
  -4  -4   1 50.9087 6.29995  18
  -4  -4   1 51.7053 6.94752  13
  -4  -4   1 43.5137 5.73087   2
  -4  -4   1 38.0487 4.65745  10
  -4  -4   1 47.0040 5.95885  11
  -4  -4   1 31.3233 9.98357   5
  -4  -4   1 40.0005 4.22108   9
  -4  -4   1 43.3410 9.44205   4
  -4   4   1 47.3075 5.81989  16
  -4   4   1 41.6537 4.55339  10
  -4   4   1 46.5273 6.31079  17
  -4   4   1 48.1277 5.63067  15
  -4   4   1 49.1475 5.97682  14
  -4   4   1 66.4015 10.3497   6
  -4   4   1 30.6996 10.3413   7
  -3  -4   1 25.4517 5.27858   3
  -3  -4   1 29.9127 5.06302   2
  -3  -4   1 32.3034 7.23173   4
  -3  -4   1 33.1110 7.82071   5
  -3   4   1 34.1239 4.92974   2
  -3   4   1 33.3008 7.36550   7
  -3   4   1 31.4245 7.09074   6
  -3   4   1 33.0329 5.07297   3
  -2  -4   1 9.88278 4.89646   5
  -2  -4   1 13.4713 3.97776   3
  -2  -4   1 1.28063 2.87178   1
  -2  -4   1 10.6272 3.78046   2
  -2  -4   1 4.52493 4.08012   4
  -2   4   1 12.2090 3.35451   2
  -2   4   1 7.78202 3.97857   6
  -2   4   1 12.8413 3.49120   3
  -2   4   1 7.86626 4.22675   7
   1  -4  -1 155.119 14.5348   1
  -1  -4   1 186.724 18.3901   3
  -1  -4   1 161.127 17.4474   2
   1  -4  -1 166.916 14.7204   1
  -1  -4   1 164.182 14.7517   1
  -1  -4   1 169.362 14.7148   1
  -1  -4   1 168.673 18.5145   4
   1   4  -1 178.417 14.8531   1
   1   4  -1 156.532 18.1200   3
   1   4  -1 160.239 14.7802   1
  -1   4   1 175.065 14.6499   1
  -1   4   1 181.559 17.0748   2
  -1   4   1 171.718 14.4436   1
  -1   4   1 187.469 17.9320   6
  -1   4   1 179.611 17.9174   3
   1   4  -1 149.376 17.3214   2
   0  -4   1 115.383 10.0101   1
   0  -4  -1 84.5471 11.2118   4
   0  -4  -1 105.809 12.5435   3
   0  -4   1 101.550 11.5774   2
   0  -4   1 98.7878 12.1461   3
   0  -4   1 99.2459 10.0915   1
   0  -4  -1 95.2131 11.6235   2
   0  -4  -1 118.070 10.3540   1
   0  -4  -1 108.758 10.2104   1
   0   4  -1 102.372 9.80237   1
   0   4   1 114.601 11.5000   2
   0   4   1 106.681 11.0202   6
   0   4   1 115.888 12.1303   3
   0   4   1 115.940 9.96424   1
   0   4  -1 104.527 11.4384   2
   0   4   1 108.171 9.82953   1
  -1  -4  -1 438.356 37.3800   2
   1  -4   1 381.328 31.3778   1
  -1  -4  -1 384.994 31.5332   1
   1  -4   1 309.750 36.9138   2
  -1  -4  -1 427.843 39.4077   3
  -1  -4  -1 404.447 39.8330   4
   1  -4   1 371.429 31.4231   1
  -1  -4  -1 384.382 31.6127   1
   1   4   1 351.310 36.9963   2
   1   4   1 408.412 31.6042   1
  -1   4  -1 360.562 31.3008   1
  -1   4  -1 400.686 36.8667   2
   1   4   1 400.156 31.4966   1
  -1   4  -1 417.449 38.3550   6
   1   4   1 390.624 39.1238   3
  -2  -4  -1 29.9832 5.30836   3
  -2  -4  -1 22.6883 4.40404   1
  -2  -4  -1 31.0171 5.61697   2
  -2  -4  -1 25.9646 5.66999   4
  -2   4  -1 27.7289 4.93798   2
  -2   4  -1 34.8799 5.26567   3
  -2   4  -1 30.4644 6.36543   7
  -2   4  -1 27.5170 5.92489   6
  -3  -4  -1 126.153 12.8204   2
  -3  -4  -1 105.877 13.4372   3
  -3  -4  -1 115.464 14.9475   4
  -3  -4  -1 116.184 15.9397   5
  -3   4  -1 111.740 15.8271   7
  -3   4  -1 114.454 12.3193   2
  -3   4  -1 120.482 12.6733   3
  -3   4  -1 121.513 14.4716   6
  -4  -4  -1 13.7033 2.45573  10
  -4  -4  -1 18.3705 8.52336   5
  -4  -4  -1 13.6202 3.63117   2
  -4  -4  -1 16.6268 4.42347  13
  -4  -4  -1 8.77818 6.24016   4
  -4  -4  -1 12.9405 3.98657   3
  -4  -4  -1 12.9279 1.72209   9
  -4  -4  -1 14.0483 3.34769  11
  -4  -4  -1 18.6449 4.07767  18
  -4  -4  -1 6.86035 3.19338  12
  -4   4  -1 14.1520 2.91658  15
  -4   4  -1 1.57579 8.61172   7
  -4   4  -1 16.4182 2.17020  10
  -4   4  -1 18.0937 3.77153  17
  -4   4  -1 19.3819 3.62382  14
  -4   4  -1 15.8139 3.49334  16
  -4   4  -1 5.22223 3.20373  18
  -4   4  -1 14.1523 6.03069   6
  -5  -4  -1 28.3226 3.42603  10
  -5  -4  -1 6.27711 9.52025   4
  -5  -4  -1 35.1712 5.14807  12
  -5  -4  -1 25.9259 5.34256  18
  -5  -4  -1 16.8416 5.33757  13
  -5   4  -1 23.3175 4.56775  16
  -5   4  -1 23.9990 2.97391  10
  -5   4  -1 27.1645 4.74750  18
  -5   4  -1 32.7128 5.32333  17
  -5   4  -1 21.7899 11.8385   7
  -5   4  -1 32.5425 4.43983  15
  -6  -4  -1 19.4689 4.81215  12
  -6  -4  -1 20.4294 5.22444  13
  -6  -4  -1 19.9828 4.48594  18
  -6   4  -1 16.0612 3.94162  16
  -6   4  -1 15.2696 4.38338  18
  -6   4  -1 25.9077 5.06512  17
  -7  -4  -1 8.97112 2.82844  12
  -7   4  -1 5.16008 2.99130  17
  -7   4  -1 5.08697 2.26534  16
  -7  -5   1 36.6348 4.84101  12
  -7  -5   1 26.3602 5.74297  13
  -7   5   1 25.5075 4.87505  17
  -7   5   1 27.6615 4.01181  16
  -6  -5   1 70.2402 9.36415  13
  -6  -5   1 72.6823 9.46014  12
  -6   5   1 66.3299 8.11870  16
  -6   5   1 75.5036 8.85607  17
  -5  -5   1 0.41040 3.58525  12
  -5  -5   1 5.69491 5.03293  13
  -5  -5   1 3.09906 1.83525  10
  -5  -5   1 12.5075 13.9879   5
  -5   5   1 -0.1157 4.20649  17
  -5   5   1 6.18863 3.38314  16
  -4  -5   1 10.2680 8.00585   4
  -4  -5   1 33.2081 5.74567  13
  -4  -5   1 19.6360 5.12951   2
  -4  -5   1 25.9655 2.87780   9
  -4  -5   1 16.9015 3.91642  12
  -4  -5   1 19.7600 3.01619  10
  -4  -5   1 22.2974 4.03854  11
  -4  -5   1 9.34713 9.64312   5
  -4   5   1 2.03836 8.90857   7
  -4   5   1 28.9646 4.48347  14
  -4   5   1 18.2412 3.85598  16
  -4   5   1 23.5202 4.72479  17
  -4   5   1 20.3654 7.72492   6
  -4   5   1 17.7358 3.47941   2
  -4   5   1 26.1333 3.69398  15
  -4   5   1 25.7344 2.97779  10
  -4   5   1 21.6703 2.23105   9
  -3  -5   1 190.840 19.2458   2
  -3  -5   1 204.770 20.4560   3
  -3  -5   1 196.436 22.9618   5
  -3  -5   1 171.311 16.3516   9
  -3  -5   1 180.715 20.0676  13
  -3  -5   1 173.885 15.0936   8
  -3  -5   1 185.775 17.1220  10
  -3  -5   1 222.672 23.2067   4
  -3   5   1 169.297 16.7916  10
  -3   5   1 201.826 18.4924  14
  -3   5   1 199.614 18.6575   2
  -3   5   1 202.702 20.7275   6
  -3   5   1 185.140 18.8266  17
  -3   5   1 188.663 19.5382   3
  -3   5   1 173.275 16.2553   9
  -3   5   1 164.607 18.3686  16
  -3   5   1 205.232 23.4498   7
  -2  -5   1 328.429 34.6174   5
  -2  -5   1 305.593 32.4261   3
  -2  -5   1 286.887 30.6691   2
  -2  -5   1 316.930 33.5059   4
  -2   5   1 314.051 32.0345   6
  -2   5   1 317.219 32.1215   3
  -2   5   1 310.799 30.3703   2
  -2   5   1 330.898 34.2345   7
  -1  -5   1 87.1035 11.6493   4
  -1  -5   1 105.859 11.5057   2
  -1  -5   1 87.7914 9.49264   1
  -1  -5   1 95.4556 11.5254   3
   1  -5  -1 93.4624 10.0898   1
  -1   5   1 99.5475 11.2301   2
  -1   5   1 92.9410 11.1038   6
   1   5  -1 79.1103 9.24336   1
  -1   5   1 107.795 11.6310   3
  -1   5   1 81.3204 9.42634   1
   0  -5  -1 338.200 33.7962   2
   0  -5   1 355.797 35.5509   3
   0  -5  -1 344.117 28.9148   1
   0  -5   1 346.219 28.7876   1
   0  -5  -1 316.798 28.7017   1
   0  -5   1 348.507 33.8293   2
   0  -5   1 335.232 28.7133   1
   0  -5  -1 349.679 35.6168   3
   0   5   1 321.526 28.4291   1
   0   5   1 325.406 33.8557   6
   0   5  -1 351.900 28.6581   1
   0   5   1 338.878 28.6079   1
   0   5   1 362.531 33.6178   2
   0   5   1 377.828 35.4452   3
   0   5  -1 367.210 35.4585   3
   0   5  -1 365.776 33.6703   2
   0   5  -1 336.554 28.5828   1
   1  -5   1 37.3924 6.45568   1
  -1  -5  -1 51.8028 7.30090   1
  -1  -5  -1 60.6212 8.68061   3
  -1  -5  -1 48.3133 8.02439   4
  -1  -5  -1 67.1025 8.96816   2
  -1   5  -1 59.0837 7.96410   3
  -1   5  -1 61.8469 8.06476   6
  -1   5  -1 61.7168 7.92322   2
   1   5   1 41.0648 6.47365   1
  -1   5  -1 52.4603 6.74769   1
  -2  -5  -1 533.973 55.4318   4
  -2  -5  -1 532.906 54.0055   3
  -2  -5  -1 548.262 51.1432   2
  -2   5  -1 552.893 53.1796   6
  -2   5  -1 543.280 50.7906   2
  -2   5  -1 537.294 55.9512   7
  -2   5  -1 509.165 53.5340   3
  -3  -5  -1 32.2062 7.90957   4
  -3  -5  -1 47.1121 7.53903   2
  -3  -5  -1 40.7118 9.64755   5
  -3  -5  -1 38.3270 7.63042   3
  -3  -5  -1 40.3289 3.77749   8
  -3  -5  -1 57.2674 5.98187  18
  -3  -5  -1 28.3395 5.13543  12
  -3  -5  -1 46.2478 4.91613  10
  -3  -5  -1 39.1592 4.70298   9
  -3   5  -1 32.0451 6.04601   3
  -3   5  -1 42.9040 8.97450   7
  -3   5  -1 48.3668 5.56485  17
  -3   5  -1 28.8332 5.98372   2
  -3   5  -1 38.7037 7.69203   6
  -3   5  -1 48.7891 4.81478  10
  -3   5  -1 40.1798 4.12974   9
  -4  -5  -1 103.623 9.40510  10
  -4  -5  -1 93.9375 8.57571   9
  -4  -5  -1 72.9225 15.6697   5
  -4  -5  -1 95.2845 10.6996  12
  -4  -5  -1 66.8946 13.8704   4
  -4  -5  -1 86.2259 11.9270   3
  -4  -5  -1 105.951 11.9017  13
  -4  -5  -1 87.1222 11.2916   2
  -4  -5  -1 93.1425 11.0113  18
  -4  -5  -1 87.5347 10.5100  11
  -4   5  -1 88.5896 8.28180   9
  -4   5  -1 100.453 10.8192  17
  -4   5  -1 93.5461 10.0527   2
  -4   5  -1 89.5472 10.3749  16
  -4   5  -1 92.8239 10.5437   3
  -4   5  -1 97.1737 8.95480  10
  -4   5  -1 100.851 9.75748  15
  -4   5  -1 95.1479 15.3667   7
  -4   5  -1 72.6573 10.2327  18
  -5  -5  -1 4.63232 2.13045  10
  -5  -5  -1 1.10708 4.56972  13
  -5  -5  -1 1.65913 3.72386  12
  -5  -5  -1 8.96986 4.53694  18
  -5   5  -1 4.29460 1.39425  10
  -5   5  -1 5.75013 3.37635  16
  -5   5  -1 7.70535 3.65831  18
  -5   5  -1 10.9165 11.7167   7
  -5   5  -1 5.34719 4.15099  17
  -6  -5  -1 113.465 13.1221  12
  -6  -5  -1 106.003 12.8272  13
  -6   5  -1 113.403 12.2865  17
  -6   5  -1 110.184 12.1020  16
  -7  -5  -1 8.11986 2.98200  12
  -7   5  -1 7.54530 2.96593  17
  -7   5  -1 4.12966 2.00024  16
  -7  -6   1 4.15520 2.53949  12
  -7  -6   1 7.09811 4.27416  13
  -7   6   1 4.81180 3.07880  17
  -7   6   1 5.88032 1.76881  16
  -6  -6   1 22.2431 4.05818  12
  -6  -6   1 21.6492 5.88219  13
  -6   6   1 19.1982 4.67346  17
  -6   6   1 11.7018 3.68696  16
  -5  -6   1 10.0892 4.48633  12
  -5  -6   1 23.0776 6.13423  13
  -5  -6   1 20.9657 3.02535  10
  -5   6   1 18.7151 5.06329  17
  -5   6   1 19.4982 3.70953  16
  -4  -6   1 20.8328 4.27747  12
  -4  -6   1 22.4228 4.31017  11
  -4  -6   1 18.3555 5.77742  13
  -4  -6   1 11.7964 6.77268   2
  -4  -6   1 23.3620 9.73220   4
  -4  -6   1 17.6858 2.76275   9
  -4  -6   1 19.4720 3.23031  10
  -4  -6   1 18.5410 12.3406   5
  -4   6   1 16.6962 4.66589  17
  -4   6   1 6.00644 4.48446   3
  -4   6   1 25.1912 3.09025  10
  -4   6   1 18.2793 5.24067   2
  -4   6   1 19.9106 3.98873  16
  -4   6   1 26.1069 11.4855   7
  -3  -6   1 17.4605 2.15729   8
  -3  -6   1 12.0848 6.20128   2
  -3  -6   1 16.8972 2.73773   9
  -3  -6   1 16.9557 7.80420   4
  -3  -6   1 19.3147 8.79637   5
  -3  -6   1 6.75949 6.26702   3
  -3  -6   1 19.2899 3.54608  10
  -3  -6   1 16.4457 3.51820  12
  -3   6   1 21.5871 3.60222  16
  -3   6   1 20.1128 5.37287   2
  -3   6   1 13.7587 6.34336   6
  -3   6   1 16.4804 2.94485  15
  -3   6   1 17.5955 2.74238  10
  -3   6   1 10.1709 4.60149   3
  -3   6   1 20.4803 2.60774   9
  -3   6   1 22.7257 4.13159  17
  -3   6   1 26.7629 8.73571   7
  -2  -6   1 39.2490 4.51010   8
  -2  -6   1 48.6644 10.3002   5
  -2  -6   1 45.2034 8.89231   2
  -2  -6   1 34.9526 7.74137   3
  -2  -6   1 39.5680 8.51387   4
  -2   6   1 60.6918 8.53837   3
  -2   6   1 56.4178 8.36703   2
  -2   6   1 68.0934 10.8892   7
  -2   6   1 57.2712 8.48493   6
  -2   6   1 43.6368 4.22726   8
  -1  -6   1 49.0580 8.69965   3
  -1  -6   1 39.5002 8.22924   2
  -1   6   1 40.8264 6.97815   6
  -1   6   1 41.9389 7.23286   3
  -1   6   1 30.8600 6.93438   2
   0   6   1 5.62766 4.16437   2
   0   6   1 11.2271 5.05460   3
   0   6  -1 2.79126 4.08888   3
   0   6  -1 7.48954 4.70405   2
  -1  -6  -1 3.72852 4.96631   3
  -1  -6  -1 10.7674 4.92633   2
  -1  -6  -1 2.06994 5.04499   4
  -1   6  -1 5.52704 4.15505   2
  -1   6  -1 6.66001 4.78044   3
  -2  -6  -1 120.267 14.1544   2
  -2  -6  -1 102.776 14.9885   4
  -2  -6  -1 105.048 9.66946   8
  -2  -6  -1 127.515 14.7967   3
  -2   6  -1 128.083 13.3344   2
  -2   6  -1 101.476 14.8821   7
  -2   6  -1 121.449 13.6331   3
  -2   6  -1 106.798 9.44195   8
  -3  -6  -1 82.3713 9.72544  12
  -3  -6  -1 87.5719 15.7423   5
  -3  -6  -1 79.6487 13.5220   4
  -3  -6  -1 90.8796 13.2763   3
  -3  -6  -1 87.5716 8.20076   9
  -3  -6  -1 87.4741 8.82596  10
  -3  -6  -1 95.0191 12.8741   2
  -3  -6  -1 92.2409 7.36838   8
  -3   6  -1 82.8310 7.96252   9
  -3   6  -1 76.8524 6.90573   8
  -3   6  -1 78.3148 8.27116  10
  -3   6  -1 81.6808 9.24717  16
  -3   6  -1 109.196 14.7793   7
  -3   6  -1 75.9803 9.22742  17
  -3   6  -1 99.6391 11.3630   2
  -3   6  -1 91.0606 11.2806   3
  -3   6  -1 80.2220 8.69413  15
  -4  -6  -1 18.1369 3.20985  10
  -4  -6  -1 12.3270 4.08919  12
  -4  -6  -1 17.5176 2.49304   9
  -4  -6  -1 20.1957 5.82453  13
  -4  -6  -1 -2.4138 12.1719   5
  -4  -6  -1 17.8404 4.03416  11
  -4  -6  -1 11.5166 7.23858   2
  -4   6  -1 19.6931 3.01990  10
  -4   6  -1 9.29978 10.2814   7
  -4   6  -1 20.7844 3.89383  16
  -4   6  -1 18.4496 5.23561   2
  -4   6  -1 15.4383 4.30169  17
  -4   6  -1 15.3690 3.25733  15
  -4   6  -1 8.44683 4.75400   3
  -5  -6  -1 42.4821 7.90062  13
  -5  -6  -1 45.6512 6.92343  12
  -5  -6  -1 41.7778 5.12333  10
  -5   6  -1 41.5931 5.73074  16
  -5   6  -1 47.6904 6.79856  17
  -5   6  -1 42.9667 4.68844  10
  -6  -6  -1 10.2611 4.92333  13
  -6  -6  -1 12.4766 4.81072  12
  -6   6  -1 18.8405 4.48448  17
  -6   6  -1 16.9108 3.08049  16
  -7  -6  -1 9.76241 2.96498  12
  -7   6  -1 14.6571 2.89650  17
  -7   6  -1 9.77425 2.13157  16
  -6  -7   1 6.44152 3.65394  12
  -6  -7   1 12.6079 4.33790  13
  -6   7   1 7.59591 2.81984  16
  -6   7   1 13.7802 3.12301  17
  -5  -7   1 9.46369 3.03521  10
  -5  -7   1 4.50012 4.02461  12
  -5  -7   1 9.36623 5.91453  13
  -5   7   1 9.82089 2.78491  16
  -5   7   1 13.0108 3.80465  17
  -4  -7   1 58.2124 9.02004  13
  -4  -7   1 43.6683 6.73475  12
  -4  -7   1 26.6411 16.3144   5
  -4  -7   1 53.8392 5.75793   9
  -4  -7   1 52.3056 6.21401  10
  -4   7   1 34.8996 14.6858   7
  -4   7   1 52.8588 5.59590  10
  -4   7   1 46.1774 6.48805  16
  -4   7   1 49.5351 7.11089  17
  -3  -7   1 2.51147 2.91799  12
  -3  -7   1 5.46012 10.0036   5
  -3  -7   1 1.71971 6.10851   2
  -3  -7   1 1.36514 2.21550   9
  -3  -7   1 3.65489 1.80455   8
  -3  -7   1 2.65008 6.22188   3
  -3  -7   1 4.04156 2.71894  10
  -3   7   1 4.79566 2.69215  16
  -3   7   1 6.96940 8.75627   7
  -3   7   1 3.45167 1.65541   9
  -3   7   1 6.75476 3.50923  17
  -3   7   1 -3.0376 4.94416   3
  -3   7   1 3.41227 1.99684  10
  -2  -7   1 7.06719 7.37275   5
  -2  -7   1 8.36615 6.57506   2
  -2  -7   1 11.4934 3.36331  10
  -2  -7   1 12.7853 2.62739   8
  -2  -7   1 7.19772 2.83326   9
  -2  -7   1 2.17161 6.20570   3
  -2   7   1 7.00183 5.55214   6
  -2   7   1 11.1040 2.54714  10
  -2   7   1 11.3602 2.71621  16
  -2   7   1 11.1262 5.06434   3
  -2   7   1 15.4133 5.76255   2
  -2   7   1 11.2440 2.32487   9
  -2   7   1 6.39250 6.66310   7
  -2   7   1 9.84485 1.71976   8
  -1  -7   1 205.407 18.2299   8
  -1  -7   1 236.061 24.3367   2
  -1  -7   1 228.589 25.2216   3
  -1   7   1 206.166 17.9771   8
  -1   7   1 219.920 24.1903   3
  -1   7   1 228.556 23.3843   2
  -1  -7  -1 86.0138 8.41893   8
  -1  -7  -1 100.036 15.3898   3
  -1  -7  -1 64.1507 12.9391   2
  -1   7  -1 87.1190 12.4326   3
  -1   7  -1 94.2813 8.07781   8
  -1   7  -1 97.8726 12.7791   2
  -2  -7  -1 10.0810 7.94566   4
  -2  -7  -1 2.96152 1.98033   8
  -2  -7  -1 5.31367 2.65975   9
  -2  -7  -1 1.57981 8.00375   2
  -2  -7  -1 -4.6381 9.27214   5
  -2  -7  -1 3.85950 2.68552  12
  -2  -7  -1 -1.1079 7.73562   3
  -2   7  -1 0.69287 6.04472   7
  -2   7  -1 4.83735 2.19005  10
  -2   7  -1 -2.1591 5.51554   3
  -2   7  -1 3.31594 1.79059   9
  -2   7  -1 -3.4205 5.82595   2
  -2   7  -1 5.60128 1.38366   8
  -3  -7  -1 -6.3191 6.37232   3
  -3  -7  -1 2.37039 2.29511   9
  -3  -7  -1 4.34672 8.42542   4
  -3  -7  -1 9.67303 10.9599   5
  -3  -7  -1 2.06560 1.83217   8
  -3  -7  -1 8.45481 8.30886   2
  -3  -7  -1 5.61332 2.96125  10
  -3  -7  -1 1.64324 3.06168  12
  -3   7  -1 6.73834 3.44636  17
  -3   7  -1 6.86006 8.53471   7
  -3   7  -1 2.90203 2.20736  15
  -3   7  -1 -3.6211 6.30351   2
  -3   7  -1 3.43248 2.58445  16
  -3   7  -1 -0.4894 5.09668   3
  -3   7  -1 3.33515 0.87902   8
  -3   7  -1 4.97003 2.10344  10
  -3   7  -1 2.25139 1.62984   9
  -4  -7  -1 114.956 13.5407  12
  -4  -7  -1 121.067 15.3929  13
  -4  -7  -1 69.8236 21.9104   5
  -4  -7  -1 116.899 11.9616  10
  -4  -7  -1 131.039 11.3679   9
  -4   7  -1 91.3772 19.5240   7
  -4   7  -1 117.165 12.1277  15
  -4   7  -1 128.599 13.5478  17
  -4   7  -1 118.951 11.4763  10
  -4   7  -1 114.158 12.8088  16
  -5  -7  -1 37.4171 4.33323  10
  -5  -7  -1 17.7956 6.49213  13
  -5  -7  -1 24.6532 5.58548  12
  -5   7  -1 27.6854 5.39983  17
  -5   7  -1 29.5665 4.45336  16
  -6  -7  -1 33.8065 5.26285  12
  -6  -7  -1 33.0573 5.75553  13
  -6   7  -1 32.4249 4.47447  16
  -6   7  -1 39.7018 5.52497  17
  -6  -8   1 7.52034 3.78899  13
  -6  -8   1 4.62670 2.26256  12
  -6   8   1 4.39669 2.06112  16
  -6   8   1 7.58346 2.49021  17
  -5  -8   1 28.0010 7.63759  13
  -5  -8   1 37.1041 5.54498  12
  -5   8   1 32.6271 5.60720  17
  -5   8   1 32.4541 4.47296  16
  -4  -8   1 9.49706 2.43420   9
  -4  -8   1 3.48264 3.54578  12
  -4  -8   1 4.24320 5.84157  13
  -4  -8   1 7.46293 3.25227  10
  -4   8   1 12.6143 4.17506  17
  -4   8   1 2.89094 2.39219  16
  -3  -8   1 -1.0209 2.85008  10
  -3  -8   1 -1.3322 5.30790  13
  -3  -8   1 6.96274 13.0872   5
  -3  -8   1 -0.5787 1.79300   8
  -3  -8   1 1.10030 2.49081   9
  -3   8   1 0.68633 2.59050  16
  -3   8   1 0.94158 2.05282  10
  -3   8   1 -0.3775 1.64118   9
  -3   8   1 -6.8193 10.3785   7
  -3   8   1 -0.7658 3.41521  17
  -2  -8   1 2.75214 8.51533   3
  -2  -8   1 -9.5512 9.48152   5
  -2  -8   1 20.8362 3.71731   9
  -2  -8   1 17.7464 2.86903   8
  -2  -8   1 13.6168 8.99658   2
  -2   8   1 20.9610 8.94145   7
  -2   8   1 3.93423 6.38909   3
  -2   8   1 10.3604 7.04850   2
  -2   8   1 11.8226 2.93069  10
  -2   8   1 11.2601 2.65766   9
  -1  -8   1 12.9582 2.84882   8
  -1   8   1 19.7067 8.13815   2
  -1   8   1 13.2833 2.79353   9
  -1   8   1 13.5309 2.30139   8
  -1   8   1 5.93831 6.69979   3
   0   8   1 6.90862 2.15550   8
  -1  -8  -1 60.8465 6.46900   8
  -1   8  -1 58.6136 10.8510   2
  -1   8  -1 58.4980 5.74275   8
  -1   8  -1 74.8275 12.7685   7
  -1   8  -1 35.3443 9.95012   3
  -2  -8  -1 3.58786 9.72645   5
  -2  -8  -1 2.57541 2.81080   9
  -2  -8  -1 10.9925 9.54358   2
  -2  -8  -1 7.16853 8.96178   3
  -2  -8  -1 3.99259 2.26984   8
  -2   8  -1 -3.8257 7.66526   7
  -2   8  -1 2.66045 2.36582  10
  -2   8  -1 0.69487 2.06080   9
  -2   8  -1 -4.9722 5.81249   3
  -2   8  -1 1.29423 6.73298   2
  -3  -8  -1 -12.486 13.2836   5
  -3  -8  -1 -0.4375 3.26807  12
  -3  -8  -1 1.03326 3.24348  10
  -3  -8  -1 -0.8669 2.54053   9
  -3   8  -1 0.01345 2.19971   9
  -3   8  -1 0.98628 2.15187  10
  -3   8  -1 -2.8251 3.39785  17
  -3   8  -1 -7.6416 10.2115   7
  -4  -8  -1 2.76422 3.75569  12
  -4  -8  -1 3.71049 3.29403  10
  -4  -8  -1 6.49051 6.00621  13
  -4   8  -1 0.98321 3.80858  17
  -4   8  -1 2.61355 2.76988  16
  -4   8  -1 10.0040 2.34421  10
  -5  -8  -1 32.6942 5.80347  13
  -5  -8  -1 20.9510 4.95648  12
  -5   8  -1 19.5257 3.46444  16
  -5   8  -1 28.5275 4.31240  17
  -6  -8  -1 4.01997 2.10844  12
  -6  -8  -1 1.57542 2.93046  13
  -6   8  -1 0.26162 1.72696  16
  -6   8  -1 2.30221 2.38309  17
  -5  -9   1 9.81584 4.40416  13
  -5   9   1 12.5555 3.82481  17
  -5   9   1 5.24089 2.18446  16
  -4  -9   1 17.2713 3.76235  10
  -4  -9   1 19.0332 6.58070  13
  -4   9   1 11.0664 3.15507  16
  -4   9   1 17.9526 4.34551  17
  -3  -9   1 31.6922 7.56589  13
  -3  -9   1 33.9429 4.77771   9
  -3   9   1 31.7529 5.54718  17
  -3   9   1 37.0463 4.58981  10
  -2  -9   1 141.040 12.0640   8
  -2  -9   1 130.959 12.9066   9
  -2  -9   1 189.464 27.4264   5
  -2   9   1 130.146 13.1524  10
  -2   9   1 110.582 19.8465   7
  -1  -9   1 125.889 10.7461   8
  -1  -9   1 64.2995 17.9673   5
  -1   9   1 107.500 10.9440   9
  -1   9   1 178.373 21.0056   7
   0   9   1 16.4634 3.00871   8
   0   9  -1 14.5734 2.90588   8
  -1  -9  -1 66.4757 7.22789   8
  -1   9  -1 65.6594 6.48094   8
  -1   9  -1 60.6265 7.51530   9
  -1   9  -1 92.7399 15.7172   7
  -2  -9  -1 46.4842 17.3573   5
  -2  -9  -1 48.2971 5.92863   9
  -2   9  -1 36.1214 5.25077  10
  -2   9  -1 42.7744 5.06225   9
  -2   9  -1 41.8388 10.9390   7
  -3  -9  -1 83.7621 10.6738  13
  -3   9  -1 67.2740 7.84829  10
  -3   9  -1 71.9916 9.29657  17
  -4  -9  -1 83.0003 11.6469  13
  -4  -9  -1 72.3826 9.88297  12
  -4   9  -1 93.9202 10.1659  17
  -5  -9  -1 6.28171 3.87137  13
  -5  -9  -1 3.35140 3.36673  12
  -5   9  -1 5.38527 1.70247  16
  -5   9  -1 9.21593 2.90152  17
  -5 -10   1 -0.0597 4.80160  13
  -5  10   1 0.19232 2.71954  17
  -4 -10   1 1.44412 3.88041  13
  -4  10   1 2.19566 3.34493  17
  -3 -10   1 14.5174 5.22277  13
  -3 -10   1 16.2034 3.69483   9
  -3  10   1 21.5441 4.40897  17
  -1  10  -1 14.1242 3.58461   9
  -2  10  -1 55.1085 7.18217  17
  -3 -10  -1 7.62649 4.44684  13
  -3  10  -1 5.86888 2.86698  17
  -4 -10  -1 10.4687 4.30656  13
  -4  10  -1 11.4957 3.03560  17
  -5 -10  -1 1.52642 2.88058  13
  -5  10  -1 1.52917 2.02379  17
  -4 -11   1 16.0161 4.13820  13
  -4  11   1 15.2703 2.88264  17
  -3 -11   1 -0.4546 5.43580  13
  -3  11   1 6.82306 3.45609  17
  -2 -11   1 13.8477 5.82891  13
  -2  11   1 20.2123 3.37178  17
  -2  11   1 11.0465 1.28561   8
  -2  11  -1 6.00123 2.72016  17
  -3 -11  -1 3.63703 3.98835  13
  -3  11  -1 8.32915 3.48241  17
  -4 -11  -1 18.3155 5.48591  13
  -4  11  -1 35.8561 4.56862  17
  -3 -12   1 -3.3685 2.82767  13
  -3  12   1 0.98032 1.79793  17
  -2 -12   1 7.46875 5.01877  13
  -2  12   1 7.81079 2.60462  17
  -1  12   1 7.32516 2.55593  17
  -1  12  -1 26.5217 3.98673  17
  -2 -12  -1 1.42925 3.40543  13
  -2  12  -1 -0.9501 3.02414  17
  -3 -12  -1 6.69111 4.34975  13
  -3  12  -1 4.99361 1.97997  17
  -7   0   2 -0.1632 2.81441  14
  -7   0   2 7.11820 3.26559  13
  -7   0   2 2.25584 3.32315  17
  -7   0   2 3.54238 2.94150  12
  -7   0   2 4.35860 2.53060  18
  -6   0   2 88.0721 9.59719  13
  -6   0   2 47.8588 7.42866  14
  -6   0   2 63.6675 7.69439  11
  -6   0   2 61.0493 7.18349  15
  -6   0   2 73.5039 8.08873  12
  -6   0   2 49.0852 7.42497  18
  -6   0   2 73.9988 8.63681  17
  -6   0   2 61.2257 7.60143  16
  -5   0   2 27.9073 4.48136  14
  -5   0   2 19.8717 3.93756  16
  -5   0   2 27.0856 5.51632  13
  -5   0   2 28.2466 4.12598  11
  -5   0   2 25.4380 4.69282  17
  -5   0   2 31.3946 4.70777  12
  -5   0   2 22.9559 3.75098  15
  -5   0   2 23.4109 4.00092  18
  -5   0   2 21.2736 11.3344   5
  -4   0   2 374.294 40.3373   4
  -4   0   2 397.472 41.2447   7
  -4   0   2 433.020 41.7942   5
  -4   0   2 352.021 38.4861   6
  -3   0   2 133.285 14.7830   4
  -3   0   2 125.669 14.8010   7
  -3   0   2 117.428 14.0177   6
  -3   0   2 142.976 15.7299   5
  -2   0   2 1985.54 197.793   2
  -2   0   2 2248.00 207.238   6
  -2   0   2 2104.35 209.923   3
  -2   0   2 1896.83 209.922   3
  -2   0   2 2141.66 197.793   2
  -2   0   2 2492.94 217.312   7
  -2   0   2 2369.52 214.986   4
   1   0  -2 256.908 18.7348   1
  -1   0   2 203.632 23.9499   7
  -1   0   2 240.948 23.2808   3
   1   0  -2 263.805 18.7028   1
  -1   0   2 234.562 23.9702   4
  -1   0   2 222.188 23.2697   3
  -1   0   2 257.539 18.6856   1
  -1   0   2 195.508 23.0810   6
  -1   0   2 242.966 24.5690   5
  -1   0   2 237.391 22.0020   2
  -1   0   2 233.529 21.9845   2
  -1   0   2 255.405 18.7059   1
   0   0  -2 185.199 19.3244   3
   0   0   2 202.789 15.5894   1
   0   0  -2 212.073 15.5488   1
   0   0   2 200.327 15.5474   1
   0   0  -2 213.096 15.5834   1
   0   0   2 190.129 19.3675   3
   0   0  -2 185.752 18.2528   2
   0   0   2 186.529 19.8518   5
   0   0   2 188.818 18.2914   2
  -1   0  -2 504.098 48.3258   3
  -1   0  -2 450.492 48.3475   3
   1   0   2 511.486 38.7835   1
  -1   0  -2 498.505 45.6538   2
  -1   0  -2 499.082 49.5838   4
  -1   0  -2 505.665 38.7780   1
   1   0   2 533.895 38.8493   1
  -1   0  -2 494.388 38.7326   1
  -1   0  -2 470.466 45.6009   2
  -1   0  -2 489.660 50.1406   7
  -2   0  -2 9785.21 907.184   3
  -2   0  -2 9593.70 853.990   2
   2   0   2 9999.99 725.826   1
  -2   0  -2 8987.30 906.352   3
  -2   0  -2 8037.67 936.129   5
   2   0   2 9744.46 725.593   1
  -2   0  -2 8913.72 935.032   7
  -2   0  -2 9840.50 725.871   1
  -2   0  -2 9575.09 924.868   4
  -2   0  -2 9386.91 854.225   2
  -2   0  -2 9237.22 725.251   1
  -3   0  -2 434.316 44.3475   7
  -3   0  -2 376.862 43.3239   5
  -3   0  -2 464.252 43.5498   4
  -4   0  -2 1421.59 151.025   7
  -4   0  -2 1553.81 149.106   4
  -5   0  -2 24.5640 4.62980  17
  -5   0  -2 30.4927 4.31405  16
  -5   0  -2 24.7510 4.21555  12
  -5   0  -2 30.3390 10.7037   7
  -5   0  -2 17.9405 4.57516  18
  -5   0  -2 29.1780 4.15824  15
  -5   0  -2 15.5572 7.24920   4
  -5   0  -2 27.5002 4.28518  11
  -6   0  -2 302.563 29.5881  16
  -6   0  -2 303.420 29.5965  18
  -6   0  -2 278.110 30.0316  12
  -6   0  -2 310.246 30.1426  17
  -6   0  -2 294.795 28.2689  15
  -7   0  -2 -2.7920 3.78920  17
  -7   0  -2 -1.2585 4.17215  18
  -7  -1   2 14.3448 4.04572  18
  -7  -1   2 17.8425 4.95967  13
  -7  -1   2 15.1169 3.56677  12
  -7   1   2 11.1935 4.57033  13
  -7   1   2 6.15546 2.97863  12
  -7   1   2 13.9498 2.83656  14
  -7   1   2 6.89138 3.40112  16
  -7   1   2 8.20623 3.64670  17
  -6  -1   2 29.9722 5.01869  18
  -6  -1   2 21.4514 4.30114  11
  -6  -1   2 32.2134 5.99146  13
  -6  -1   2 22.4948 4.71336  17
  -6  -1   2 25.2619 4.57130  14
  -6  -1   2 30.5629 4.42170  12
  -6   1   2 31.2975 4.85123  14
  -6   1   2 19.6520 4.78410  17
  -6   1   2 22.4746 4.34595  12
  -6   1   2 29.2305 4.63471  16
  -6   1   2 27.2748 6.10640  13
  -6   1   2 30.1849 4.62059  18
  -6   1   2 25.3506 4.08363  11
  -5  -1   2 3.83993 2.20379  15
  -5  -1   2 9.56183 8.96017   5
  -5  -1   2 1.81106 2.88579  18
  -5  -1   2 1.87215 2.51490  11
  -5  -1   2 -2.1808 3.83702  13
  -5  -1   2 3.58186 3.06588  12
  -5  -1   2 0.67687 2.89899  14
  -5  -1   2 3.38910 7.90797   4
  -5  -1   2 5.07597 3.29197  17
  -5   1   2 -0.1885 2.88545  14
  -5   1   2 1.26313 3.84018  13
  -5   1   2 1.42980 2.66073  12
  -5   1   2 1.42946 2.59855  18
  -5   1   2 -1.2043 6.47824   6
  -5   1   2 -0.0085 2.61967  16
  -5   1   2 3.62555 2.48175  15
  -5   1   2 0.20657 2.21946  11
  -5   1   2 -0.0091 3.35239  17
  -4  -1   2 16.2703 5.73936   4
  -4  -1   2 31.0529 6.06412   6
  -4  -1   2 30.0053 7.46775   5
  -4   1   2 28.2670 6.07832   4
  -4   1   2 29.9679 8.23513   7
  -4   1   2 42.4536 8.41639   5
  -4   1   2 44.3991 7.47776   6
  -3  -1   2 55.4081 8.69530   5
  -3  -1   2 35.0680 6.66013   4
  -3  -1   2 33.6473 5.90434   6
  -3   1   2 45.1518 6.66664   6
  -3   1   2 55.8004 7.49576   7
  -3   1   2 41.7947 6.29134   4
  -3   1   2 56.1079 8.73378   5
  -2  -1   2 566.166 51.5709   2
  -2  -1   2 539.326 54.1178   6
  -2  -1   2 554.017 43.7668   1
  -2  -1   2 559.755 57.4837   5
  -2  -1   2 553.989 54.6670   3
  -2  -1   2 605.281 54.6690   3
   2  -1  -2 595.334 43.7131   1
  -2  -1   2 583.016 56.6196   4
  -2  -1   2 529.948 43.7909   1
  -2  -1   2 549.309 51.5214   2
   2  -1  -2 563.423 43.7519   1
  -2   1   2 580.551 51.4182   2
  -2   1   2 562.705 43.6716   1
  -2   1   2 513.838 56.9885   7
  -2   1   2 518.382 51.4670   2
  -2   1   2 579.535 54.5484   3
  -2   1   2 586.121 54.6354   6
   2   1  -2 604.497 43.8645   1
  -2   1   2 548.601 57.6062   5
  -2   1   2 518.165 43.7243   1
  -2   1   2 556.406 56.0934   4
   2   1  -2 598.699 43.8182   1
  -2   1   2 540.565 54.5911   3
  -1  -1   2 216.466 24.1479   5
  -1  -1   2 221.614 22.8960   3
   1  -1  -2 251.691 18.5079   1
  -1  -1   2 237.751 18.3973   1
  -1  -1   2 239.187 18.4178   1
  -1  -1   2 239.166 21.6886   2
  -1  -1   2 213.094 21.6247   2
  -1  -1   2 243.767 23.7847   4
  -1  -1   2 229.913 22.9125   3
   1  -1  -2 232.963 18.4915   1
  -1   1   2 210.724 23.6207   7
   1   1  -2 251.806 18.4688   1
  -1   1   2 232.784 22.9359   3
   1   1  -2 238.927 18.4683   1
  -1   1   2 214.702 21.6822   2
  -1   1   2 242.857 18.4030   1
  -1   1   2 226.419 22.9332   6
  -1   1   2 226.972 22.8985   3
  -1   1   2 230.866 18.4345   1
  -1   1   2 223.431 24.3712   5
  -1   1   2 240.115 21.6578   2
   0  -1  -2 0.84720 1.40714   1
   0  -1   2 1.55012 1.21696   1
   0  -1   2 0.77075 1.14246   1
   0  -1  -2 0.19787 1.65147   1
   0  -1   2 -0.1009 1.39495   2
   0  -1   2 1.50851 1.31002   3
   0  -1  -2 0.42727 1.42535   3
   0  -1  -2 1.46310 1.73620   2
   0   1  -2 -1.2833 1.20529   3
   0   1   2 1.09782 1.30672   1
   0   1   2 1.12062 1.53134   2
   0   1   2 -0.2795 1.36571   3
   0   1  -2 -2.3100 1.03153   1
   0   1   2 -0.8355 1.54756   1
   0   1  -2 0.78810 1.18686   1
   0   1  -2 -0.3795 1.39425   2
  -1  -1  -2 46.0660 7.14004   4
  -1  -1  -2 69.8136 5.76590   1
  -1  -1  -2 66.8574 5.69195   1
   1  -1   2 69.7367 5.54169   1
  -1  -1  -2 50.4353 6.40003   2
  -1  -1  -2 50.1141 6.61547   3
  -1  -1  -2 63.2564 6.93672   3
   1  -1   2 70.1097 5.66005   1
  -1  -1  -2 66.7266 6.72828   2
  -1  -1  -2 62.1268 7.51183   7
  -1   1  -2 51.9183 6.42268   3
  -1   1  -2 64.8592 6.30962   2
  -1   1  -2 64.4850 7.39468   7
   1   1   2 49.6865 6.74715   3
  -1   1  -2 65.4762 5.46101   1
  -1   1  -2 68.5038 5.48551   1
  -1   1  -2 60.5104 6.65901   3
   1   1   2 66.0693 5.80645   1
  -1   1  -2 55.9377 6.38289   2
   1   1   2 62.4449 5.68358   1
  -2  -1  -2 170.478 12.4876   1
   2  -1   2 166.273 12.2823   1
  -2  -1  -2 161.609 16.2186   5
  -2  -1  -2 129.531 12.2657   1
  -2  -1  -2 159.158 14.6841   2
  -2  -1  -2 123.435 14.4456   2
  -2  -1  -2 128.826 16.6052   4
  -2  -1  -2 171.934 15.4502   3
  -2  -1  -2 177.890 17.0714   7
  -2   1  -2 115.913 15.8819   4
   2   1   2 149.499 12.4581   1
  -2   1  -2 169.517 12.3240   1
  -2   1  -2 162.902 17.0143   7
  -2   1  -2 166.973 14.4776   2
  -2   1  -2 144.462 15.6963   6
   2   1   2 146.299 12.3341   1
  -2   1  -2 152.935 15.2168   3
  -2   1  -2 137.125 14.3456   2
  -2   1  -2 145.209 12.1847   1
  -2   1  -2 150.252 15.1204   3
  -3  -1  -2 168.385 13.9444   1
  -3  -1  -2 190.331 17.4000   3
  -3  -1  -2 186.908 17.3822   3
  -3  -1  -2 160.365 13.9665   1
  -3  -1  -2 191.352 16.4482   2
  -3  -1  -2 183.430 16.4635   2
  -3  -1  -2 195.168 20.2826   7
  -3  -1  -2 149.996 18.9950   5
  -3  -1  -2 197.278 19.7616   4
  -3   1  -2 188.770 20.1485   7
  -3   1  -2 199.679 18.7201   6
  -3   1  -2 171.246 18.9547   4
   3   1   2 165.672 13.9444   1
   3   1   2 148.913 13.9557   1
  -4  -1  -2 172.653 18.8445   4
  -4  -1  -2 155.246 19.5070   7
  -4   1  -2 147.309 18.0870   4
  -4   1  -2 151.593 19.2350   7
  -5  -1  -2 7.43277 2.94514  11
  -5  -1  -2 7.53672 3.09916  12
  -5  -1  -2 12.1501 7.25269   4
  -5  -1  -2 7.39747 3.62169  18
  -5  -1  -2 9.52657 2.86686  16
  -5  -1  -2 11.6669 3.57060  17
  -5   1  -2 8.81116 2.81748  11
  -5   1  -2 11.8726 3.16779  14
  -5   1  -2 10.9888 2.76278  15
  -5   1  -2 6.40678 3.75293  18
  -5   1  -2 7.02704 2.96169  16
  -5   1  -2 5.09725 8.22970   7
  -5   1  -2 7.05627 3.45792  17
  -6  -1  -2 66.8752 8.73951  16
  -6  -1  -2 67.4231 8.87969  17
  -6  -1  -2 82.7448 10.2055  18
  -6  -1  -2 78.4830 9.20506  12
  -6   1  -2 80.4203 9.07283  18
  -6   1  -2 72.8117 8.89858  16
  -6   1  -2 73.8807 8.77866  11
  -6   1  -2 86.1145 8.34148  15
  -6   1  -2 69.5559 9.60380  17
  -6   1  -2 40.6404 16.9149   7
  -7  -1  -2 6.22888 4.17430  17
  -7  -1  -2 8.08022 3.14841  12
  -7  -1  -2 5.06363 4.59366  18
  -7   1  -2 7.28112 3.30344  16
  -7   1  -2 8.32557 3.11898  17
  -7   1  -2 14.2538 3.48359  18
  -8   1  -2 19.6425 3.82633  18
  -8  -2   2 17.7598 2.80346  12
  -7  -2   2 6.73308 3.39048  13
  -7  -2   2 6.92385 3.23037  12
  -7   2   2 0.76927 3.41567  17
  -7   2   2 4.05128 3.12997  16
  -7   2   2 4.99128 2.28639  14
  -6  -2   2 4.21747 2.85889  18
  -6  -2   2 1.54247 3.14560  11
  -6  -2   2 9.97593 4.79847  13
  -6  -2   2 8.85617 3.70083  12
  -6   2   2 3.79116 3.59559  14
  -6   2   2 7.75417 4.84861  13
  -6   2   2 1.30589 2.33027  16
  -6   2   2 1.01729 3.86292  17
  -5  -2   2 14.8119 3.35146  11
  -5  -2   2 14.6215 3.87789  18
  -5  -2   2 18.5449 4.79621  13
  -5  -2   2 19.6071 9.19616   5
  -5  -2   2 10.5678 4.49818  17
  -5  -2   2 13.7503 3.03609  12
  -5  -2   2 12.5055 3.50261  14
  -5  -2   2 2.92486 7.49139   4
  -5   2   2 13.7259 4.17965  17
  -5   2   2 11.0276 3.05063  15
  -5   2   2 13.6725 3.20718  12
  -5   2   2 10.8946 3.12875  18
  -5   2   2 14.0795 4.69300  13
  -5   2   2 -2.0471 5.60593   6
  -5   2   2 23.5871 3.97617  14
  -5   2   2 14.9511 3.43214  16
  -4  -2   2 2.61054 4.81183   4
  -4  -2   2 2.69655 6.87327   5
  -4  -2   2 5.00383 2.56056  12
  -4   2   2 8.01398 4.62448   6
  -4   2   2 3.09835 6.96189   7
  -3  -2   2 132.920 12.0090   3
  -3  -2   2 121.604 14.2165   4
  -3  -2   2 100.196 9.62578   1
  -3  -2   2 116.476 11.3683   2
  -3  -2   2 109.851 9.67212   1
  -3  -2   2 132.962 11.4224   2
  -3  -2   2 136.681 15.3770   5
  -3  -2   2 95.5811 12.0397   6
  -3  -2   2 118.361 11.9182   3
   3   2  -2 107.152 9.67601   1
  -3   2   2 127.084 13.5742   6
  -3   2   2 122.934 14.3696   7
  -2  -2   2 11.5337 3.87849   4
   2  -2  -2 9.67915 2.28269   1
  -2  -2   2 7.01299 2.32541   2
   2  -2  -2 11.3335 2.10022   1
  -2  -2   2 11.8011 2.23054   1
  -2  -2   2 10.9531 2.50371   3
  -2  -2   2 13.4153 2.80641   2
  -2  -2   2 8.51040 4.40333   5
  -2  -2   2 11.4881 2.15181   1
  -2  -2   2 12.0466 2.32799   6
  -2  -2   2 14.6505 2.75650   3
  -2   2   2 13.2650 4.26755   7
  -2   2   2 10.8282 2.36210   3
  -2   2   2 13.2690 2.47344   2
  -2   2   2 10.8661 1.92190   1
  -2   2   2 10.3621 2.22430   1
  -2   2   2 9.75166 3.53574   6
  -2   2   2 8.68845 2.26050   2
   2   2  -2 10.6793 2.27812   1
  -2   2   2 10.5521 2.28815   3
   1  -2  -2 282.915 21.8722   1
  -1  -2   2 259.960 21.7378   1
  -1  -2   2 274.102 28.3323   5
  -1  -2   2 290.921 27.1013   3
  -1  -2   2 293.000 25.6828   2
   1  -2  -2 235.817 27.0441   3
  -1  -2   2 280.222 27.9042   4
   1   2  -2 256.644 27.0414   3
   1   2  -2 283.377 21.7887   1
  -1   2   2 276.832 21.6986   1
  -1   2   2 271.188 26.8158   6
  -1   2   2 267.643 21.7151   1
  -1   2   2 252.883 26.9815   3
   1   2  -2 296.726 21.8736   1
  -1   2   2 280.918 25.5474   2
  -1   2   2 279.215 27.0150   3
  -1   2   2 236.751 25.4755   2
   0  -2   2 222.803 18.7751   1
   0  -2  -2 236.236 19.0268   1
   0  -2  -2 233.222 22.3172   2
   0  -2  -2 221.042 23.5262   3
   0  -2  -2 214.587 23.5553   4
   0  -2   2 232.213 22.1718   2
   0  -2   2 233.403 18.7999   1
   0  -2   2 244.993 23.4185   3
   0  -2  -2 240.936 18.9595   1
   0   2  -2 252.143 18.8827   1
   0   2   2 249.742 18.9623   1
   0   2  -2 209.989 22.0463   2
   0   2   2 227.211 22.8079   6
   0   2  -2 234.745 18.7883   1
   0   2   2 237.017 18.8470   1
   0   2   2 234.499 22.1895   2
   0   2  -2 239.088 23.3859   3
   0   2   2 230.115 23.4813   3
   1  -2   2 144.825 15.5310   3
   1  -2   2 170.920 12.6500   1
  -1  -2  -2 146.571 12.5931   1
  -1  -2  -2 143.339 16.0942   4
  -1  -2  -2 153.566 12.8058   1
  -1  -2  -2 126.266 15.4235   3
  -1  -2  -2 145.946 15.7351   3
  -1  -2  -2 152.450 14.8773   2
   1  -2   2 163.811 12.6467   1
   1   2   2 164.211 12.7900   1
  -1   2  -2 162.877 15.4568   6
  -1   2  -2 156.566 15.4993   3
   1   2   2 129.481 14.7065   2
  -1   2  -2 146.030 16.2153   7
   1   2   2 140.575 15.6055   3
  -1   2  -2 158.843 14.7682   2
  -1   2  -2 153.633 12.5426   1
   1   2   2 159.861 12.6325   1
  -2  -2  -2 9.87187 3.30201   5
  -2  -2  -2 6.54855 2.78046   2
  -2  -2  -2 12.0594 3.13081   3
  -2  -2  -2 6.38726 2.54773   1
  -2  -2  -2 8.27706 4.47277   4
   2  -2   2 7.02060 1.91459   1
   2  -2   2 8.38923 1.95939   1
  -2   2  -2 10.6325 1.93921   1
  -2   2  -2 12.0456 2.56382   2
   2   2   2 8.30760 2.41853   1
  -2   2  -2 9.40241 1.90610   1
  -2   2  -2 8.43930 2.26856   3
   2   2   2 8.43323 2.69320   1
  -2   2  -2 11.0481 2.79143   4
  -2   2  -2 10.3433 2.33143   3
  -2   2  -2 8.11437 2.28009   2
  -2   2  -2 7.64128 4.07641   7
  -2   2  -2 8.51764 3.15040   6
  -3  -2  -2 108.320 11.6319   2
  -3  -2  -2 130.281 12.2358   3
  -3  -2  -2 108.523 11.9601   3
  -3  -2  -2 127.832 14.3482   4
  -3  -2  -2 127.949 13.6989   5
  -3  -2  -2 89.1013 9.82955   1
  -3  -2  -2 130.491 11.4873   2
   3  -2   2 99.8152 9.72310   1
  -3   2  -2 115.463 11.1534   2
  -3   2  -2 103.097 9.56401   1
  -3   2  -2 133.108 14.6192   7
  -3   2  -2 108.047 9.48493   1
  -3   2  -2 112.713 11.8790   3
  -3   2  -2 137.969 13.3414   6
   3   2   2 93.5821 9.67100   1
  -3   2  -2 109.927 12.8968   4
  -3   2  -2 130.656 11.3824   2
  -3   2  -2 134.902 11.7940   3
  -4  -2  -2 -1.5665 4.76136   4
  -4  -2  -2 -1.5439 2.67577  18
  -4  -2  -2 11.8412 6.27504   5
  -4  -2  -2 3.59920 2.35396  11
  -4   2  -2 3.07315 5.41287   7
  -4   2  -2 -0.7703 2.50723  16
  -5  -2  -2 23.4855 2.47305  10
  -5  -2  -2 24.3219 5.40859  13
  -5  -2  -2 24.1421 4.65264  17
  -5  -2  -2 23.8327 3.97147  16
  -5  -2  -2 30.0932 4.77684  18
  -5  -2  -2 23.2986 4.26585  12
  -5  -2  -2 22.7226 4.26683  11
  -5  -2  -2 12.9130 8.62799   4
  -5   2  -2 28.1685 4.40361  14
  -5   2  -2 23.6874 3.84339  15
  -5   2  -2 25.3013 4.34341  16
  -5   2  -2 18.6513 3.62432  11
  -5   2  -2 9.98133 9.76012   7
  -5   2  -2 26.3377 4.16124  17
  -5   2  -2 20.3947 4.60331  18
  -6  -2  -2 23.3887 5.34774  18
  -6  -2  -2 20.8551 4.44270  12
  -6  -2  -2 11.0405 4.61475  17
  -6   2  -2 20.3742 3.22864  15
  -6   2  -2 17.0255 4.75116  17
  -6   2  -2 15.2971 4.98073  18
  -6   2  -2 16.9721 4.07123  16
  -7  -2  -2 6.91298 3.41392  12
  -7  -2  -2 12.3917 4.72877  18
  -7   2  -2 11.8238 2.71732  16
  -7   2  -2 6.30306 4.39619  18
  -7   2  -2 13.6819 3.30700  17
  -7  -3   2 2.28718 3.17315  13
  -7  -3   2 0.85752 3.05914  12
  -7   3   2 2.62417 2.16561  16
  -7   3   2 -4.6640 3.42199  17
  -6  -3   2 40.8441 6.68945  13
  -6  -3   2 28.8287 5.04821  12
  -6  -3   2 31.9471 5.65529  18
  -6  -3   2 36.6950 5.43880  11
  -6   3   2 27.5690 4.99193  16
  -6   3   2 40.1045 5.37968  14
  -6   3   2 17.5855 5.32800  17
  -5  -3   2 25.9476 11.8071   5
  -5  -3   2 46.6932 6.02974  11
  -5  -3   2 53.7207 5.98522  18
  -5  -3   2 35.8908 4.19785  10
  -5  -3   2 48.7913 7.12048  13
  -5  -3   2 48.4170 6.16945  12
  -5  -3   2 39.2974 10.7718   4
  -5   3   2 40.5224 5.51650  16
  -5   3   2 41.6517 5.41650  15
  -5   3   2 42.9863 6.68151  17
  -5   3   2 48.7121 7.26437  13
  -5   3   2 42.3098 6.11439  14
  -4  -3   2 9.49951 1.74116  10
  -4  -3   2 14.7974 3.80729  13
  -4  -3   2 14.5494 3.52534  18
  -4  -3   2 1.24049 5.52615   4
  -4  -3   2 7.47670 6.69586   5
  -4  -3   2 13.3988 3.01098  12
  -4  -3   2 9.36468 2.76415  11
  -4   3   2 9.75765 4.25556  13
  -4   3   2 12.3901 1.59369  10
  -4   3   2 5.08954 4.97922   6
  -4   3   2 8.56286 2.57126  15
  -4   3   2 -0.0548 8.34363   7
  -4   3   2 6.43922 3.55791  17
  -4   3   2 12.2629 3.07959  14
  -4   3   2 10.3959 2.88492  16
  -3  -3   2 36.5825 5.08926   3
  -3  -3   2 21.0872 4.56706   2
  -3  -3   2 41.7690 7.31231   4
  -3  -3   2 45.2035 8.21608   5
  -3  -3   2 33.6905 4.75349   2
  -3   3   2 30.3723 4.51541   3
  -3   3   2 26.0818 4.06416   3
  -3   3   2 35.0556 4.14104   2
  -3   3   2 42.6080 8.23891   7
  -3   3   2 27.8454 4.57274   2
  -3   3   2 33.9354 6.42171   6
  -2  -3   2 18.4413 3.89063   3
  -2  -3   2 23.6075 3.44144   1
   2  -3  -2 22.9881 3.67394   1
  -2  -3   2 25.2705 4.16615   3
  -2  -3   2 13.8592 3.85573   2
  -2  -3   2 26.2467 3.43095   1
  -2  -3   2 31.7580 5.86743   5
  -2  -3   2 28.8673 5.72914   4
   2  -3  -2 22.4713 3.21407   1
  -2  -3   2 28.0899 4.28287   2
  -2   3   2 28.6708 5.10464   6
  -2   3   2 21.6593 3.68772   3
   2   3  -2 19.6447 3.36504   1
  -2   3   2 14.4780 3.61072   2
  -2   3   2 34.8856 4.03864   2
  -2   3   2 21.1566 3.76814   3
  -2   3   2 27.8801 3.35643   1
  -2   3   2 20.3261 3.22962   1
  -2   3   2 38.7524 6.30427   7
   1  -3  -2 67.9021 6.84496   1
  -1  -3   2 70.8868 6.44263   1
   1  -3  -2 66.3492 6.61445   1
  -1  -3   2 62.5990 6.44382   1
   1  -3  -2 53.7817 7.84294   3
  -1  -3   2 57.5076 8.39118   4
   1  -3  -2 50.2942 7.67862   2
  -1  -3   2 66.6150 8.08081   3
  -1  -3   2 64.0357 7.53265   2
  -1   3   2 59.9810 6.16276   1
   1   3  -2 60.2117 7.50001   2
  -1   3   2 63.5319 7.63368   3
  -1   3   2 71.9147 7.88390   6
  -1   3   2 70.5192 7.41599   2
   1   3  -2 75.6500 6.54010   1
   1   3  -2 75.4606 6.90501   1
  -1   3   2 73.9199 6.58066   1
   1   3  -2 61.5225 8.16810   3
  -1   3   2 51.1932 7.58765   3
   0  -3  -2 143.587 15.3854   2
   0  -3   2 155.798 16.0735   3
   0  -3  -2 159.707 13.3744   1
   0  -3  -2 136.716 15.7183   4
   0  -3   2 149.380 15.2702   2
   0  -3  -2 154.184 13.0966   1
   0  -3  -2 149.282 16.1281   3
   0  -3   2 162.719 12.9300   1
   0  -3   2 151.373 13.0220   1
   0   3   2 148.472 15.2623   6
   0   3  -2 168.982 16.1854   3
   0   3  -2 159.964 12.8679   1
   0   3   2 132.640 15.0475   2
   0   3  -2 166.209 13.2077   1
   0   3   2 151.054 12.8934   1
   0   3  -2 144.154 15.0955   2
   0   3   2 149.569 15.8764   3
   0   3   2 150.989 13.0956   1
  -1  -3  -2 222.693 17.9996   1
   1  -3   2 218.255 17.9404   1
  -1  -3  -2 226.805 21.2527   2
   1  -3   2 188.087 20.9437   2
   1  -3   2 222.180 17.8745   1
  -1  -3  -2 221.076 22.3155   3
  -1  -3  -2 226.039 22.7706   4
   1  -3   2 200.861 22.1834   3
  -1  -3  -2 215.898 18.1318   1
   1   3   2 231.721 17.9654   1
   1   3   2 221.673 17.9841   1
  -1   3  -2 215.730 17.7696   1
  -1   3  -2 229.006 21.9574   6
   1   3   2 205.920 22.1326   3
  -1   3  -2 219.364 22.1536   3
   1   3   2 182.274 20.8855   2
  -1   3  -2 235.860 20.9610   2
  -1   3  -2 210.671 22.9405   7
  -1   3  -2 220.714 17.8912   1
  -2  -3  -2 119.150 13.3134   4
  -2  -3  -2 133.095 12.8281   3
   2  -3   2 113.924 9.88741   1
  -2  -3  -2 109.124 10.0628   1
   2  -3   2 104.245 9.83564   1
  -2  -3  -2 123.565 11.9207   2
  -2  -3  -2 111.756 10.0316   1
   2   3   2 113.501 10.0592   1
  -2   3  -2 131.976 11.7181   2
  -2   3  -2 123.238 12.0471   3
  -2   3  -2 106.864 9.75546   1
  -2   3  -2 103.482 11.9513   3
  -2   3  -2 87.6469 11.3821   2
  -2   3  -2 119.904 13.4855   7
  -2   3  -2 85.2377 11.6044   4
  -2   3  -2 122.787 12.7676   6
  -2   3  -2 107.863 9.66677   1
   2   3   2 117.465 10.1927   1
  -3  -3  -2 18.2884 5.36914   4
  -3  -3  -2 17.5613 6.35500   5
  -3  -3  -2 20.5016 4.22158   3
  -3  -3  -2 16.0749 3.46742   2
  -3   3  -2 12.8138 3.00247   3
  -3   3  -2 15.0094 3.11144   3
  -3   3  -2 16.8456 5.86572   7
  -3   3  -2 20.0096 3.43140   2
  -3   3  -2 15.6467 4.59530   6
  -3   3  -2 15.0918 3.18218   2
  -4  -3  -2 14.2310 3.55428  18
  -4  -3  -2 14.0794 3.11380  11
  -4  -3  -2 11.2615 7.59218   5
  -4  -3  -2 9.20524 2.45333   2
  -4  -3  -2 15.4838 3.45397  12
  -4  -3  -2 12.8807 2.49399   2
  -4  -3  -2 11.7111 2.41734   3
  -4  -3  -2 19.3435 2.41505  10
  -4  -3  -2 12.1163 1.55355   9
  -4  -3  -2 19.9490 3.90970  17
  -4  -3  -2 10.3961 2.38869   3
  -4  -3  -2 9.95321 6.16397   4
  -4   3  -2 10.9101 3.59785  18
  -4   3  -2 19.1598 8.36719   7
  -4   3  -2 15.3043 3.35178  14
  -4   3  -2 17.8727 2.91677  15
  -4   3  -2 16.9812 3.34705  16
  -4   3  -2 20.1803 3.56004  17
  -4   3  -2 14.4288 2.03633  10
  -5  -3  -2 25.2205 4.53081  11
  -5  -3  -2 23.0476 4.90890  17
  -5  -3  -2 25.6567 4.56832  12
  -5  -3  -2 6.55730 8.79848   4
  -5  -3  -2 30.8209 4.38247  18
  -5  -3  -2 25.8137 2.95303  10
  -5  -3  -2 22.9810 4.98095  13
  -5   3  -2 27.8550 4.04145  15
  -5   3  -2 25.0059 3.88383  16
  -5   3  -2 24.6064 4.79673  18
  -5   3  -2 17.7087 2.46579  10
  -5   3  -2 25.3105 4.41908  14
  -5   3  -2 25.5755 4.71203  17
  -5   3  -2 21.6277 9.84907   7
  -6  -3  -2 25.7183 4.77516  12
  -6  -3  -2 15.6939 4.20787  18
  -6   3  -2 22.3242 4.01135  17
  -6   3  -2 12.0406 3.87833  16
  -6   3  -2 15.0380 3.51113  15
  -6   3  -2 17.4590 4.76879  18
  -7  -3  -2 19.8164 4.22039  12
  -7  -3  -2 17.5226 3.87564  18
  -7   3  -2 17.1694 4.42647  17
  -7   3  -2 12.6074 3.34652  18
  -7   3  -2 13.0169 2.90224  16
  -7  -4   2 4.77311 2.47158  12
  -7  -4   2 0.56558 4.59797  13
  -7   4   2 -0.7605 2.76538  16
  -7   4   2 4.68120 2.56318  17
  -6  -4   2 13.2864 5.16133  13
  -6  -4   2 0.65160 3.22445  12
  -6   4   2 11.9336 2.98235  16
  -6   4   2 16.4075 4.05779  14
  -6   4   2 3.62345 3.98338  17
  -5  -4   2 54.6648 7.60102  11
  -5  -4   2 58.0773 5.76383  10
  -5  -4   2 66.6117 7.81552  18
  -5  -4   2 31.5086 13.3533   5
  -5  -4   2 73.1817 9.28921  13
  -5  -4   2 57.7671 7.85461  12
  -5   4   2 46.6482 7.13982  14
  -5   4   2 49.5043 7.17229  16
  -5   4   2 59.3470 7.92111  17
  -4  -4   2 49.2693 11.5271   5
  -4  -4   2 53.9290 7.09939  12
  -4  -4   2 42.8756 6.48554   2
  -4  -4   2 70.1036 7.83490  18
  -4  -4   2 53.7714 5.59181  10
  -4  -4   2 54.1886 7.10448  11
  -4  -4   2 53.4576 5.16969   9
  -4  -4   2 63.9030 8.22811  13
  -4  -4   2 50.0107 10.4298   4
  -4   4   2 53.0011 5.48720  10
  -4   4   2 65.1700 7.00963  16
  -4   4   2 55.7419 12.1054   7
  -4   4   2 62.3147 7.47987  17
  -4   4   2 53.1474 7.21349  14
  -4   4   2 62.8352 10.1366   6
  -4   4   2 57.6792 6.51835  15
  -3  -4   2 119.877 15.4987   4
  -3  -4   2 113.266 15.8293   5
  -3  -4   2 119.814 12.9666   2
  -3  -4   2 127.095 14.0229   3
  -3   4   2 119.102 13.3277   3
  -3   4   2 122.637 14.6765   6
  -3   4   2 127.949 12.6479   2
  -3   4   2 119.541 16.8731   7
  -2  -4   2 328.718 37.9705   5
  -2  -4   2 382.656 37.7637   4
  -2  -4   2 364.087 34.3809   2
  -2  -4   2 367.949 36.1892   3
  -2   4   2 359.455 34.0386   2
  -2   4   2 357.203 37.8478   7
  -2   4   2 352.531 36.0000   6
  -2   4   2 349.600 35.9016   3
   1  -4  -2 328.251 27.4573   1
   1  -4  -2 344.470 27.6842   1
  -1  -4   2 348.368 34.0252   3
  -1  -4   2 298.622 27.2091   1
  -1  -4   2 306.968 27.3400   1
  -1  -4   2 360.211 32.4603   2
   1   4  -2 322.664 33.9657   3
   1   4  -2 353.035 27.5089   1
  -1   4   2 357.490 33.9037   3
   1   4  -2 293.483 32.2343   2
  -1   4   2 335.394 27.2295   1
  -1   4   2 350.076 32.0694   2
  -1   4   2 372.146 33.5508   6
   1   4  -2 334.572 27.4611   1
  -1   4   2 323.925 27.2336   1
   0  -4  -2 16.7033 4.13084   1
   0  -4  -2 22.6625 4.81932   2
   0  -4  -2 20.6885 3.87086   1
   0  -4   2 13.4614 3.16722   1
   0  -4   2 18.6280 4.86768   2
   0  -4   2 22.5366 3.95717   1
   0  -4   2 15.8886 4.14125   3
   0  -4  -2 11.0071 3.14715   4
   0  -4  -2 22.8177 5.28461   3
   0   4   2 17.2219 3.54725   1
   0   4  -2 19.6888 4.40756   3
   0   4   2 21.3928 3.61725   6
   0   4   2 24.6228 3.62874   1
   0   4  -2 13.6866 3.56243   1
   0   4  -2 22.6650 4.99391   2
   0   4   2 23.1312 4.74883   3
   0   4   2 23.1055 4.36565   2
   0   4  -2 21.7519 3.65307   1
  -1  -4  -2 179.276 19.1709   3
   1  -4   2 168.239 15.2786   1
   1  -4   2 177.518 15.4041   1
  -1  -4  -2 167.901 15.4832   1
  -1  -4  -2 179.930 19.4008   4
  -1  -4  -2 170.121 15.4371   1
  -1  -4  -2 188.582 18.4064   2
  -1   4  -2 202.785 18.9722   3
  -1   4  -2 200.594 19.8291   7
   1   4   2 175.366 18.9793   3
  -1   4  -2 176.921 15.3982   1
   1   4   2 168.282 15.3489   1
   1   4   2 147.258 17.8574   2
  -1   4  -2 190.924 17.9576   2
   1   4   2 180.596 15.5654   1
  -1   4  -2 181.989 15.2464   1
  -2  -4  -2 81.3465 10.1959   3
  -2  -4  -2 72.1530 8.95215   2
  -2  -4  -2 62.6095 10.0968   4
  -2  -4  -2 47.5174 7.52655   1
  -2   4  -2 88.6183 9.79448   6
  -2   4  -2 87.6316 8.87426   2
  -2   4  -2 88.0007 10.7565   7
  -3  -4  -2 107.570 15.0197   5
  -3  -4  -2 77.9579 12.9383   4
  -3  -4  -2 91.9065 11.8862   3
  -3  -4  -2 90.9040 10.8890   2
  -3   4  -2 97.4483 10.9613   3
  -3   4  -2 98.3675 10.6173   2
  -3   4  -2 104.949 13.4183   7
  -3   4  -2 96.8214 12.0352   6
  -4  -4  -2 173.946 16.3176   2
  -4  -4  -2 160.854 16.6229  11
  -4  -4  -2 160.742 16.6198  18
  -4  -4  -2 143.934 21.0167   5
  -4  -4  -2 151.509 17.6689  13
  -4  -4  -2 157.790 14.0761   9
  -4  -4  -2 166.112 16.8567  12
  -4  -4  -2 145.988 16.8397   3
  -4  -4  -2 162.707 14.7882  10
  -4   4  -2 155.027 14.5735  10
  -4   4  -2 162.152 16.6382  17
  -4   4  -2 167.688 15.6135  15
  -4   4  -2 155.460 20.4864   7
  -4   4  -2 167.356 16.4246  16
  -4   4  -2 137.936 16.4430  18
  -5  -4  -2 222.551 22.0421  18
  -5  -4  -2 196.683 23.1823  13
  -5  -4  -2 220.117 19.5148  10
  -5  -4  -2 190.803 27.3250   4
  -5  -4  -2 217.588 22.1251  12
  -5   4  -2 207.573 21.7078  18
  -5   4  -2 236.182 22.1557  17
  -5   4  -2 229.494 21.7923  16
  -5   4  -2 209.515 20.5800  15
  -5   4  -2 173.237 27.3157   7
  -5   4  -2 203.007 19.2921  10
  -6  -4  -2 54.3450 8.28004  13
  -6  -4  -2 53.6070 8.02450  12
  -6  -4  -2 57.0028 8.32876  18
  -6   4  -2 69.7798 8.63780  17
  -6   4  -2 64.5064 7.21341  16
  -6   4  -2 62.2630 8.15050  18
  -7  -4  -2 -3.7058 2.45583  12
  -7   4  -2 2.61536 2.80042  17
  -7   4  -2 2.03152 2.68541  16
  -7  -5   2 0.08947 3.17486  12
  -7  -5   2 5.73851 4.79932  13
  -7   5   2 0.47150 2.39394  17
  -7   5   2 2.05784 1.94815  16
  -6  -5   2 -0.9705 1.98549  12
  -6  -5   2 8.38994 5.19546  13
  -6   5   2 -2.8394 3.71367  17
  -6   5   2 1.84669 2.28817  16
  -5  -5   2 26.4059 4.73512  11
  -5  -5   2 23.4398 3.24733  10
  -5  -5   2 19.0899 4.81193  12
  -5  -5   2 27.6170 15.0717   5
  -5  -5   2 27.7818 6.37584  13
  -5   5   2 28.0864 4.87464  16
  -5   5   2 27.1093 5.70366  17
  -5   5   2 28.2628 5.08335  14
  -4  -5   2 -1.8357 2.68757  11
  -4  -5   2 0.46307 7.67508   4
  -4  -5   2 4.01310 4.22688   2
  -4  -5   2 1.69544 1.22132   9
  -4  -5   2 4.44572 2.89748  12
  -4  -5   2 1.42208 1.62391  10
  -4  -5   2 2.06714 4.11340  13
  -4  -5   2 -3.9998 8.43074   5
  -4   5   2 14.0261 10.2094   7
  -4   5   2 0.00405 2.19494  15
  -4   5   2 1.26763 2.72956  16
  -4   5   2 0.81384 7.43972   6
  -4   5   2 2.24300 1.32419  10
  -4   5   2 -1.6407 3.75804  17
  -4   5   2 0.36533 2.05162  14
  -3  -5   2 42.8885 10.0378   5
  -3  -5   2 31.6736 6.83693   3
  -3  -5   2 42.5860 8.78856   4
  -3  -5   2 36.5257 4.70601  10
  -3  -5   2 34.6568 3.67255   8
  -3  -5   2 41.1458 4.55430   9
  -3  -5   2 40.4702 6.16265  13
  -3  -5   2 46.6720 7.06936   2
  -3   5   2 44.8466 8.99329   6
  -3   5   2 43.5202 6.33329   2
  -3   5   2 40.2515 5.36282  16
  -3   5   2 39.2913 5.32746  14
  -3   5   2 40.6940 4.48749  10
  -3   5   2 39.0807 6.19830   3
  -3   5   2 40.6946 4.21048   9
  -3   5   2 32.6947 8.96677   7
  -3   5   2 47.1116 5.77269  17
  -2  -5   2 17.1066 4.82949   3
  -2  -5   2 21.3273 6.00641   4
  -2  -5   2 22.2698 5.54658   2
  -2  -5   2 20.0950 6.57329   5
  -2   5   2 17.5605 4.55453   2
  -2   5   2 16.9857 7.03851   7
  -2   5   2 17.4393 4.64607   3
  -2   5   2 24.6701 5.78193   6
  -1  -5   2 99.3950 11.2652   3
  -1  -5   2 82.8311 10.7973   2
  -1  -5   2 60.5469 8.66292   1
  -1   5   2 84.9927 10.6431   3
  -1   5   2 86.7624 9.22723   1
  -1   5   2 92.3416 10.4370   6
  -1   5   2 107.912 11.0947   2
   0  -5  -2 9.01550 4.49051   3
   0  -5  -2 9.62998 3.55902   1
   0  -5  -2 10.0627 4.18315   2
   0  -5   2 7.87886 3.90063   1
   0  -5   2 2.90303 2.91531   1
   0  -5   2 9.23464 4.16682   2
   0  -5  -2 3.53169 4.12757   1
   0  -5   2 4.26157 4.57740   3
   0   5   2 4.14287 2.78602   1
   0   5  -2 2.63184 2.86804   1
   0   5   2 4.15351 4.24676   2
   0   5   2 1.28307 3.34119   1
   0   5  -2 9.84519 3.89950   2
   0   5   2 8.38505 3.64019   3
   0   5   2 4.63012 2.67489   6
  -1  -5  -2 289.338 29.5901   4
  -1  -5  -2 308.013 28.4336   2
  -1  -5  -2 261.819 23.9733   1
  -1  -5  -2 323.865 29.9225   3
   1  -5   2 240.289 23.7062   1
   1   5   2 247.836 23.5459   1
  -1   5  -2 268.166 23.4200   1
  -1   5  -2 302.313 27.6773   2
  -2  -5  -2 40.1089 6.84187   3
  -2  -5  -2 24.8326 7.05859   4
  -2  -5  -2 32.6325 6.08384   2
  -2   5  -2 34.1937 6.07098   2
  -2   5  -2 36.8921 7.42542   7
  -2   5  -2 22.2022 5.63633   3
  -3  -5  -2 107.539 12.9135   3
  -3  -5  -2 102.239 9.57756   9
  -3  -5  -2 105.240 8.57259   8
  -3  -5  -2 83.8449 10.9401  18
  -3  -5  -2 93.4711 14.2020   4
  -3  -5  -2 94.3315 9.95100  10
  -3  -5  -2 102.433 11.1774  12
  -3  -5  -2 118.370 12.9169   2
  -3  -5  -2 124.373 16.6156   5
  -3   5  -2 96.3496 10.9687  17
  -3   5  -2 96.9240 9.23588   9
  -3   5  -2 95.6968 10.1615  15
  -3   5  -2 109.606 12.2901   3
  -3   5  -2 107.606 11.7186   2
  -3   5  -2 102.177 9.62106  10
  -3   5  -2 96.9336 14.3313   7
  -4  -5  -2 5.26894 3.25945  12
  -4  -5  -2 4.43900 4.37760   2
  -4  -5  -2 3.09636 1.54176   9
  -4  -5  -2 4.22545 4.13730  13
  -4  -5  -2 6.80954 3.16086  11
  -4  -5  -2 4.34061 11.4242   5
  -4  -5  -2 2.77723 7.75671   4
  -4  -5  -2 3.71009 2.08858  10
  -4  -5  -2 -0.8181 3.57739  18
  -4  -5  -2 -0.5060 5.08014   3
  -4   5  -2 3.99951 1.86705  10
  -4   5  -2 2.92387 7.45767   7
  -4   5  -2 2.97723 3.74623  18
  -4   5  -2 -0.1471 2.71855  16
  -4   5  -2 6.07471 3.50874   3
  -4   5  -2 3.77090 3.09801  17
  -4   5  -2 1.13926 1.06929   9
  -4   5  -2 7.29564 2.45296  15
  -4   5  -2 4.08497 3.65485   2
  -5  -5  -2 60.8261 6.76156  10
  -5  -5  -2 63.0771 8.95346  13
  -5  -5  -2 71.0535 8.51401  18
  -5  -5  -2 84.4674 9.03716  12
  -5   5  -2 65.7453 7.58368  15
  -5   5  -2 64.2947 7.95377  18
  -5   5  -2 64.8643 8.07517  16
  -5   5  -2 56.4194 6.24843  10
  -5   5  -2 67.9188 8.83032  17
  -5   5  -2 5.63598 13.3702   7
  -6  -5  -2 3.47210 4.13707  13
  -6  -5  -2 -2.5325 4.13689  12
  -6   5  -2 4.59109 3.91651  17
  -6   5  -2 0.01236 3.57457  18
  -6   5  -2 3.01545 2.17510  16
  -7  -5  -2 6.01140 3.00728  12
  -7   5  -2 1.90905 2.50106  16
  -7   5  -2 10.2893 2.98668  17
  -7  -6   2 8.34876 3.48740  12
  -7  -6   2 9.73622 4.65035  13
  -7   6   2 9.72466 2.17205  16
  -7   6   2 11.0882 2.58030  17
  -6  -6   2 7.13323 5.50018  13
  -6  -6   2 1.92649 3.47278  12
  -6   6   2 0.63022 3.56639  17
  -6   6   2 4.52697 3.16285  16
  -5  -6   2 19.8793 3.83205  12
  -5  -6   2 13.4655 2.60942  10
  -5  -6   2 12.0688 4.64238  13
  -5   6   2 18.0859 4.07113  16
  -5   6   2 13.0313 4.93579  17
  -4  -6   2 85.5714 8.25189  10
  -4  -6   2 80.3166 9.51329  11
  -4  -6   2 82.6223 7.71166   9
  -4  -6   2 51.9772 15.2065   5
  -4  -6   2 98.9580 11.4878  13
  -4  -6   2 45.8393 10.5024   2
  -4  -6   2 62.2422 9.44304  12
  -4   6   2 84.7734 7.83843  10
  -4   6   2 59.8794 15.6860   7
  -4   6   2 96.8654 10.4398  17
  -4   6   2 74.8374 9.57223   2
  -4   6   2 76.8052 9.29964  16
  -3  -6   2 188.971 23.1974   5
  -3  -6   2 196.824 19.7751  13
  -3  -6   2 181.205 16.0296   9
  -3  -6   2 159.582 18.2170  12
  -3  -6   2 181.721 14.6462   8
  -3  -6   2 175.579 20.4868   3
  -3  -6   2 179.840 16.5663  10
  -3  -6   2 139.921 17.9373  11
  -3  -6   2 184.279 19.7185   2
  -3   6   2 210.419 18.9856   2
  -3   6   2 183.972 20.5681   6
  -3   6   2 177.004 15.7129   9
  -3   6   2 176.203 17.8438  16
  -3   6   2 173.416 18.4263  17
  -3   6   2 176.211 19.4589   3
  -3   6   2 167.538 16.9989  15
  -3   6   2 189.693 22.9943   7
  -3   6   2 171.035 16.2950  10
  -2  -6   2 140.484 16.4524   3
  -2  -6   2 126.443 10.9255   8
  -2  -6   2 135.570 15.8937   2
  -2  -6   2 142.702 17.5268   5
  -2   6   2 120.507 10.7136   8
  -2   6   2 129.768 15.1859   6
  -2   6   2 138.612 15.7099   3
  -2   6   2 144.796 17.0459   7
  -2   6   2 135.893 14.6077   2
  -2   6   2 116.141 11.6587   9
  -1  -6   2 19.3514 5.87741   2
  -1  -6   2 17.9480 5.83895   3
  -1   6   2 15.2656 4.99913   6
  -1   6   2 28.7099 6.40908   2
  -1   6   2 23.7483 5.48528   3
   0   6  -2 82.5043 11.4272   3
   0   6   2 76.0538 11.0434   2
   0   6   2 76.9930 10.8945   3
   0   6  -2 72.5449 10.4116   2
  -1  -6  -2 71.8912 11.5164   4
  -1  -6  -2 95.6624 12.2668   2
  -1  -6  -2 92.2358 13.0391   3
  -1   6  -2 81.3527 11.0785   3
  -1   6  -2 91.7001 12.6821   7
  -1   6  -2 79.5909 11.0189   2
  -2  -6  -2 76.7530 7.63390   8
  -2  -6  -2 87.6411 11.9393   2
  -2  -6  -2 102.300 13.6775   3
  -2  -6  -2 74.0927 12.1142   4
  -2   6  -2 89.7721 11.7171   2
  -2   6  -2 103.987 13.4808   7
  -2   6  -2 76.4170 8.04465   9
  -2   6  -2 87.3771 7.45056   8
  -2   6  -2 106.741 12.1470   3
  -3  -6  -2 34.1842 4.37820   9
  -3  -6  -2 34.7303 9.24719   4
  -3  -6  -2 29.7255 5.33336  12
  -3  -6  -2 20.2093 7.07415   2
  -3  -6  -2 41.4705 11.4727   5
  -3  -6  -2 34.0303 3.97720   8
  -3  -6  -2 47.6419 9.18329   3
  -3  -6  -2 41.8669 5.02585  10
  -3   6  -2 43.9839 5.49437  17
  -3   6  -2 48.4112 5.02433  10
  -3   6  -2 41.0216 4.21516   9
  -3   6  -2 32.4841 5.41763  18
  -3   6  -2 39.7444 3.35032   8
  -3   6  -2 35.3311 6.69612   2
  -3   6  -2 33.2873 4.98594  16
  -3   6  -2 43.6808 10.2115   7
  -3   6  -2 35.2810 6.88150   3
  -3   6  -2 40.9379 4.90979  15
  -4  -6  -2 233.001 26.4970  13
  -4  -6  -2 296.546 35.6866   5
  -4  -6  -2 273.360 21.6581   9
  -4  -6  -2 241.438 25.0751  12
  -4  -6  -2 242.591 22.4429  10
  -4  -6  -2 249.696 25.4564   2
  -4  -6  -2 197.340 26.0635   3
  -4   6  -2 245.551 22.1567  10
  -4   6  -2 229.264 24.0658  18
  -4   6  -2 241.246 30.0853   7
  -4   6  -2 258.133 23.2512  15
  -4   6  -2 213.219 24.9836   3
  -4   6  -2 249.742 24.3065  16
  -4   6  -2 225.524 23.8319   2
  -4   6  -2 233.340 24.6959  17
  -5  -6  -2 22.5420 5.71295  13
  -5  -6  -2 16.3785 4.77493  12
  -5  -6  -2 21.7516 3.17954  10
  -5   6  -2 10.5165 3.64835  16
  -5   6  -2 12.4409 4.51759  17
  -5   6  -2 15.9187 2.39061  10
  -6  -6  -2 23.4118 5.29221  12
  -6  -6  -2 12.4961 4.86601  13
  -6   6  -2 10.9359 3.34554  16
  -6   6  -2 25.7997 4.78268  17
  -7  -6  -2 9.08826 2.91067  12
  -7   6  -2 6.00238 2.19803  16
  -7   6  -2 10.6834 2.69562  17
  -6  -7   2 5.46190 5.78943  13
  -6  -7   2 1.82409 2.49399  12
  -6   7   2 -3.6053 2.43415  16
  -6   7   2 3.57691 3.34059  17
  -5  -7   2 2.23307 5.86594  13
  -5  -7   2 6.46380 3.70837  12
  -5  -7   2 0.72260 2.12409  10
  -5   7   2 -2.0172 2.87762  17
  -5   7   2 7.53911 3.39539  16
  -4  -7   2 24.9817 5.00717  11
  -4  -7   2 29.3109 3.45578   9
  -4  -7   2 34.8669 4.70757  10
  -4  -7   2 32.9488 6.93121  13
  -4  -7   2 23.7735 4.81968  12
  -4  -7   2 9.82303 14.4890   5
  -4   7   2 20.7737 4.43353  16
  -4   7   2 28.7385 5.52757  17
  -4   7   2 23.7695 3.36630  10
  -4   7   2 20.2814 14.6125   7
  -3  -7   2 13.1134 2.15683   8
  -3  -7   2 26.6463 8.59433   2
  -3  -7   2 13.4145 3.07442   9
  -3  -7   2 15.3419 3.27132  10
  -3  -7   2 7.75254 3.27373  12
  -3  -7   2 5.79701 6.26641   3
  -3  -7   2 18.1742 5.40548  13
  -3  -7   2 5.18307 9.03058   5
  -3   7   2 17.6312 3.02221  10
  -3   7   2 13.9206 2.26009   9
  -3   7   2 -6.9790 9.18454   7
  -3   7   2 14.3801 6.01984   3
  -3   7   2 6.64053 6.30594   2
  -3   7   2 8.87790 3.86810  17
  -3   7   2 7.84399 3.16199  16
  -2  -7   2 16.5893 10.1256   5
  -2  -7   2 1.10214 6.11901   3
  -2  -7   2 7.32219 1.90953   8
  -2  -7   2 2.71751 2.46917   9
  -2  -7   2 6.99877 7.79412   2
  -2  -7   2 9.06348 3.10939  10
  -2   7   2 3.56180 2.13838  10
  -2   7   2 -11.728 5.70707   2
  -2   7   2 2.61871 8.45655   7
  -2   7   2 4.73268 4.72363   3
  -2   7   2 5.86729 1.41192   8
  -2   7   2 7.26468 2.03177   9
  -2   7   2 5.09634 2.34860  16
  -2   7   2 5.00959 5.49114   6
  -1  -7   2 7.39599 6.81656   2
  -1  -7   2 17.8001 2.91094   8
  -1  -7   2 16.0123 6.82863   3
  -1   7   2 15.2491 6.11442   2
  -1   7   2 19.2038 2.46487   8
  -1   7   2 13.7996 6.75386   3
  -1  -7  -2 15.6872 7.79378   3
  -1  -7  -2 9.56821 7.26849   2
  -1  -7  -2 20.6079 3.27831   8
  -1   7  -2 19.0871 6.47431   2
  -1   7  -2 23.3803 2.91803   8
  -1   7  -2 20.6552 7.42023   7
  -1   7  -2 12.3434 5.76747   3
  -2  -7  -2 8.47630 2.74519   8
  -2  -7  -2 -4.1898 8.25309   3
  -2  -7  -2 5.94381 8.32525   2
  -2  -7  -2 7.62851 3.53164  12
  -2  -7  -2 8.88261 2.29731   9
  -2   7  -2 1.61757 6.42685   2
  -2   7  -2 4.88662 1.44946   8
  -2   7  -2 13.9170 7.07130   7
  -2   7  -2 10.1058 2.13716   9
  -2   7  -2 8.29434 5.08303   3
  -2   7  -2 3.80331 2.21007  10
  -3  -7  -2 29.3807 3.41531   8
  -3  -7  -2 32.0207 10.5529   2
  -3  -7  -2 26.0721 4.85433  12
  -3  -7  -2 18.8931 9.99834   3
  -3  -7  -2 13.2532 12.7798   5
  -3  -7  -2 31.1300 4.78063  10
  -3  -7  -2 36.2573 4.27107   9
  -3   7  -2 24.1986 3.99139  15
  -3   7  -2 35.8411 3.89445   9
  -3   7  -2 21.9004 7.22229   3
  -3   7  -2 29.8926 2.74874   8
  -3   7  -2 28.4313 4.85144  17
  -3   7  -2 41.3178 10.5311   7
  -3   7  -2 22.9985 4.26654  18
  -3   7  -2 32.3817 4.07493  10
  -3   7  -2 29.9406 4.86326  16
  -3   7  -2 30.9406 8.26876   2
  -4  -7  -2 14.9983 4.43145  12
  -4  -7  -2 17.7734 3.72599  10
  -4  -7  -2 13.6829 2.84566   9
  -4  -7  -2 18.5087 6.12532  13
  -4  -7  -2 22.7710 17.7908   5
  -4   7  -2 18.2040 3.77537  16
  -4   7  -2 21.7968 3.85187  17
  -4   7  -2 6.28142 11.8660   7
  -4   7  -2 16.5338 2.78834  10
  -4   7  -2 18.4261 3.41686  15
  -5  -7  -2 2.32601 5.06409  13
  -5  -7  -2 3.70231 3.08467  12
  -5  -7  -2 4.10621 2.53848  10
  -5   7  -2 0.68730 2.67845  17
  -5   7  -2 2.52700 2.91006  16
  -5   7  -2 2.31656 1.46825  10
  -6  -7  -2 -0.5371 4.31652  12
  -6  -7  -2 1.06407 4.18266  13
  -6   7  -2 3.44281 2.62462  17
  -6   7  -2 1.15679 1.61903  16
  -6  -8   2 7.87648 4.30726  13
  -6  -8   2 17.7238 3.56494  12
  -6   8   2 19.8680 3.20399  17
  -5  -8   2 1.66451 2.37632  10
  -5  -8   2 6.20248 3.17392  12
  -5  -8   2 11.1834 4.70418  13
  -5   8   2 4.24759 2.75343  16
  -5   8   2 4.11423 3.78586  17
  -4  -8   2 4.76123 4.57780  13
  -4  -8   2 -0.8947 2.09184   9
  -4  -8   2 0.08397 3.29772  12
  -4  -8   2 3.17630 2.97098  10
  -4   8   2 0.94238 3.81985  17
  -4   8   2 4.44715 3.01820  16
  -3  -8   2 28.2461 15.1559   5
  -3  -8   2 41.2236 5.25959  10
  -3  -8   2 39.0375 7.31385  13
  -3  -8   2 35.0008 4.56418   9
  -3  -8   2 29.5377 3.76598   8
  -3   8   2 46.8112 5.96230  17
  -3   8   2 29.8742 4.85215  16
  -3   8   2 18.7163 12.2084   7
  -3   8   2 30.7190 4.32978  10
  -3   8   2 31.8749 3.91668   9
  -2  -8   2 14.9420 10.6144   5
  -2  -8   2 9.35363 3.21035   9
  -2  -8   2 19.3064 11.1506   3
  -2  -8   2 9.91084 2.46867   8
  -2  -8   2 11.2416 8.53895   2
  -2   8   2 12.0102 2.92930  16
  -2   8   2 11.7034 2.60115   9
  -2   8   2 15.0122 9.25611   7
  -2   8   2 11.1923 7.25869   2
  -2   8   2 12.2432 2.43850  10
  -2   8   2 6.73884 7.89416   3
  -1  -8   2 78.6146 7.48200   8
  -1  -8   2 87.3785 15.4890   5
  -1   8   2 63.8624 12.0014   2
  -1   8   2 46.3898 11.1971   3
  -1   8   2 81.2193 6.95474   8
  -1   8   2 70.7299 7.74218   9
   0   8   2 9.91006 2.41512   8
  -1  -8  -2 15.1722 3.29885   8
  -1   8  -2 15.6748 2.53907   8
  -1   8  -2 24.9428 8.47084   7
  -1   8  -2 4.45267 6.82777   3
  -1   8  -2 14.4332 8.03505   2
  -2  -8  -2 30.1653 13.3402   5
  -2  -8  -2 61.3312 6.03787   8
  -2  -8  -2 32.4793 12.0851   3
  -2  -8  -2 76.3386 7.08021   9
  -2  -8  -2 64.4710 13.2244   2
  -2   8  -2 44.7533 10.0957   2
  -2   8  -2 38.5908 11.5031   7
  -2   8  -2 58.3986 5.42943   8
  -2   8  -2 58.2445 6.09393   9
  -2   8  -2 24.1929 8.74520   3
  -2   8  -2 48.2709 6.34847  10
  -3  -8  -2 39.1222 5.42565   9
  -3  -8  -2 46.3832 6.29197  10
  -3  -8  -2 16.2340 15.9084   5
  -3  -8  -2 43.3772 6.55321  12
  -3   8  -2 45.2940 5.41425  10
  -3   8  -2 39.4144 13.1359   7
  -3   8  -2 47.2734 6.36626  17
  -3   8  -2 46.2447 5.14906   9
  -4  -8  -2 7.24925 3.01244   9
  -4  -8  -2 0.83604 3.69569  12
  -4  -8  -2 5.72252 3.43518  10
  -4  -8  -2 3.75411 4.35197  13
  -4   8  -2 8.26967 2.33844  10
  -4   8  -2 6.57806 2.89677  16
  -4   8  -2 -2.3204 3.68263  17
  -5  -8  -2 9.26559 3.39748  12
  -5  -8  -2 3.16320 3.72538  13
  -5   8  -2 7.41494 3.94453  17
  -5   8  -2 7.06332 2.67868  16
  -6  -8  -2 1.70359 3.59845  13
  -6  -8  -2 3.85722 2.63172  12
  -6   8  -2 6.78995 1.59443  16
  -6   8  -2 7.20111 3.37092  17
  -5  -9   2 12.5991 4.58455  13
  -5   9   2 12.9033 3.71224  17
  -5   9   2 7.41490 2.00041  16
  -4  -9   2 13.4467 3.59079  10
  -4  -9   2 19.2293 5.24328  13
  -4   9   2 6.89036 3.99348  17
  -4   9   2 13.4282 2.72293  16
  -3  -9   2 3.84430 2.70479  10
  -3  -9   2 6.98209 5.77443  13
  -3  -9   2 1.74385 2.73811   9
  -3  -9   2 1.25423 1.87031   8
  -3   9   2 5.40647 2.41098  10
  -3   9   2 1.38089 3.68337  17
  -3   9   2 1.13635 2.75731  16
  -2  -9   2 1.09420 3.10332   9
  -2  -9   2 0.77103 2.30335   8
  -2  -9   2 5.19517 13.6404   5
  -2   9   2 -1.5471 2.36515  10
  -2   9   2 6.36508 11.0289   7
  -1  -9   2 -3.9067 11.0065   5
  -1  -9   2 5.81657 2.84806   8
  -1   9   2 0.57064 2.67474   9
  -1   9   2 -1.0653 9.22101   7
  -1   9   2 3.51693 1.89265   8
   0   9  -2 -1.9507 2.22180   8
   0   9   2 4.65176 2.33255   8
   0   9  -2 6.66512 9.68619   7
  -1  -9  -2 29.6620 4.30203   8
  -1   9  -2 20.0872 10.8336   7
  -1   9  -2 25.8497 3.46812   8
  -2  -9  -2 8.13326 14.6215   5
  -2  -9  -2 -0.5961 2.57128   8
  -2  -9  -2 -2.3404 3.19639   9
  -2   9  -2 5.61290 11.3958   7
  -2   9  -2 -1.8470 2.20822   9
  -2   9  -2 0.27462 1.45389   8
  -2   9  -2 -2.7844 2.69910  10
  -3   9  -2 11.9320 2.56998  10
  -3   9  -2 10.3761 2.55974   9
  -3   9  -2 16.7813 4.02581  17
  -4  -9  -2 8.21219 4.29011  13
  -4  -9  -2 5.84239 2.80801  12
  -4   9  -2 5.86119 2.85707  17
  -5  -9  -2 -2.0459 2.41447  12
  -5  -9  -2 -0.9955 3.22992  13
  -5   9  -2 5.43963 3.54368  17
  -5 -10   2 16.7926 4.54414  13
  -5  10   2 20.9616 3.53737  17
  -4 -10   2 1.14928 5.74873  13
  -4 -10   2 2.35836 1.83247   9
  -4  10   2 4.88176 2.53800  17
  -3 -10   2 21.8545 3.67680   9
  -3 -10   2 22.8943 5.81809  13
  -3  10   2 26.8762 4.24595  17
  -2 -10   2 28.7917 3.71624   8
  -2 -10   2 17.6534 4.35628   9
  -1 -10   2 48.7043 5.80647   8
   0 -10   2 32.8490 5.26163   8
  -1  10  -2 18.5273 3.91509   9
  -2  10  -2 101.959 11.5876  17
  -3 -10  -2 50.7507 8.43163  13
  -3  10  -2 47.8024 6.31412  17
  -4 -10  -2 30.2596 5.43364  13
  -4  10  -2 25.6168 4.04573  17
  -5 -10  -2 7.48424 3.83821  13
  -5  10  -2 10.9033 3.06242  17
  -4 -11   2 8.51229 3.51208  13
  -4  11   2 5.16022 2.19476  17
  -3 -11   2 8.03603 4.20922  13
  -3  11   2 3.87218 3.25095  17
  -2 -11   2 13.9895 3.90528   9
  -2 -11   2 17.1566 6.04699  13
  -2 -11   2 18.0685 2.83801   8
  -2  11   2 21.4437 3.49674  17
   0 -11   2 85.6508 9.19817   8
   0  11  -2 92.9180 8.51078   8
  -2  11  -2 32.2519 4.70671  17
  -3 -11  -2 9.74367 3.97157  13
  -3  11  -2 8.02411 2.69211  17
  -4 -11  -2 1.06844 3.83222  13
  -4  11  -2 3.55673 2.15051  17
  -3 -12   2 19.6780 3.82115  13
  -2 -12   2 2.87165 3.18377  13
  -2  12   2 7.88733 2.55755  17
  -1  12   2 35.2397 4.87159  17
  -1  12  -2 11.1391 2.71425  17
  -2 -12  -2 33.7043 5.92976  13
  -2  12  -2 44.6357 5.46975  17
  -3 -12  -2 10.4015 3.25228  13
  -3  12  -2 10.8568 2.88808  17
  -7   0   3 0.82349 2.76740  14
  -7   0   3 1.54523 2.95586  12
  -7   0   3 3.96858 2.77770  11
  -7   0   3 0.75832 3.13144  13
  -6   0   3 3.32307 2.55073  15
  -6   0   3 -0.8741 4.57112  13
  -6   0   3 1.58606 3.20446  12
  -6   0   3 -3.3908 3.21987  17
  -6   0   3 4.54487 3.28339  18
  -6   0   3 3.00828 3.53841  14
  -6   0   3 1.38770 2.67850  11
  -6   0   3 3.41829 2.92363  16
  -5   0   3 -0.7529 2.54168  18
  -5   0   3 -1.5142 2.23345  15
  -5   0   3 -0.9736 2.42073  16
  -5   0   3 3.25208 4.08292  13
  -5   0   3 7.18092 3.10082  14
  -5   0   3 -0.8785 2.93487  12
  -5   0   3 -8.4440 9.84262   5
  -5   0   3 -0.9665 2.35395  11
  -5   0   3 -0.3318 3.88727  17
  -4   0   3 -1.4471 3.91644   4
  -4   0   3 1.49179 3.76713   6
  -4   0   3 8.47964 6.04893   5
  -3   0   3 -5.5733 3.17045   7
  -3   0   3 -3.1155 4.21935   5
  -3   0   3 -1.3442 3.14113   4
  -3   0   3 -0.3654 3.26710   6
   2   0  -3 -1.9080 1.39363   1
  -2   0   3 -0.6267 1.21155   3
  -2   0   3 1.44078 1.33627   1
  -2   0   3 -0.8753 1.22598   2
  -2   0   3 0.04988 2.31056   4
  -2   0   3 -1.5870 3.61494   5
  -2   0   3 -0.0415 1.55723   3
  -2   0   3 -0.6919 1.62816   2
  -2   0   3 2.22965 2.57642   7
  -2   0   3 1.55341 2.51328   6
   2   0  -3 0.52357 1.19208   1
  -2   0   3 -1.4139 1.09230   1
   1   0  -3 -0.6697 1.49471   1
   1   0  -3 -1.2002 1.38860   1
  -1   0   3 0.59613 1.78117   3
  -1   0   3 -0.7696 2.70259   5
  -1   0   3 -0.4570 1.42522   1
  -1   0   3 -2.0136 2.18882   6
  -1   0   3 1.45748 1.52852   1
  -1   0   3 -1.5938 1.71337   2
  -1   0   3 2.75538 1.96267   2
  -1   0   3 -2.0819 1.57843   3
   0   0   3 1.96337 1.91668   1
   0   0  -3 -3.7366 1.62969   1
   0   0  -3 -0.2335 1.83741   3
   0   0   3 0.58861 1.96733   3
   0   0  -3 -2.6229 1.66221   1
   0   0   3 -2.0449 1.71412   2
   0   0   3 -0.9804 1.63772   5
   0   0  -3 -2.4374 1.61560   2
   0   0  -3 -0.7315 1.31416   7
   0   0   3 1.90760 1.81071   1
  -1   0  -3 -0.8457 1.72975   1
  -1   0  -3 -0.8009 1.42301   2
  -1   0  -3 0.62198 1.84695   2
  -1   0  -3 -0.3307 1.53881   3
   1   0   3 -1.9430 2.02937   1
   1   0   3 -1.3618 1.43906   1
   1   0   3 -0.5949 1.65676   3
  -1   0  -3 0.60027 2.39247   7
  -1   0  -3 -0.4053 1.50647   3
  -1   0  -3 -0.1040 1.10710   1
   2   0   3 0.07306 1.96754   1
  -2   0  -3 -0.1441 1.66624   5
  -2   0  -3 0.39597 3.64589   4
  -2   0  -3 0.74396 2.12214   3
  -2   0  -3 -0.1129 1.50371   1
  -2   0  -3 2.41227 2.76861   2
  -2   0  -3 0.18582 2.04293   1
  -2   0  -3 2.47526 2.00829   3
   2   0   3 -0.6440 1.75665   1
  -2   0  -3 2.04837 3.63046   7
  -2   0  -3 -2.7650 1.79858   2
  -3   0  -3 1.39652 2.98718   5
  -3   0  -3 -1.3885 3.99037   4
  -3   0  -3 -0.3849 1.49188   2
  -3   0  -3 -1.0885 1.22354   1
   3   0   3 0.49196 1.30303   1
  -3   0  -3 1.63749 1.23099   1
  -3   0  -3 1.68510 1.55301   3
  -3   0  -3 0.44058 1.52591   2
  -3   0  -3 -1.1141 1.34869   3
  -3   0  -3 3.93103 4.49669   7
  -4   0  -3 -1.4596 6.23351   7
  -4   0  -3 0.60479 4.17349   4
  -5   0  -3 0.88558 2.05693  15
  -5   0  -3 -2.4097 6.57597   4
  -5   0  -3 -1.7731 3.32642  18
  -5   0  -3 1.06477 3.14156  17
  -5   0  -3 -4.0220 9.78646   7
  -5   0  -3 4.47681 2.74441  16
  -5   0  -3 -5.0268 2.49662  11
  -5   0  -3 -2.5533 2.52443  12
  -6   0  -3 0.68186 2.67309  12
  -6   0  -3 6.90222 4.49865  18
  -6   0  -3 8.95114 3.23699  16
  -6   0  -3 0.68784 2.69880  17
  -7   0  -3 0.07142 2.57197  17
  -7   0  -3 -7.7873 4.20413  18
  -8   0  -3 -0.3499 3.08976  18
  -7  -1   3 15.0943 3.33483  14
  -7  -1   3 24.1175 4.59208  13
  -7  -1   3 18.6726 3.97575  12
  -7  -1   3 22.8774 3.46104  11
  -7   1   3 25.0358 4.51073  13
  -7   1   3 19.8186 3.36830  14
  -7   1   3 19.3824 3.38148  16
  -7   1   3 17.8860 3.66148  12
  -6  -1   3 83.5013 9.67979  13
  -6  -1   3 76.7106 8.23678  12
  -6  -1   3 64.0021 7.80325  11
  -6  -1   3 57.9396 7.90173  14
  -6  -1   3 64.3746 8.10380  18
  -6   1   3 58.1804 7.39722  11
  -6   1   3 42.2532 7.49083  17
  -6   1   3 58.0784 7.86137  12
  -6   1   3 53.4276 7.66654  18
  -6   1   3 61.9594 8.07569  14
  -6   1   3 65.5371 7.68419  16
  -6   1   3 73.5976 9.68688  13
  -5  -1   3 21.1859 11.6763   5
  -5  -1   3 39.5770 5.47488  14
  -5  -1   3 30.5088 4.68204  15
  -5  -1   3 31.8499 5.45796  17
  -5  -1   3 43.5494 5.48779  11
  -5  -1   3 41.1680 6.56926  13
  -5  -1   3 44.3539 5.50850  18
  -5  -1   3 39.4885 5.47791  12
  -5   1   3 28.7522 7.80493   6
  -5   1   3 35.3932 5.32180  16
  -5   1   3 47.0292 5.66321  12
  -5   1   3 36.6225 5.03400  18
  -5   1   3 38.2795 5.04881  11
  -5   1   3 50.0691 5.36001  15
  -5   1   3 40.9726 6.69759  13
  -5   1   3 35.7938 5.73327  17
  -5   1   3 39.6556 5.56618  14
  -4  -1   3 8.06817 4.85440   4
  -4  -1   3 3.74191 5.85532   5
  -4  -1   3 2.70399 4.37278   6
  -4   1   3 4.83507 6.09244   5
  -4   1   3 6.39602 4.43625   6
  -4   1   3 9.58097 6.46957   7
  -3  -1   3 67.5931 10.2785   5
  -3  -1   3 73.3970 9.44555   4
  -3  -1   3 58.9841 7.99083   6
  -3   1   3 48.3328 8.38634   7
  -3   1   3 62.2113 8.49900   6
  -3   1   3 63.4949 10.4748   5
  -2  -1   3 43.0991 5.18879   3
  -2  -1   3 45.1900 5.25046   2
  -2  -1   3 47.8087 6.04859   6
  -2  -1   3 45.7437 4.26203   1
  -2  -1   3 41.4270 7.17874   5
  -2  -1   3 43.9598 5.34605   3
  -2  -1   3 38.4300 4.95744   2
   2  -1  -3 45.2042 4.41545   1
  -2  -1   3 40.1803 6.68886   4
   2  -1  -3 45.8916 4.46408   1
  -2  -1   3 40.8244 4.49911   1
  -2   1   3 40.6946 4.86493   2
  -2   1   3 52.7405 4.56814   1
  -2   1   3 48.1440 6.59173   6
  -2   1   3 40.3277 7.67672   5
  -2   1   3 45.3751 4.22543   1
  -2   1   3 42.0494 5.13317   2
   2   1  -3 50.4422 4.68372   1
  -2   1   3 50.0605 5.45907   3
  -2   1   3 45.6451 6.40022   7
   2   1  -3 51.2679 4.40250   1
  -2   1   3 41.6015 5.12895   3
  -1  -1   3 292.762 30.3545   2
   1  -1  -3 335.826 26.0329   1
  -1  -1   3 298.892 32.1547   3
  -1  -1   3 310.444 25.8390   1
   1  -1  -3 352.497 26.0143   1
  -1  -1   3 326.369 33.6452   5
  -1  -1   3 336.408 25.8384   1
  -1  -1   3 339.150 30.4731   2
  -1  -1   3 331.118 32.1903   3
  -1   1   3 326.156 32.2708   3
   1   1  -3 334.796 25.8800   1
  -1   1   3 341.914 30.4808   2
  -1   1   3 301.830 33.7341   5
  -1   1   3 330.948 31.9587   6
  -1   1   3 307.179 32.1930   3
  -1   1   3 303.520 30.4495   2
  -1   1   3 334.842 25.9384   1
  -1   1   3 334.486 25.8714   1
   1   1  -3 355.254 25.9167   1
   0  -1   3 637.168 48.3866   1
   0  -1  -3 573.542 60.3818   3
   0  -1   3 651.073 57.0196   2
   0  -1   3 583.517 62.1137   5
   0  -1  -3 622.268 48.4804   1
   0  -1   3 651.275 48.4081   1
   0  -1   3 597.023 60.3367   3
   0  -1  -3 634.099 48.4634   1
   0  -1  -3 579.815 57.0325   2
   0   1  -3 647.610 48.3744   1
   0   1   3 613.068 48.4049   1
   0   1  -3 597.047 60.2958   3
   0   1  -3 585.195 61.9225   7
   0   1   3 583.379 56.9852   2
   0   1   3 626.583 60.4139   3
   0   1  -3 610.970 56.9393   2
   0   1   3 649.490 48.4690   1
   0   1  -3 639.037 48.3565   1
  -1  -1  -3 87.6484 11.0267   4
   1  -1   3 91.7975 10.4314   3
   1  -1   3 99.1874 8.51220   1
   1  -1   3 111.551 8.75840   1
  -1  -1  -3 112.397 8.92098   1
  -1  -1  -3 109.145 11.3093   7
  -1  -1  -3 97.9153 10.6431   3
  -1  -1  -3 108.355 10.4867   2
  -1   1  -3 88.5477 10.3633   3
   1   1   3 92.8900 8.66257   1
  -1   1  -3 92.4756 10.3631   3
  -1   1  -3 100.187 11.1848   7
   1   1   3 90.6983 10.5874   3
  -1   1  -3 104.739 10.1005   2
   1   1   3 104.552 8.88905   1
  -1   1  -3 102.274 8.55568   1
   2  -1   3 113.641 9.46163   1
  -2  -1  -3 121.002 12.9415   4
  -2  -1  -3 113.739 11.7891   3
  -2  -1  -3 115.339 13.2038   7
  -2  -1  -3 95.8191 11.9104   5
  -2  -1  -3 107.651 9.56442   1
   2  -1   3 114.436 9.69448   1
  -2  -1  -3 120.327 11.3890   2
  -2  -1  -3 104.985 11.7497   3
  -2  -1  -3 98.4917 11.1323   2
  -2  -1  -3 105.932 9.56381   1
  -2   1  -3 119.289 11.4805   3
  -2   1  -3 114.693 12.5238   4
  -2   1  -3 104.540 10.9026   2
   2   1   3 106.859 9.70695   1
  -2   1  -3 100.164 11.5669   3
  -2   1  -3 111.938 13.1397   7
  -2   1  -3 108.371 9.34897   1
  -2   1  -3 106.635 9.39259   1
  -2   1  -3 114.233 11.1379   2
   2   1   3 123.481 9.73083   1
  -3  -1  -3 66.2081 6.81829   1
  -3  -1  -3 76.4061 8.11560   2
  -3  -1  -3 98.0539 11.3308   7
  -3  -1  -3 81.2489 10.6187   4
  -3  -1  -3 68.8720 9.50275   5
   3  -1   3 73.1864 7.00033   1
  -3  -1  -3 88.1555 8.48509   3
   3   1   3 67.6703 6.86071   1
  -3   1  -3 89.7587 8.24807   3
  -3   1  -3 74.5732 6.66324   1
  -3   1  -3 78.0944 6.96874   1
  -3   1  -3 85.7702 8.26552   2
  -3   1  -3 78.6942 10.3877   4
  -3   1  -3 104.450 12.2868   7
  -3   1  -3 75.8755 8.48552   3
  -3   1  -3 78.7333 7.85478   2
  -4  -1  -3 36.0679 8.24324   7
  -4  -1  -3 42.7520 7.90591   4
  -4   1  -3 35.7022 8.22124   7
  -4   1  -3 25.2675 6.34009   4
  -5  -1  -3 12.7378 3.53455  12
  -5  -1  -3 13.0871 7.91562   4
  -5  -1  -3 10.8779 4.15125  18
  -5  -1  -3 15.4794 3.90221  17
  -5  -1  -3 16.2673 3.63577  11
  -5  -1  -3 17.6348 3.45931  16
  -5   1  -3 17.8916 3.81620  17
  -5   1  -3 23.0698 3.84629  16
  -5   1  -3 10.5853 3.16423  11
  -5   1  -3 20.4238 8.98792   7
  -5   1  -3 12.8652 2.95854  15
  -5   1  -3 16.8092 4.29899  18
  -6  -1  -3 175.259 18.8031  18
  -6  -1  -3 172.626 18.1559  16
  -6  -1  -3 191.847 18.8409  17
  -6   1  -3 171.666 18.4054  18
  -6   1  -3 168.815 18.3220  17
  -6   1  -3 190.053 18.3879  11
  -6   1  -3 162.979 17.3092  15
  -6   1  -3 182.436 18.2474  16
  -7  -1  -3 39.0950 5.02185  12
  -7  -1  -3 38.4955 5.93935  17
  -7  -1  -3 35.9701 6.25531  18
  -7   1  -3 36.1570 5.32385  16
  -7   1  -3 40.5982 5.78870  18
  -7   1  -3 39.1647 5.95070  17
  -8  -1  -3 64.3181 7.28505  18
  -8  -2   3 0.55306 1.66309  12
  -7  -2   3 34.7264 5.08569  12
  -7  -2   3 37.0132 5.97583  13
  -7   2   3 42.2624 5.50782  16
  -7   2   3 38.1312 5.03722  14
  -6  -2   3 27.3285 4.88884  18
  -6  -2   3 24.5687 4.45271  11
  -6  -2   3 10.3354 4.14682  14
  -6  -2   3 30.2058 4.86732  12
  -6  -2   3 22.1840 5.73188  13
  -6   2   3 12.3691 4.52806  17
  -6   2   3 23.8125 4.56224  14
  -6   2   3 21.5479 4.10540  12
  -6   2   3 22.8516 5.73343  13
  -6   2   3 25.3474 4.42008  16
  -5  -2   3 2.38565 2.64731  11
  -5  -2   3 -1.5626 3.31315  17
  -5  -2   3 3.50573 9.28543   5
  -5  -2   3 3.20677 3.05707  14
  -5  -2   3 -3.1616 2.99392  18
  -5  -2   3 -0.7781 3.98530  13
  -5  -2   3 4.07146 3.06333  12
  -5   2   3 -4.0213 2.57028  16
  -5   2   3 2.15876 4.06995  13
  -5   2   3 -0.7145 2.95809  14
  -5   2   3 -4.4369 3.39167  17
  -5   2   3 1.64138 3.25922  12
  -5   2   3 7.43476 6.21663   6
  -4  -2   3 10.5496 2.72379  11
  -4  -2   3 14.1399 3.09010  12
  -4  -2   3 12.0600 1.69884  10
  -4  -2   3 11.0417 5.68167   4
  -4  -2   3 9.20838 3.65555  13
  -4  -2   3 18.7727 7.04807   5
  -4   2   3 8.87562 2.81464  16
  -4   2   3 13.1457 3.13558  14
  -4   2   3 12.3141 2.58513  15
  -4   2   3 3.53317 4.55416   6
  -4   2   3 20.5325 4.33573  13
  -4   2   3 15.9553 7.67583   7
  -3  -2   3 4.99474 1.81445   1
   3  -2  -3 4.77486 1.09438   1
  -3  -2   3 3.22365 1.96244   2
  -3  -2   3 6.11108 2.89874   6
  -3  -2   3 8.42406 4.75363   4
  -3  -2   3 6.81758 1.99944   3
  -3  -2   3 7.98376 4.88031   5
  -3  -2   3 7.72870 2.09752   3
  -3  -2   3 6.93974 2.30999   2
  -3   2   3 3.81829 1.10999   1
   3   2  -3 2.75593 1.82293   1
  -3   2   3 6.72168 1.51824   2
  -3   2   3 8.41545 1.35653   3
  -3   2   3 4.41962 4.17613   7
  -3   2   3 7.06181 1.41872   3
  -3   2   3 11.2359 4.90300   6
  -3   2   3 5.22194 1.28020   1
  -3   2   3 6.38666 1.29136   2
  -2  -2   3 200.285 16.9059   1
  -2  -2   3 236.442 20.0165   2
   2  -2  -3 211.149 17.0709   1
  -2  -2   3 205.298 22.7947   5
  -2  -2   3 221.794 22.2872   4
  -2  -2   3 173.836 19.7247   2
  -2  -2   3 190.005 20.5695   6
  -2  -2   3 206.836 21.0052   3
  -2  -2   3 216.593 20.9555   3
  -2  -2   3 194.748 16.8388   1
   2   2  -3 217.354 17.0385   1
  -2   2   3 193.559 22.0863   7
  -2   2   3 218.946 21.0583   3
   2   2  -3 213.519 16.9532   1
  -2   2   3 215.688 16.9821   1
  -2   2   3 210.288 20.9143   3
  -2   2   3 190.331 19.8427   2
  -2   2   3 216.520 21.4469   6
  -2   2   3 207.679 16.8055   1
  -2   2   3 222.855 19.8101   2
  -1  -2   3 81.7716 7.20091   1
   1  -2  -3 89.8068 7.65135   1
   1  -2  -3 65.7793 9.09092   3
  -1  -2   3 81.4410 9.64962   5
  -1  -2   3 83.5151 8.72281   2
   1  -2  -3 80.2209 7.58292   1
  -1  -2   3 78.8388 7.34251   1
  -1  -2   3 82.4134 8.79663   3
   1   2  -3 84.6680 7.46360   1
   1   2  -3 67.8756 8.68094   3
  -1   2   3 81.9049 8.62189   2
  -1   2   3 75.5216 9.22004   6
  -1   2   3 87.2962 7.34691   1
  -1   2   3 78.8659 8.96514   3
   1   2  -3 85.8745 7.43550   1
   1   2  -3 64.8351 8.53500   2
  -1   2   3 69.4261 8.81820   3
   0  -2  -3 36.0238 4.76749   4
   0  -2  -3 36.0529 5.30953   2
   0  -2   3 31.3209 4.15499   1
   0  -2   3 34.0769 4.19235   1
   0  -2  -3 34.5453 4.52538   1
   0  -2   3 31.1113 4.82642   2
   0  -2   3 40.2966 5.34794   3
   0  -2  -3 33.7816 4.26069   1
   0  -2  -3 37.1800 5.46963   3
   0   2  -3 31.2152 4.73997   2
   0   2   3 40.6926 4.49053   1
   0   2   3 35.1944 5.19392   3
   0   2   3 34.0890 4.68547   6
   0   2  -3 37.7862 4.16926   1
   0   2   3 33.0775 4.06441   1
   0   2  -3 28.3422 4.08635   1
   0   2  -3 37.4377 5.12581   3
   0   2   3 40.6358 5.10778   2
   1  -2   3 137.985 11.0374   1
   1  -2   3 141.910 10.9520   1
  -1  -2  -3 124.043 14.1861   4
  -1  -2  -3 123.675 11.1701   1
  -1  -2  -3 132.449 13.8455   3
   1  -2   3 113.650 13.4182   3
  -1  -2  -3 130.432 11.2909   1
  -1  -2  -3 124.816 13.2414   2
   1  -2   3 119.437 12.8012   2
   1   2   3 103.384 12.9525   2
   1   2   3 126.024 13.6129   3
  -1   2  -3 104.589 13.1285   3
  -1   2  -3 122.422 14.0640   7
   1   2   3 140.353 11.2558   1
   1   2   3 128.728 11.1678   1
  -1   2  -3 134.801 12.7653   2
  -1   2  -3 130.456 13.4404   3
  -1   2  -3 135.225 10.9449   1
  -1   2  -3 129.193 10.9370   1
  -2  -2  -3 75.6598 7.10744   1
  -2  -2  -3 58.3752 8.15689   3
  -2  -2  -3 77.3134 8.10882   2
   2  -2   3 73.3810 6.86039   1
  -2  -2  -3 82.0908 8.85063   3
  -2  -2  -3 77.1225 7.25473   1
  -2  -2  -3 80.7434 9.02604   5
   2  -2   3 81.7369 7.03862   1
  -2  -2  -3 56.8085 8.26790   2
  -2  -2  -3 85.8443 10.6225   4
   2   2   3 78.5979 7.23390   1
  -2   2  -3 68.8437 8.74180   4
  -2   2  -3 60.3955 6.69732   1
  -2   2  -3 60.1557 7.97804   2
  -2   2  -3 85.1728 9.88694   7
   2   2   3 69.8155 7.12640   1
  -2   2  -3 76.4230 8.33445   3
  -2   2  -3 91.4606 8.20498   2
  -2   2  -3 60.5301 7.99331   3
  -2   2  -3 69.8394 6.62361   1
  -3  -2  -3 7.84085 2.81419   3
  -3  -2  -3 10.9837 2.78740   2
  -3  -2  -3 7.01619 2.44720   3
  -3  -2  -3 1.97475 2.69577   2
  -3  -2  -3 8.50514 4.67821   4
   3  -2   3 4.17358 2.39562   1
  -3  -2  -3 6.94900 4.12219   5
  -3  -2  -3 3.42961 2.40319   1
  -3   2  -3 4.94232 2.49721   2
  -3   2  -3 2.80944 1.96329   1
  -3   2  -3 1.65694 4.38879   7
  -3   2  -3 10.9419 2.16732   3
  -3   2  -3 4.70897 2.09010   2
  -3   2  -3 4.59732 2.34752   3
  -3   2  -3 13.0765 3.75278   4
  -4  -2  -3 53.4497 6.42983  18
  -4  -2  -3 48.4784 6.39009  12
  -4  -2  -3 51.7389 6.50594  11
  -4  -2  -3 51.7014 5.14044  10
  -4  -2  -3 52.6610 6.34550  17
  -4  -2  -3 40.1723 8.90535   4
  -4   2  -3 48.3477 6.34025  16
  -4   2  -3 45.0952 9.60513   7
  -4   2  -3 47.6346 6.49623  17
  -4   2  -3 48.2067 4.95801  10
  -4   2  -3 56.2920 6.70589  18
  -4   2  -3 47.1375 5.82594  15
  -5  -2  -3 -1.6801 7.71306   4
  -5  -2  -3 -2.3181 2.76811  12
  -5  -2  -3 -0.6612 3.37825  17
  -5  -2  -3 -5.5054 3.03158  18
  -5  -2  -3 4.28346 3.02921  11
  -5  -2  -3 3.05003 1.06392  10
  -5   2  -3 11.3485 8.53798   7
  -5   2  -3 0.45823 2.34894  15
  -5   2  -3 0.66626 3.06500  17
  -5   2  -3 4.99443 3.82752  18
  -5   2  -3 -1.3013 2.73352  14
  -5   2  -3 -0.0353 2.80110  16
  -5   2  -3 -1.0897 2.22103  11
  -6  -2  -3 18.3331 5.27183  18
  -6  -2  -3 26.2447 4.93063  17
  -6  -2  -3 10.2587 4.15331  12
  -6   2  -3 20.9541 4.09722  16
  -6   2  -3 19.9009 3.22785  15
  -6   2  -3 12.8477 4.40931  17
  -6   2  -3 11.9766 4.92362  18
  -7  -2  -3 36.4856 5.55387  18
  -7  -2  -3 37.9307 5.20729  12
  -7   2  -3 34.3171 6.09248  18
  -7   2  -3 37.9231 5.06017  16
  -7   2  -3 43.6430 5.47222  17
  -7  -3   3 11.5105 4.02008  13
  -7  -3   3 17.5688 3.27886  12
  -7   3   3 16.8973 3.74890  16
  -6  -3   3 10.8829 3.80229  11
  -6  -3   3 6.30282 3.64305  12
  -6  -3   3 5.57536 4.94498  13
  -6   3   3 7.50847 3.79009  14
  -6   3   3 5.94978 3.98331  17
  -6   3   3 1.06784 3.32435  16
  -5  -3   3 58.9639 5.84620  10
  -5  -3   3 66.7226 8.17857  12
  -5  -3   3 70.8106 8.02128  11
  -5  -3   3 32.1424 12.6435   5
  -5  -3   3 75.7376 9.12013  13
  -5  -3   3 49.4122 7.29368  14
  -5  -3   3 64.4835 8.32904  18
  -5   3   3 48.7677 7.98307  17
  -5   3   3 69.2467 8.20697  14
  -5   3   3 67.4683 7.84842  16
  -5   3   3 66.8306 9.01524  13
  -4  -3   3 97.6993 10.1553  11
  -4  -3   3 74.9933 9.98476  14
  -4  -3   3 93.6105 10.2864  12
  -4  -3   3 93.9441 8.64940  10
  -4  -3   3 89.6472 14.6706   5
  -4  -3   3 118.715 15.3907   4
  -4  -3   3 99.0898 11.1346  13
  -4  -3   3 96.5233 10.3800  18
  -4   3   3 71.3219 10.6600  17
  -4   3   3 93.4785 10.0159  16
  -4   3   3 59.9373 13.2542   7
  -4   3   3 98.7418 10.1578  14
  -4   3   3 87.6366 12.6598   6
  -4   3   3 97.0891 11.5815  13
  -4   3   3 88.0435 8.50053  10
  -4   3   3 101.045 9.58877  15
  -3  -3   3 4.88815 4.98667   5
  -3  -3   3 5.52284 4.49641   4
  -3  -3   3 6.43923 2.80198   2
  -3  -3   3 7.84995 2.94753   3
  -3   3   3 11.7431 5.12192   6
  -3   3   3 12.3166 2.42375   2
  -3   3   3 5.83091 2.82464   2
  -3   3   3 5.89399 2.25682   3
  -3   3   3 7.46955 2.66907   3
  -3   3   3 7.15395 4.98437   7
  -2  -3   3 92.8580 11.0863   5
  -2  -3   3 59.0803 8.31138   6
  -2  -3   3 83.9181 9.35306   3
  -2  -3   3 93.7119 10.6894   4
  -2  -3   3 80.2218 7.64163   1
   2  -3  -3 79.7837 7.71666   1
  -2  -3   3 71.6580 7.48583   1
  -2  -3   3 102.100 9.41788   2
   2  -3  -3 84.6503 8.11479   1
  -2   3   3 98.9873 10.3052   6
   2   3  -3 79.4415 7.78959   1
  -2   3   3 82.9109 10.9000   7
  -2   3   3 65.1285 8.79183   2
  -2   3   3 77.6703 7.42487   1
  -2   3   3 100.403 9.41189   3
  -2   3   3 87.2871 8.72387   2
  -2   3   3 80.1795 7.65219   1
   2   3  -3 74.3816 7.75697   1
  -2   3   3 76.0982 9.12546   3
  -1  -3   3 88.0177 7.55893   1
   1  -3  -3 71.4438 7.59240   1
   1  -3  -3 67.9085 9.22934   3
  -1  -3   3 69.2702 7.31082   1
  -1  -3   3 78.5502 8.72970   2
  -1  -3   3 87.6901 9.87911   5
  -1  -3   3 83.9403 9.39196   3
  -1   3   3 70.2763 8.87562   6
   1   3  -3 56.6577 8.43980   2
   1   3  -3 74.9269 9.46109   3
  -1   3   3 81.4858 8.56674   2
   1   3  -3 83.7476 7.48247   1
  -1   3   3 70.0741 7.19112   1
   1   3  -3 82.1069 7.79018   1
  -1   3   3 82.3033 9.00395   3
  -1   3   3 84.3281 7.35567   1
  -1   3   3 71.1081 8.89938   3
   0  -3   3 85.7240 7.55320   1
   0  -3   3 67.9512 8.43828   2
   0  -3  -3 81.3290 7.61724   1
   0  -3  -3 80.9552 7.88632   1
   0  -3  -3 81.6406 9.43462   2
   0  -3  -3 69.1572 8.47950   4
   0  -3   3 70.0130 8.90516   3
   0  -3   3 62.4113 7.36182   1
   0  -3  -3 78.8588 9.23412   3
   0   3   3 79.0693 7.32147   1
   0   3  -3 66.4163 7.33284   1
   0   3  -3 66.2668 8.24857   2
   0   3   3 73.7744 7.59410   1
   0   3   3 70.8360 8.83350   2
   0   3   3 70.4608 8.18233   6
   0   3  -3 73.8876 9.10478   3
   0   3  -3 69.3132 7.27138   1
   0   3   3 73.9142 8.75123   3
  -1  -3  -3 310.763 24.1517   1
   1  -3   3 307.901 24.0412   1
  -1  -3  -3 312.087 30.6116   4
   1  -3   3 269.781 29.6048   3
  -1  -3  -3 287.876 24.1224   1
   1  -3   3 260.649 28.2225   2
   1  -3   3 299.097 24.0056   1
  -1  -3  -3 307.096 30.0496   3
  -1  -3  -3 329.926 28.5010   2
   1   3   3 310.266 24.1460   1
   1   3   3 267.613 28.1025   2
   1   3   3 309.172 24.0274   1
  -1   3  -3 288.673 30.6674   7
  -1   3  -3 284.361 23.9004   1
  -1   3  -3 290.866 23.8806   1
  -1   3  -3 323.941 28.2248   2
   1   3   3 254.242 28.3332   6
  -1   3  -3 311.769 29.6106   3
   1   3   3 277.399 29.7991   3
   2  -3   3 43.4004 5.04493   1
  -2  -3  -3 41.6886 5.25095   1
   2  -3   3 38.2860 4.97250   1
  -2  -3  -3 45.4567 6.43198   2
  -2  -3  -3 41.0287 5.15420   1
  -2  -3  -3 49.9991 6.87685   3
  -2  -3  -3 45.8508 7.35095   4
   2   3   3 39.9776 5.13597   1
  -2   3  -3 48.0431 6.05207   3
   2   3   3 37.8348 5.24451   1
  -2   3  -3 39.9576 4.79155   1
  -2   3  -3 51.4129 6.24991   2
  -2   3  -3 36.0515 5.38533   4
  -2   3  -3 33.5786 4.60747   1
  -2   3  -3 62.6367 7.97285   7
  -3  -3  -3 27.4954 7.00685   5
  -3  -3  -3 33.5703 4.97555   2
  -3  -3  -3 27.5122 5.29557   3
  -3  -3  -3 32.5877 7.05074   4
  -3   3  -3 34.9313 7.21780   7
  -3   3  -3 29.7448 4.66432   2
  -4  -3  -3 73.7371 8.04434  11
  -4  -3  -3 62.0274 5.90361   9
  -4  -3  -3 69.3952 7.41469   2
  -4  -3  -3 64.3439 6.49732  10
  -4  -3  -3 59.9464 7.59037   3
  -4  -3  -3 55.7627 10.9247   4
  -4  -3  -3 66.2986 8.04757  18
  -4  -3  -3 72.5667 8.09741  12
  -4  -3  -3 68.3803 8.28891  17
  -4   3  -3 63.8550 7.23425  15
  -4   3  -3 66.5812 7.71968  16
  -4   3  -3 67.8119 7.96524  14
  -4   3  -3 44.4584 10.5669   7
  -4   3  -3 66.4373 6.34474  10
  -4   3  -3 62.7280 7.91225  17
  -4   3  -3 69.8939 8.52211  18
  -5  -3  -3 34.5229 4.02475  10
  -5  -3  -3 28.1233 10.9309   4
  -5  -3  -3 38.9959 5.80949  12
  -5  -3  -3 37.8189 5.69850  11
  -5  -3  -3 41.0047 6.00346  18
  -5  -3  -3 36.0568 5.84448  17
  -5   3  -3 38.9724 4.76982  15
  -5   3  -3 34.1896 5.95246  18
  -5   3  -3 39.8512 5.68125  17
  -5   3  -3 36.3015 5.34716  16
  -5   3  -3 36.0076 3.84845  10
  -5   3  -3 16.0546 10.1397   7
  -6  -3  -3 -2.1475 4.45963  18
  -6  -3  -3 1.02851 3.79696  12
  -6   3  -3 1.09957 4.16879  18
  -6   3  -3 4.39781 2.41526  16
  -6   3  -3 3.40590 3.77463  17
  -6   3  -3 3.99346 2.87004  15
  -7  -3  -3 4.09003 4.24387  18
  -7  -3  -3 4.87517 3.08161  12
  -7   3  -3 1.36286 2.39616  18
  -7   3  -3 0.57384 1.94106  16
  -7   3  -3 -0.0583 3.73518  17
  -7  -4   3 8.00180 3.34928  12
  -7  -4   3 -0.2515 3.25087  13
  -7   4   3 8.21228 3.19701  16
  -6  -4   3 19.5414 4.49401  12
  -6  -4   3 15.0737 4.73028  13
  -6   4   3 17.0219 3.77081  17
  -6   4   3 24.4939 4.46080  14
  -6   4   3 18.6820 3.79670  16
  -5  -4   3 22.7577 4.67898  12
  -5  -4   3 37.4158 6.23723  13
  -5  -4   3 10.8545 11.8789   5
  -5  -4   3 25.6226 3.10493  10
  -5  -4   3 23.9497 4.65652  11
  -5   4   3 23.1948 4.80420  14
  -5   4   3 31.2674 4.86784  16
  -5   4   3 21.1123 8.94785   6
  -5   4   3 17.4123 5.30806  17
  -4  -4   3 -1.0323 2.74353  14
  -4  -4   3 0.03721 1.00007   9
  -4  -4   3 0.88199 3.31931   2
  -4  -4   3 1.04308 3.52963  13
  -4  -4   3 9.61786 7.74427   5
  -4  -4   3 0.45963 1.29699  10
  -4  -4   3 -1.4811 2.85653   3
  -4  -4   3 -0.9696 2.67130  12
  -4  -4   3 1.05340 2.47479  11
  -4  -4   3 -3.0515 7.77082   4
  -4   4   3 3.05938 2.67315  16
  -4   4   3 3.36758 5.36697   6
  -4   4   3 -0.3433 3.72817  17
  -4   4   3 3.93317 2.80205  14
  -4   4   3 -0.9908 2.13373  15
  -4   4   3 0.20357 1.22874  10
  -4   4   3 -10.421 7.93378   7
  -3  -4   3 17.8433 4.18867   3
  -3  -4   3 11.8049 3.54634   2
  -3  -4   3 13.1515 6.23977   5
  -3  -4   3 5.92789 6.39395   4
  -3   4   3 17.0900 6.85458   7
  -3   4   3 11.8577 3.16400   2
  -3   4   3 7.02779 3.47183   3
  -3   4   3 11.4523 4.77155   6
  -2  -4   3 13.9571 5.02417   5
  -2  -4   3 7.79467 3.65257   3
  -2  -4   3 8.53701 3.86418   2
  -2  -4   3 14.4384 5.47954   4
  -2   4   3 5.14465 3.15949   3
  -2   4   3 12.3679 5.51510   7
  -2   4   3 6.87829 4.46613   6
  -2   4   3 9.19340 2.95109   2
  -1  -4   3 164.872 16.0705   2
  -1  -4   3 152.474 17.2949   5
  -1  -4   3 167.242 16.5682   3
   1  -4  -3 157.496 13.9109   1
  -1  -4   3 143.109 13.4780   1
   1  -4  -3 144.101 13.7516   1
  -1  -4   3 128.209 13.0720   1
   1   4  -3 141.255 13.4373   1
  -1   4   3 135.995 13.2167   1
   1   4  -3 151.556 13.5532   1
  -1   4   3 160.021 16.2139   6
  -1   4   3 134.791 13.3149   1
  -1   4   3 163.853 15.6698   2
  -1   4   3 171.119 16.6575   3
   0  -4  -3 1.54380 4.17491   2
   0  -4  -3 2.07209 4.17839   3
   0  -4   3 0.90992 3.40367   3
   0  -4   3 -1.0943 2.75921   1
   0  -4   3 5.32454 3.29284   2
   0  -4  -3 0.28753 3.39902   1
   0  -4   3 -0.8129 2.85669   1
   0  -4  -3 0.75759 2.40292   4
   0  -4  -3 2.33835 3.31752   1
   0   4   3 0.98787 2.60506   1
   0   4   3 2.07611 3.61284   3
   0   4   3 0.96285 2.37878   6
   0   4  -3 3.11137 3.15040   1
   0   4   3 2.87064 3.68033   2
   0   4  -3 9.98469 3.17139   1
   0   4   3 2.47762 2.86770   1
   0   4  -3 2.70881 3.79280   3
   0   4  -3 -0.3552 2.81786   2
  -1  -4  -3 34.9714 6.10736   3
  -1  -4  -3 30.8078 5.86035   4
  -1  -4  -3 40.4584 6.20940   2
  -1  -4  -3 26.2612 4.42629   1
  -1  -4  -3 27.7537 4.81593   1
   1  -4   3 34.7980 4.87706   1
   1  -4   3 22.4476 4.24498   1
   1   4   3 31.8391 5.74811   3
  -1   4  -3 45.4914 6.51561   7
  -1   4  -3 33.0331 4.75798   1
  -1   4  -3 38.3167 6.02977   2
  -1   4  -3 30.7017 4.50050   1
   1   4   3 27.7297 5.43727   2
   1   4   3 28.4414 4.45832   1
   1   4   3 43.4437 5.03459   1
  -1   4  -3 41.3068 5.82390   3
  -2  -4  -3 10.8621 4.61090   4
  -2  -4  -3 15.8830 4.60560   3
  -2  -4  -3 10.5849 4.50896   2
  -2   4  -3 19.8663 4.29816   2
  -2   4  -3 14.0919 4.95390   7
  -2   4  -3 10.9332 3.81883   3
  -3  -4  -3 15.1119 4.77772   3
  -3  -4  -3 7.03344 5.68262   5
  -3  -4  -3 3.49083 5.03020   4
  -3  -4  -3 3.81552 3.66919   2
  -3   4  -3 13.4190 5.80518   7
  -3   4  -3 9.70353 3.54755   3
  -3   4  -3 10.1010 3.88694   2
  -4  -4  -3 0.11161 3.85015   2
  -4  -4  -3 -1.0474 1.05956   9
  -4  -4  -3 -1.3915 2.59794  11
  -4  -4  -3 5.07015 6.33720   4
  -4  -4  -3 -0.4573 2.93757  12
  -4  -4  -3 2.69521 3.55353  13
  -4  -4  -3 -1.5457 1.72940  10
  -4  -4  -3 4.29530 3.61515   3
  -4  -4  -3 2.99989 3.21691  18
  -4   4  -3 -2.0168 3.10405  18
  -4   4  -3 -0.8816 2.55929  16
  -4   4  -3 -0.1288 2.63225   3
  -4   4  -3 -0.9024 1.47743  10
  -4   4  -3 -0.2685 0.97354   9
  -4   4  -3 1.30911 2.76276  17
  -4   4  -3 4.32584 2.22511  15
  -4   4  -3 0.65092 6.65843   7
  -4   4  -3 -1.1037 3.03262   2
  -5  -4  -3 80.8209 10.9795  13
  -5  -4  -3 91.4303 10.9619  18
  -5  -4  -3 100.003 11.0257  12
  -5  -4  -3 91.0243 8.72709  10
  -5   4  -3 90.9714 10.9080  18
  -5   4  -3 84.3199 8.39707  10
  -5   4  -3 96.0490 10.2717  16
  -5   4  -3 89.0246 9.31369  15
  -5   4  -3 50.4919 14.7800   7
  -5   4  -3 92.3342 10.6645  17
  -6  -4  -3 5.25665 4.58463  18
  -6  -4  -3 -1.7518 4.19525  12
  -6   4  -3 2.22033 4.09290  18
  -6   4  -3 3.57578 2.68736  17
  -6   4  -3 8.68518 3.30049  16
  -7  -4  -3 6.00659 2.54479  12
  -7   4  -3 12.1293 2.41345  16
  -7   4  -3 8.45245 2.35261  18
  -7   4  -3 14.5023 3.32436  17
  -7  -5   3 2.08442 3.26579  13
  -7  -5   3 0.55291 2.18725  12
  -7   5   3 -0.9458 2.68635  16
  -6  -5   3 8.52765 5.37478  13
  -6  -5   3 0.99139 3.41063  12
  -6   5   3 2.86027 3.89575  17
  -6   5   3 3.61743 2.64462  16
  -5  -5   3 134.656 15.2194  11
  -5  -5   3 145.161 13.2028  10
  -5  -5   3 106.218 23.2730   5
  -5  -5   3 158.937 17.0037  13
  -5  -5   3 138.729 15.4013  12
  -5   5   3 147.182 14.7695  16
  -5   5   3 174.926 15.3099  14
  -5   5   3 108.706 15.7773  17
  -5   5   3 132.917 12.8760  10
  -4  -5   3 125.031 13.4283  11
  -4  -5   3 140.721 14.8511  13
  -4  -5   3 127.043 11.2201   9
  -4  -5   3 65.7010 17.1662   5
  -4  -5   3 126.201 14.0271   2
  -4  -5   3 118.709 13.5405  12
  -4  -5   3 106.147 14.5731   3
  -4  -5   3 130.755 11.9367  10
  -4   5   3 139.242 17.0132   6
  -4   5   3 124.733 11.5694  10
  -4   5   3 93.2793 18.5351   7
  -4   5   3 120.628 12.5729  15
  -4   5   3 109.390 14.0453  17
  -4   5   3 141.338 13.0280  14
  -4   5   3 127.544 13.2692  16
  -3  -5   3 14.9468 3.53987  12
  -3  -5   3 22.6714 3.12145  10
  -3  -5   3 19.3138 7.44668   5
  -3  -5   3 17.5928 2.83554   9
  -3  -5   3 22.7009 4.61733  13
  -3  -5   3 12.0871 5.29531   3
  -3  -5   3 22.5650 3.73348  11
  -3  -5   3 27.3799 5.75966   2
  -3  -5   3 16.4783 2.16834   8
  -3   5   3 17.9106 3.48672  16
  -3   5   3 28.8085 3.04425  10
  -3   5   3 23.9791 7.36241   6
  -3   5   3 22.0757 4.39162  17
  -3   5   3 26.8057 3.91915  14
  -3   5   3 21.6610 2.60194   9
  -3   5   3 19.6348 4.82266   3
  -3   5   3 17.6309 4.52530   2
  -3   5   3 21.7964 3.23148  15
  -3   5   3 24.8430 8.35841   7
  -2  -5   3 5.13033 4.59035   3
  -2  -5   3 7.34991 4.33427   2
  -2  -5   3 8.47370 5.40694   5
  -2   5   3 6.71984 3.24008   2
  -2   5   3 3.10388 3.48534   3
  -2   5   3 2.15949 4.68794   7
  -2   5   3 11.8635 4.54729   6
  -1  -5   3 104.617 11.8368   1
  -1  -5   3 139.267 14.6927   3
  -1  -5   3 105.534 13.7779   2
  -1   5   3 108.040 11.5073   1
  -1   5   3 124.066 13.3869   6
  -1   5   3 117.375 13.6304   3
  -1   5   3 123.331 13.5863   2
   0  -5  -3 47.4391 8.29045   2
   0  -5   3 51.5456 8.09291   2
   0  -5  -3 67.0279 9.57658   3
   0  -5   3 47.1677 6.51737   1
   0  -5  -3 36.4486 7.51212   1
   0  -5   3 59.8297 8.46874   3
   0  -5   3 52.7150 7.00971   1
   0  -5  -3 50.7232 7.31380   1
   0   5  -3 72.5100 8.67875   3
   0   5  -3 46.3018 6.46008   1
   0   5   3 47.7372 6.73813   1
   0   5  -3 45.4729 6.71497   1
   0   5   3 57.2381 6.77958   1
   0   5   3 75.1737 9.12120   3
   0   5   3 71.2414 8.55043   2
   0   5   3 40.9757 6.70280   6
   0   5  -3 55.0691 7.91289   2
  -1  -5  -3 71.9885 10.1325   4
  -1  -5  -3 92.0946 10.6649   2
  -1  -5  -3 90.2211 11.1212   3
  -1  -5  -3 61.3153 8.55343   1
   1   5   3 58.4287 8.37470   1
  -1   5  -3 82.6481 10.1840   3
  -1   5  -3 64.8988 8.04263   1
  -1   5  -3 95.1530 10.8587   7
  -1   5  -3 74.4927 9.58984   2
  -2  -5  -3 10.0730 5.58962   4
  -2  -5  -3 3.37891 4.48253   3
  -2  -5  -3 1.79169 3.94684   2
  -2   5  -3 8.50906 5.20458   7
  -2   5  -3 8.63338 4.32808   2
  -3  -5  -3 31.0130 7.89195   4
  -3  -5  -3 38.1640 3.70711   8
  -3  -5  -3 37.0191 4.41246   9
  -3  -5  -3 46.5164 5.80084  18
  -3  -5  -3 35.0366 7.11481   2
  -3  -5  -3 39.1275 5.46790  12
  -3  -5  -3 39.0785 11.5032   5
  -3  -5  -3 43.4327 8.33843   3
  -3  -5  -3 51.2848 4.96699  10
  -3   5  -3 51.3253 7.13983   2
  -3   5  -3 37.8375 4.61151  15
  -3   5  -3 44.4437 6.65120   3
  -3   5  -3 35.7710 4.31755  10
  -3   5  -3 35.2525 5.22287  18
  -3   5  -3 38.0070 4.98520  17
  -3   5  -3 38.5393 4.96166  16
  -3   5  -3 33.8918 4.17361   9
  -3   5  -3 30.5474 3.24044   8
  -3   5  -3 29.9109 8.29179   7
  -4  -5  -3 175.840 14.7601   9
  -4  -5  -3 168.759 18.3008   2
  -4  -5  -3 152.549 17.1466  11
  -4  -5  -3 166.431 17.1187  18
  -4  -5  -3 160.999 18.3260  13
  -4  -5  -3 180.172 17.6159  12
  -4  -5  -3 160.334 15.4312  10
  -4  -5  -3 144.169 18.5897   3
  -4  -5  -3 175.007 23.7157   4
  -4   5  -3 164.061 15.2166  10
  -4   5  -3 173.225 16.1051  15
  -4   5  -3 174.135 16.6965   2
  -4   5  -3 163.050 16.8576  16
  -4   5  -3 147.960 17.0328  18
  -4   5  -3 176.573 21.7934   7
  -4   5  -3 158.621 14.4626   9
  -4   5  -3 149.442 17.3515   3
  -4   5  -3 155.582 17.0803  17
  -5  -5  -3 28.1152 4.10328  10
  -5  -5  -3 40.1938 5.95119  18
  -5  -5  -3 26.1705 5.67623  12
  -5  -5  -3 30.1040 5.85681  13
  -5   5  -3 35.6882 3.63915  10
  -5   5  -3 28.3674 4.39005  16
  -5   5  -3 22.9784 5.34683  18
  -5   5  -3 29.3440 12.5827   7
  -5   5  -3 26.0760 4.47915  15
  -5   5  -3 30.8173 5.40569  17
  -6  -5  -3 14.3926 4.92801  12
  -6   5  -3 14.2720 3.37627  17
  -6   5  -3 6.30688 3.24509  16
  -6   5  -3 11.1266 3.99901  18
  -7  -5  -3 -4.2432 2.07643  12
  -7   5  -3 0.90036 3.55312  17
  -7   5  -3 3.50125 1.79801  16
  -7  -6   3 21.9338 4.23879  13
  -7  -6   3 19.0948 3.15552  12
  -7   6   3 12.5711 2.66259  16
  -6  -6   3 6.74616 2.95496  12
  -6  -6   3 2.20202 4.04858  13
  -6   6   3 6.94029 3.32684  16
  -6   6   3 10.3723 3.07472  17
  -5  -6   3 -1.9953 5.10630  13
  -5  -6   3 2.24524 1.86757  10
  -5  -6   3 -2.2860 3.44106  12
  -5  -6   3 6.27782 3.94633  11
  -5   6   3 -0.5192 3.49971  16
  -5   6   3 3.52644 4.26267  17
  -4  -6   3 12.4194 6.05646   2
  -4  -6   3 16.0267 3.78949  12
  -4  -6   3 12.6958 2.33419   9
  -4  -6   3 14.4054 5.27898  13
  -4  -6   3 16.2860 2.83517  10
  -4  -6   3 2.59215 5.69459   3
  -4  -6   3 9.83648 3.59243  11
  -4  -6   3 6.57547 10.7534   5
  -4   6   3 9.41249 4.48748  17
  -4   6   3 13.4541 2.49985  10
  -4   6   3 2.68593 12.4726   7
  -4   6   3 0.78197 4.54823   3
  -4   6   3 6.42595 4.41598   2
  -4   6   3 10.9827 8.12940   6
  -4   6   3 12.6627 3.00922  16
  -3  -6   3 -0.3852 1.23960   8
  -3  -6   3 0.82506 2.56988  12
  -3  -6   3 -0.4724 5.66071   2
  -3  -6   3 5.23774 7.18341   5
  -3  -6   3 -0.9873 4.35015   3
  -3  -6   3 0.34039 2.15303   9
  -3  -6   3 2.25501 3.27011  11
  -3  -6   3 -2.6846 1.96733  10
  -3  -6   3 2.19449 3.93031  13
  -3   6   3 0.71886 1.63619   9
  -3   6   3 2.93953 6.76206   6
  -3   6   3 -2.3540 4.33976   2
  -3   6   3 -0.7763 2.26138  16
  -3   6   3 1.11054 3.31761  17
  -3   6   3 2.27974 2.01880  15
  -3   6   3 2.19834 1.72609  10
  -3   6   3 8.64074 8.27929   7
  -3   6   3 -3.0323 3.90396   3
  -2  -6   3 51.4977 5.85676   9
  -2  -6   3 53.0012 5.11261   8
  -2  -6   3 54.6424 8.97761   2
  -2  -6   3 59.3192 10.8812   5
  -2  -6   3 66.1407 10.1890   3
  -2   6   3 47.7418 5.40492   9
  -2   6   3 50.6831 6.16052  16
  -2   6   3 50.4010 4.89973   8
  -2   6   3 61.5050 10.3904   7
  -2   6   3 55.0084 8.14882   2
  -2   6   3 48.5052 8.71666   6
  -2   6   3 62.4996 9.16469   3
  -1  -6   3 60.6325 9.95693   3
  -1  -6   3 76.6311 11.6285   5
  -1  -6   3 48.6556 9.21307   2
  -1   6   3 58.9478 9.42218   3
  -1   6   3 67.6516 9.60020   2
  -1   6   3 71.9354 9.77606   6
   0   6   3 127.421 14.0518   2
   0   6   3 103.136 13.8658   3
   0   6  -3 111.161 13.6701   2
  -1  -6  -3 27.5960 8.72988   2
  -1  -6  -3 49.4909 9.21046   3
  -1   6  -3 53.5782 8.89928   2
  -1   6  -3 57.8281 9.11812   7
  -2  -6  -3 44.0894 4.46018   8
  -2  -6  -3 47.5517 9.49185   2
  -2  -6  -3 49.6507 9.05587   3
  -2  -6  -3 37.4354 8.91031   4
  -2   6  -3 46.6635 9.24253   7
  -2   6  -3 44.5353 8.33116   2
  -2   6  -3 41.5485 4.09137   8
  -2   6  -3 38.9792 7.18228   3
  -2   6  -3 38.3891 4.60506   9
  -3  -6  -3 11.2666 7.08569   2
  -3  -6  -3 7.55323 3.39002  12
  -3  -6  -3 3.04818 9.67574   5
  -3  -6  -3 8.70620 2.95615  10
  -3  -6  -3 7.86161 6.77073   3
  -3  -6  -3 6.59714 1.80420   8
  -3  -6  -3 6.72218 8.69789   4
  -3  -6  -3 10.5513 2.80962   9
  -3   6  -3 7.40865 2.42041  15
  -3   6  -3 8.29913 4.77536   3
  -3   6  -3 6.46881 1.17312   8
  -3   6  -3 7.78620 3.18983  18
  -3   6  -3 -0.9646 6.73736   7
  -3   6  -3 7.63634 2.69939  16
  -3   6  -3 6.41127 2.02559   9
  -3   6  -3 9.65037 2.20175  10
  -3   6  -3 7.12026 3.01946  17
  -3   6  -3 3.71158 5.16719   2
  -4  -6  -3 -0.0801 4.57376  13
  -4  -6  -3 7.96228 3.77358  12
  -4  -6  -3 4.01352 1.89646   9
  -4  -6  -3 8.64120 6.49699   3
  -4  -6  -3 1.45562 7.32058   2
  -4  -6  -3 -3.9214 2.92220  10
  -4   6  -3 4.61479 3.41266  18
  -4   6  -3 -7.9706 4.82193   3
  -4   6  -3 1.29654 1.73922  10
  -4   6  -3 4.25432 2.85789  16
  -4   6  -3 8.62918 9.59974   7
  -4   6  -3 0.61987 2.32735  17
  -4   6  -3 -3.2700 4.74975   2
  -4   6  -3 8.13995 2.64531  15
  -5  -6  -3 1.35574 3.22910  13
  -5  -6  -3 5.66991 2.50005  10
  -5  -6  -3 4.71626 4.48508  12
  -5   6  -3 2.59813 2.81830  17
  -5   6  -3 -0.4881 2.86981  16
  -5   6  -3 10.3634 3.86226  18
  -5   6  -3 4.58091 1.77372  10
  -6  -6  -3 23.3625 5.90131  12
  -6   6  -3 31.9124 4.50019  17
  -6   6  -3 22.7995 3.74355  16
  -7  -6  -3 12.1394 3.36187  12
  -7   6  -3 14.8465 2.38747  16
  -7   6  -3 21.3188 3.82218  17
  -6  -7   3 71.9432 9.06560  12
  -6  -7   3 94.2624 10.7583  13
  -6   7   3 86.9454 9.14904  17
  -5  -7   3 5.31738 2.69647  10
  -5  -7   3 2.49971 3.17843  12
  -5  -7   3 -6.4700 5.46241  13
  -5   7   3 5.01514 3.39099  16
  -5   7   3 7.68339 4.08202  17
  -4  -7   3 155.926 17.3081  13
  -4  -7   3 146.200 13.1220   9
  -4  -7   3 140.119 13.7256  10
  -4  -7   3 123.159 15.2779  12
  -4   7   3 137.558 13.3150  10
  -4   7   3 143.825 14.9697  16
  -4   7   3 149.141 15.8199  17
  -3  -7   3 20.7589 2.85763   8
  -3  -7   3 19.0541 11.0601   5
  -3  -7   3 16.0406 7.22130   2
  -3  -7   3 29.0781 4.19569  10
  -3  -7   3 23.9729 3.56318   9
  -3  -7   3 12.9497 6.86244   3
  -3  -7   3 35.8459 6.32004  13
  -3   7   3 14.6714 10.7635   7
  -3   7   3 23.6616 4.78782  17
  -3   7   3 24.8931 3.12132   9
  -3   7   3 23.3444 4.12597  16
  -3   7   3 19.3009 6.67797   3
  -3   7   3 29.5139 7.52993   2
  -3   7   3 30.1983 3.95682  10
  -2  -7   3 6.10949 2.95750  10
  -2  -7   3 6.81265 2.65699   9
  -2  -7   3 8.03395 7.68475   5
  -2  -7   3 8.94856 2.07429   8
  -2  -7   3 1.97411 6.23684   2
  -2  -7   3 3.91038 6.50380   3
  -2   7   3 9.61870 2.63097  16
  -2   7   3 6.93399 1.49130   8
  -2   7   3 2.19808 7.24809   7
  -2   7   3 6.01622 2.34829  10
  -2   7   3 3.00439 5.33670   6
  -2   7   3 8.40410 2.10403   9
  -2   7   3 11.3709 6.52379   2
  -2   7   3 -2.3453 5.61247   3
  -1  -7   3 13.3727 2.61962   8
  -1  -7   3 9.13590 6.67624   2
  -1  -7   3 2.76548 6.15681   3
  -1  -7   3 8.76140 6.41313   5
  -1   7   3 15.2472 2.15829   8
  -1   7   3 12.1776 2.62878  16
  -1   7   3 10.5853 2.53102   9
  -1   7   3 11.9750 5.72459   3
  -1   7   3 17.8285 6.24581   2
  -1  -7  -3 63.6230 6.44563   8
  -1   7  -3 59.7751 5.96564   8
  -1   7  -3 81.4726 11.6650   7
  -1   7  -3 39.8923 9.46097   3
  -1   7  -3 80.0469 11.0706   2
  -2  -7  -3 5.56723 7.16943   3
  -2  -7  -3 7.96736 3.86135  12
  -2  -7  -3 7.21135 2.90917   9
  -2  -7  -3 3.92343 8.15947   2
  -2  -7  -3 1.26944 2.64559   8
  -2   7  -3 4.95110 2.38261  10
  -2   7  -3 3.86514 1.97705   9
  -2   7  -3 -4.1803 5.21364   2
  -2   7  -3 6.06487 1.70450   8
  -2   7  -3 0.82981 6.63936   7
  -2   7  -3 6.31240 5.15488   3
  -3  -7  -3 22.8659 13.8097   5
  -3  -7  -3 35.0841 10.7911   3
  -3  -7  -3 33.1090 11.1229   2
  -3  -7  -3 35.5358 5.59497  12
  -3  -7  -3 32.4217 4.50128   9
  -3  -7  -3 35.7810 5.07221  10
  -3  -7  -3 26.4405 3.63538   8
  -3   7  -3 31.5177 8.22138   3
  -3   7  -3 34.0904 5.03233  17
  -3   7  -3 32.7366 4.73475  18
  -3   7  -3 33.0230 3.79488   9
  -3   7  -3 17.8997 10.0409   7
  -3   7  -3 29.5678 4.08499  10
  -3   7  -3 30.4611 2.93744   8
  -3   7  -3 30.8093 8.31264   2
  -4  -7  -3 86.9853 8.34896   9
  -4  -7  -3 85.8877 10.7343  12
  -4  -7  -3 30.9518 15.0291   4
  -4  -7  -3 89.4866 9.16383  10
  -4  -7  -3 87.5941 11.8596  13
  -4   7  -3 91.0021 8.47122  10
  -4   7  -3 97.2496 10.2454  17
  -4   7  -3 65.4451 16.0145   7
  -4   7  -3 71.5840 9.61572  18
  -4   7  -3 71.8650 9.38969  16
  -5  -7  -3 21.7909 5.86377  13
  -5  -7  -3 41.4843 4.62708  10
  -5  -7  -3 36.4724 6.35907  12
  -5   7  -3 27.5850 4.43538  16
  -5   7  -3 28.3514 5.20075  17
  -5   7  -3 22.4317 3.20087  10
  -6  -7  -3 16.7853 5.02707  12
  -6   7  -3 11.6698 2.81878  16
  -6   7  -3 26.8642 3.78861  17
  -6  -8   3 5.66552 2.74959  12
  -6  -8   3 -0.6580 3.60018  13
  -6   8   3 6.00824 2.17839  17
  -6   8   3 4.50844 2.12866  16
  -5  -8   3 12.9322 5.02211  13
  -5  -8   3 17.6861 3.01863  10
  -5  -8   3 16.2217 3.96666  12
  -5   8   3 13.5653 3.35784  16
  -5   8   3 15.0074 4.26047  17
  -4  -8   3 23.3198 4.17375  10
  -4  -8   3 26.4254 5.92094  13
  -4  -8   3 24.3483 3.69573   9
  -4   8   3 21.6487 3.75825  16
  -4   8   3 24.1088 5.01758  17
  -3  -8   3 7.02644 3.35574  10
  -3  -8   3 1.26694 12.9965   5
  -3  -8   3 0.86123 2.49451   9
  -3  -8   3 2.25034 1.80578   8
  -3  -8   3 -2.6746 4.90246  13
  -3   8   3 -0.9816 2.07015  10
  -3   8   3 -0.5664 2.61996  16
  -3   8   3 -1.7198 3.45521  17
  -3   8   3 3.04117 1.80115   9
  -3   8   3 -4.4013 11.5148   7
  -2  -8   3 21.9095 11.1448   5
  -2  -8   3 31.7539 11.5841   2
  -2  -8   3 18.3853 3.66440   9
  -2  -8   3 -3.5593 8.09801   3
  -2  -8   3 18.8317 2.90756   8
  -2   8   3 13.6743 3.19155  16
  -2   8   3 10.9265 7.15319   3
  -2   8   3 18.3890 3.36315  10
  -2   8   3 12.2786 9.56835   7
  -2   8   3 20.3502 3.05939   9
  -2   8   3 16.5942 9.63857   2
  -1  -8   3 31.6658 12.3368   5
  -1  -8   3 22.5267 3.66038   8
  -1   8   3 14.7274 8.97347   3
  -1   8   3 24.1272 3.72270   9
  -1   8   3 7.91323 8.28579   2
  -1   8   3 29.5751 3.19918   8
   0   8   3 6.01418 2.15451   8
  -1  -8  -3 18.8374 3.35150   8
  -1   8  -3 13.0754 2.46053   8
  -1   8  -3 17.9129 8.26308   7
  -2  -8  -3 -21.931 11.7473   2
  -2  -8  -3 5.53149 10.2339   3
  -2  -8  -3 0.53098 3.27824  12
  -2  -8  -3 4.39750 3.19114   9
  -2  -8  -3 5.02174 2.55344   8
  -2   8  -3 -7.1800 8.21396   7
  -2   8  -3 3.14753 7.57403   2
  -2   8  -3 3.74209 1.87398   8
  -2   8  -3 2.74975 2.19954   9
  -2   8  -3 -3.5895 6.22571   3
  -2   8  -3 2.66126 2.45282  10
  -3  -8  -3 5.60951 2.40904   8
  -3  -8  -3 3.66962 3.76765  12
  -3  -8  -3 -3.9219 15.4479   5
  -3  -8  -3 2.30395 2.89405   9
  -3  -8  -3 0.46116 3.48789  10
  -3   8  -3 7.77733 3.10409  18
  -3   8  -3 -11.248 10.5575   7
  -3   8  -3 11.5587 2.60279  10
  -3   8  -3 3.37518 2.43059   9
  -3   8  -3 6.18828 3.41340  17
  -4  -8  -3 5.67927 4.50366  12
  -4  -8  -3 16.5065 3.02405   9
  -4  -8  -3 9.97756 6.06169  13
  -4   8  -3 10.8765 2.73666  10
  -4   8  -3 17.8885 3.59225  17
  -5  -8  -3 0.63605 3.29994  13
  -5  -8  -3 2.03517 2.99657  12
  -5   8  -3 0.27500 2.29939  16
  -5   8  -3 8.31167 2.91210  17
  -6  -8  -3 7.34431 2.78938  12
  -6   8  -3 10.3639 2.52980  17
  -6   8  -3 5.45795 1.51905  16
  -5  -9   3 6.90843 4.24978  13
  -5   9   3 3.40959 2.37017  17
  -5   9   3 2.05138 1.60056  16
  -4  -9   3 4.23390 3.15114  10
  -4  -9   3 10.8297 4.59727  13
  -4  -9   3 12.0055 2.84202   9
  -4   9   3 2.35997 2.72948  16
  -4   9   3 1.62393 3.60709  17
  -3  -9   3 25.7117 4.14575  10
  -3  -9   3 17.3602 6.43169  13
  -3  -9   3 30.1355 3.07918   8
  -3  -9   3 17.2678 3.85568   9
  -3   9   3 21.8127 3.64245  16
  -3   9   3 34.3692 5.14512  17
  -3   9   3 25.0887 3.72727  10
  -2  -9   3 18.6814 3.94615   9
  -2  -9   3 16.9932 3.07640   8
  -2   9   3 10.9878 3.20777  10
  -1  -9   3 13.8399 3.21802   8
  -1  -9   3 9.21068 12.1949   5
  -1   9   3 10.2219 9.99978   7
   0  -9   3 32.3998 12.3969   5
   0   9  -3 28.8678 4.04745   8
   0   9  -3 15.2052 11.1827   7
   0   9   3 32.2957 3.97245   8
  -1  -9  -3 54.0606 5.85937   8
  -1   9  -3 23.7838 11.6714   7
  -1   9  -3 45.3325 5.09827   8
  -2  -9  -3 0.39802 3.20167   9
  -2   9  -3 5.95161 1.58050   8
  -2   9  -3 2.81147 3.22212  17
  -2   9  -3 3.37469 2.40959   9
  -3  -9  -3 102.644 12.8386  12
  -3  -9  -3 127.589 11.5804   9
  -3   9  -3 106.790 10.6495   9
  -3   9  -3 114.187 11.1096  10
  -3   9  -3 121.089 12.7926  17
  -4  -9  -3 2.21905 3.79307  13
  -4  -9  -3 1.70803 3.77840  12
  -4   9  -3 11.6647 3.02544  17
  -4   9  -3 6.13954 2.29721  10
  -5  -9  -3 6.52112 4.16068  13
  -5  -9  -3 11.6662 3.86214  12
  -5   9  -3 5.50175 2.64000  17
  -5 -10   3 5.99623 3.52317  13
  -5 -10   3 4.37960 2.13951  10
  -5  10   3 6.81776 1.92326  17
  -4 -10   3 7.20096 2.17160   9
  -4 -10   3 6.89325 5.67968  13
  -4 -10   3 7.11936 2.41547  10
  -4  10   3 4.51791 3.27581  17
  -3 -10   3 2.39690 4.07691  13
  -3 -10   3 5.82957 3.78762  10
  -3 -10   3 8.40543 2.45582   9
  -3  10   3 9.08522 2.82678  17
  -2 -10   3 11.5872 5.83522  13
  -2 -10   3 17.5268 4.13378   9
  -2 -10   3 15.9542 3.08934   8
  -1 -10   3 5.78958 3.15695   8
   0 -10   3 15.3256 4.02819   8
   0  10  -3 14.9285 3.19275   8
  -1  10  -3 37.3593 5.47023   9
  -1  10  -3 44.6892 4.82916   8
  -2  10  -3 7.11978 2.66009   9
  -2  10  -3 1.48634 3.38868  17
  -3 -10  -3 11.2598 4.44935  13
  -3  10  -3 8.59428 2.80320  10
  -3  10  -3 14.1054 3.06025  17
  -4 -10  -3 16.6937 4.31167  13
  -4  10  -3 17.6663 4.03773  17
  -4  10  -3 16.3149 2.74052  10
  -5  10  -3 20.7917 3.18981  17
  -4 -11   3 14.4098 4.02809  13
  -4  11   3 17.4587 2.86485  17
  -3 -11   3 23.5210 3.65618   9
  -3 -11   3 23.6620 3.77597  10
  -3 -11   3 17.8739 5.99726  13
  -3  11   3 19.4362 4.09536  17
  -2 -11   3 -1.7647 1.86676   8
  -2 -11   3 1.29274 2.33106   9
  -2 -11   3 -1.7067 4.97125  13
  -2  11   3 -0.2262 2.22525  17
  -1 -11   3 6.75720 2.99836   8
   0 -11   3 3.77834 2.58167   8
   0  11  -3 6.11278 1.94388   8
  -1  11  -3 14.6093 3.70686   9
  -1  11  -3 25.1373 4.24218  17
  -2  11  -3 8.73533 2.74943  17
  -2  11  -3 5.27075 2.42212   9
  -3 -11  -3 12.1291 4.00258  13
  -3  11  -3 14.6454 2.90857  10
  -3  11  -3 13.7855 3.05039  17
  -4 -11  -3 2.65422 3.58475  13
  -4  11  -3 3.13967 2.05747  17
  -3 -12   3 2.56738 1.84668   9
  -3 -12   3 0.21997 2.75529  13
  -3  12   3 3.41723 1.78738  17
  -2 -12   3 10.1457 3.61325  13
  -2 -12   3 15.2720 2.79916   9
  -2  12   3 17.4849 2.97909  17
  -1 -12   3 2.39943 1.68355   8
  -1 -12   3 0.09296 2.91473  13
  -1  12   3 5.89590 2.45877  17
  -1  12   3 1.95159 0.95489   8
   0  12  -3 12.0750 3.35005  17
  -1  12  -3 7.11167 2.43024  17
  -2 -12  -3 -2.4770 4.26325  13
  -2  12  -3 5.00360 2.78467  17
  -7   0   4 10.8196 3.33372  14
  -7   0   4 6.24275 3.65572  13
  -7   0   4 9.61949 2.61269  12
  -6   0   4 73.6611 8.79501  18
  -6   0   4 57.4306 7.99313  14
  -6   0   4 68.0251 7.78595  11
  -6   0   4 81.5629 8.83115  12
  -5   0   4 4.56463 4.16504  13
  -5   0   4 -0.0060 2.65704  16
  -5   0   4 0.19342 2.90406  12
  -5   0   4 2.88733 2.94642  15
  -5   0   4 7.51813 3.10555  14
  -5   0   4 7.52206 2.59305  11
  -5   0   4 -2.8390 10.4258   5
  -5   0   4 5.93494 2.71270  18
  -4   0   4 189.532 23.4641   6
  -4   0   4 270.808 26.5344   5
  -3   0   4 454.936 51.3598   7
  -3   0   4 519.758 49.6587   6
  -3   0   4 558.356 53.1367   5
   2   0  -4 184.994 14.7698   1
  -2   0   4 169.088 17.1615   2
  -2   0   4 189.612 20.3103   5
  -2   0   4 176.951 14.6558   1
  -2   0   4 203.245 18.2003   3
  -2   0   4 201.148 17.3929   2
  -2   0   4 171.623 18.2277   3
  -2   0   4 156.766 18.6243   7
  -2   0   4 176.116 14.5812   1
   2   0  -4 180.159 14.5955   1
  -2   0   4 185.047 18.7037   6
  -1   0   4 279.331 21.7246   1
  -1   0   4 276.988 27.0190   3
  -1   0   4 281.551 25.6249   2
   1   0  -4 295.489 21.7739   1
  -1   0   4 270.426 28.2629   5
  -1   0   4 276.759 21.7448   1
  -1   0   4 221.023 26.8752   3
   1   0  -4 303.623 21.7550   1
  -1   0   4 232.843 25.4799   2
   0   0   4 21.8173 4.00138   2
   0   0   4 22.0021 3.04921   1
   0   0   4 16.3020 3.52651   3
   0   0   4 20.4451 3.28869   1
   0   0   4 15.0947 3.34911   5
   0   0  -4 17.3648 2.80400   1
   0   0  -4 18.3883 3.35015   3
   0   0  -4 18.6585 3.12600   1
   0   0  -4 21.7967 3.85689   2
   0   0  -4 14.6291 2.77845   7
  -1   0  -4 745.002 61.6074   1
   1   0   4 712.010 72.6645   2
   1   0   4 801.113 61.7903   1
   1   0   4 850.779 61.7942   1
  -1   0  -4 788.247 76.8294   3
  -1   0  -4 821.614 79.4004   7
  -1   0  -4 816.594 72.6216   2
   1   0   4 698.304 76.9111   3
  -1   0  -4 850.796 61.6864   1
   2   0   4 131.948 11.9525   1
  -2   0  -4 159.159 14.2944   2
  -2   0  -4 133.530 14.6417   3
  -2   0  -4 143.596 11.7878   1
  -2   0  -4 145.822 16.0058   7
  -2   0  -4 136.976 12.0462   1
  -2   0  -4 150.892 16.0672   4
   2   0   4 151.672 12.1268   1
  -2   0  -4 146.357 14.4616   3
  -2   0  -4 110.769 13.6343   2
  -3   0  -4 685.253 64.4586   2
  -3   0  -4 736.064 64.6775   2
   3   0   4 650.315 54.8808   1
  -3   0  -4 729.040 71.9872   7
  -3   0  -4 623.510 54.6911   1
  -3   0  -4 682.069 68.4603   3
  -3   0  -4 740.547 71.1915   4
  -3   0  -4 764.679 68.3310   3
  -4   0  -4 1004.70 99.3951   4
  -4   0  -4 952.249 100.473   7
  -5   0  -4 2.68946 2.76919  16
  -5   0  -4 3.38625 0.94275  10
  -5   0  -4 1.98368 2.26916  15
  -5   0  -4 2.85628 2.77925  11
  -5   0  -4 4.01730 3.20357  17
  -5   0  -4 -0.5341 7.33441   4
  -5   0  -4 4.55632 8.19015   7
  -5   0  -4 1.68839 3.30088  12
  -5   0  -4 2.83881 3.67009  18
  -6   0  -4 371.881 36.9070  18
  -6   0  -4 368.243 36.6159  16
  -6   0  -4 371.374 37.0642  17
  -7   0  -4 2.85568 2.77395  17
  -7   0  -4 5.06925 3.31625  18
  -8   0  -4 39.9541 5.05645  18
  -7  -1   4 4.46231 4.76862  13
  -7  -1   4 1.77244 1.93698  14
  -7  -1   4 4.71074 3.13517  12
  -7  -1   4 -0.2990 1.88429  11
  -7   1   4 -0.7924 3.12291  13
  -7   1   4 1.89235 2.21986  14
  -6  -1   4 15.8172 3.29125  12
  -6  -1   4 16.2231 3.66719  11
  -6  -1   4 26.3233 5.58718  13
  -6  -1   4 16.5190 3.95023  18
  -6  -1   4 9.92166 3.83674  14
  -6   1   4 16.8396 3.24136  12
  -6   1   4 14.6403 5.47689  13
  -6   1   4 10.1436 3.05382  11
  -6   1   4 10.5903 3.88587  14
  -6   1   4 11.1112 3.61948  16
  -5  -1   4 17.0495 3.95596  13
  -5  -1   4 9.40995 2.98571  11
  -5  -1   4 13.0855 3.32285  18
  -5  -1   4 18.3826 3.74592  14
  -5  -1   4 10.8084 3.59131  12
  -5  -1   4 11.7708 9.32275   5
  -5  -1   4 6.63210 2.61741  15
  -5   1   4 11.6820 4.81820  13
  -5   1   4 11.2908 3.34982  12
  -5   1   4 15.2499 2.92070  11
  -5   1   4 9.01155 10.9371   5
  -5   1   4 16.3297 3.13222  15
  -5   1   4 10.7285 3.52244  14
  -5   1   4 2.24071 7.20685   6
  -5   1   4 8.68812 3.11538  16
  -4  -1   4 13.7317 7.03472   5
  -4  -1   4 6.88949 2.77234  12
  -4  -1   4 8.42324 5.01465   6
  -4  -1   4 18.7692 4.09402  13
  -4   1   4 11.3215 4.08715  13
  -4   1   4 20.5731 3.43320  14
  -4   1   4 19.5762 7.38773   5
  -4   1   4 22.9823 5.76847   6
  -3  -1   4 30.1229 5.28454   6
  -3  -1   4 26.8173 3.22412   1
  -3  -1   4 37.9515 3.84384   3
  -3  -1   4 28.3352 3.13157   1
  -3  -1   4 33.2686 3.88705   2
  -3  -1   4 28.3362 3.93084   3
  -3  -1   4 33.1264 3.70727   2
  -3  -1   4 40.5104 8.61659   5
  -3   1   4 42.3562 6.55307   6
  -3   1   4 53.8231 8.60891   5
  -3   1   4 26.9066 5.64609   7
  -2  -1   4 49.0104 5.91974   3
   2  -1  -4 64.1480 5.29911   1
  -2  -1   4 50.5092 6.36020   6
   2  -1  -4 45.4451 5.16531   1
  -2  -1   4 37.7362 4.88829   1
  -2  -1   4 47.8096 5.80887   2
  -2  -1   4 57.4122 6.37655   2
  -2  -1   4 49.0282 6.21097   3
  -2  -1   4 51.6074 8.50971   5
  -2  -1   4 46.7512 4.88213   1
  -2   1   4 49.8516 5.93937   2
  -2   1   4 49.5835 6.60415   7
  -2   1   4 50.5488 5.31074   1
  -2   1   4 45.7831 6.04513   3
   2   1  -4 54.8506 5.32900   1
  -2   1   4 47.9203 4.92384   1
  -2   1   4 57.4139 6.33310   3
  -2   1   4 54.6141 7.29488   6
   2   1  -4 50.6474 5.06634   1
  -2   1   4 61.8493 8.50830   5
  -2   1   4 56.8592 5.96914   2
  -1  -1   4 214.566 18.3822   1
   1  -1  -4 203.855 22.8470   3
  -1  -1   4 229.986 23.9724   5
  -1  -1   4 197.241 22.6677   3
  -1  -1   4 239.321 22.7960   3
   1  -1  -4 223.755 18.4446   1
  -1  -1   4 227.203 21.7014   2
   1  -1  -4 230.272 18.5935   1
  -1   1   4 184.693 21.5222   2
   1   1  -4 222.880 22.7435   3
  -1   1   4 250.398 18.5615   1
  -1   1   4 214.349 22.8357   3
   1   1  -4 252.055 18.4659   1
  -1   1   4 253.132 21.8308   2
  -1   1   4 233.320 22.8106   6
  -1   1   4 223.922 24.1505   5
  -1   1   4 240.503 18.4575   1
  -1   1   4 240.342 22.9115   3
   1   1  -4 231.863 18.3938   1
   0  -1  -4 570.850 45.3578   1
   0  -1   4 553.446 53.2748   2
   0  -1  -4 550.787 56.4955   3
   0  -1  -4 560.871 53.4148   2
   0  -1   4 579.530 45.2514   1
   0  -1   4 588.228 45.2872   1
   0  -1   4 593.198 56.4448   3
   0  -1  -4 591.963 45.4007   1
   0  -1   4 556.460 58.0262   5
   0   1  -4 590.332 45.1987   1
   0   1  -4 532.078 57.7527   7
   0   1   4 605.647 45.3602   1
   0   1  -4 572.196 56.3460   3
   0   1  -4 601.598 45.2225   1
   0   1   4 581.345 53.3973   2
   0   1   4 570.069 56.5078   3
   0   1  -4 578.898 53.2358   2
   0   1   4 574.516 45.3635   1
  -1  -1  -4 86.3927 9.68726   3
  -1  -1  -4 97.4697 8.44765   1
  -1  -1  -4 106.477 8.31998   1
  -1  -1  -4 94.3592 10.5058   7
  -1  -1  -4 78.9884 10.0849   4
  -1  -1  -4 91.1720 9.54528   2
   1  -1   4 99.2026 8.08264   1
   1  -1   4 77.2619 9.19929   2
   1  -1   4 101.826 8.21811   1
   1  -1   4 73.2511 9.53718   3
   1   1   4 74.9488 9.85730   3
  -1   1  -4 66.5815 9.09236   3
   1   1   4 86.5042 8.28894   1
  -1   1  -4 92.9139 7.82428   1
  -1   1  -4 86.4860 9.96765   7
  -1   1  -4 77.2044 9.44293   3
   1   1   4 95.1552 8.36452   1
  -1   1  -4 81.6850 8.98591   2
   1   1   4 69.5187 9.24004   2
  -1   1  -4 93.0496 7.68568   1
  -2  -1  -4 135.016 15.5174   7
   2  -1   4 153.742 11.5732   1
  -2  -1  -4 114.777 14.1789   3
  -2  -1  -4 142.300 13.8292   2
  -2  -1  -4 140.888 14.1847   3
  -2  -1  -4 124.906 11.5453   1
   2  -1   4 135.687 11.6488   1
  -2  -1  -4 100.320 13.3649   2
  -2  -1  -4 127.949 11.5277   1
  -2  -1  -4 164.176 15.7223   4
  -2   1  -4 136.493 15.1907   4
   2   1   4 144.938 11.7430   1
  -2   1  -4 120.933 13.2295   2
  -2   1  -4 138.217 11.2916   1
  -2   1  -4 129.027 14.0195   3
  -2   1  -4 143.421 15.6026   7
  -2   1  -4 140.288 11.4051   1
  -2   1  -4 136.361 13.9475   3
  -2   1  -4 140.195 13.4581   2
   2   1   4 123.395 11.7504   1
  -3  -1  -4 19.1642 5.56691   7
   3  -1   4 13.9490 3.06809   1
  -3  -1  -4 14.5314 3.42114   3
  -3  -1  -4 15.2558 3.25337   2
  -3  -1  -4 14.9762 2.66845   1
  -3  -1  -4 21.8158 3.64794   2
  -3  -1  -4 21.9346 3.40345   3
  -3  -1  -4 24.9287 5.97379   4
  -3   1  -4 17.7131 5.20793   4
  -3   1  -4 23.4655 3.15364   3
  -3   1  -4 12.8152 2.42830   1
  -3   1  -4 14.4694 3.00042   2
  -3   1  -4 22.4224 6.20366   7
  -3   1  -4 20.2121 3.76206   3
  -3   1  -4 22.8547 4.01276   2
  -4  -1  -4 33.5910 4.32735  10
  -4  -1  -4 41.4049 5.50574  18
  -4  -1  -4 40.4502 5.30200  17
  -4  -1  -4 38.0998 8.71270   7
  -4  -1  -4 41.5594 8.68520   4
  -4  -1  -4 43.2910 5.72187  11
  -4   1  -4 41.7573 8.94957   7
  -4   1  -4 53.3364 8.51273   4
  -4   1  -4 39.3545 5.62205  18
  -4   1  -4 34.0560 4.20777  10
  -4   1  -4 41.6298 5.25929  17
  -4   1  -4 42.9680 5.23128  16
  -5  -1  -4 38.4505 6.12234  18
  -5  -1  -4 50.0949 6.00195  12
  -5  -1  -4 54.2725 12.6372   4
  -5  -1  -4 41.5215 5.70436  16
  -5  -1  -4 45.3830 5.81710  17
  -5  -1  -4 40.7155 6.04297  11
  -5  -1  -4 42.8972 4.18532  10
  -5   1  -4 45.7837 5.82572  16
  -5   1  -4 25.0887 9.78127   7
  -5   1  -4 48.0815 5.54497  15
  -5   1  -4 47.4378 6.00807  17
  -5   1  -4 37.4586 4.06251  10
  -5   1  -4 36.2782 6.40711  18
  -5   1  -4 37.4938 5.50952  11
  -6  -1  -4 80.8360 10.1214  12
  -6  -1  -4 89.8924 10.6172  17
  -6   1  -4 86.9892 10.0344  16
  -6   1  -4 87.1165 10.4799  17
  -6   1  -4 88.6431 11.3214  18
  -7  -1  -4 8.16906 3.28653  18
  -7  -1  -4 5.69780 2.92052  17
  -7   1  -4 1.82907 3.82143  17
  -7   1  -4 4.33305 3.48352  18
  -8  -1  -4 21.3643 4.00152  18
  -8   1  -4 20.3691 3.16556  18
  -7  -2   4 31.4144 4.54472  11
  -7  -2   4 43.3192 5.95143  13
  -7  -2   4 31.1562 4.67022  12
  -7   2   4 27.2095 4.99500  16
  -7   2   4 36.2946 4.65802  14
  -6  -2   4 251.388 24.7367  11
  -6  -2   4 257.899 26.6480  13
  -6  -2   4 257.110 25.0575  12
  -6  -2   4 228.295 24.2088  14
  -6   2   4 257.174 24.3566  14
  -6   2   4 233.387 26.6354  13
  -6   2   4 206.751 24.6873  12
  -6   2   4 254.254 24.5181  16
  -5  -2   4 3.13109 3.16825  18
  -5  -2   4 -1.6068 2.83074  13
  -5  -2   4 1.55875 2.76125  11
  -5  -2   4 1.91983 2.85676  12
  -5  -2   4 7.22823 3.29500  14
  -5  -2   4 12.9304 9.43509   5
  -5   2   4 -0.1687 2.90527  16
  -5   2   4 1.56192 3.17262  14
  -5   2   4 -0.6268 7.57449   6
  -5   2   4 3.94555 2.87197  12
  -5   2   4 6.28746 3.44711  17
  -5   2   4 4.10113 4.22824  13
  -4  -2   4 60.0891 11.8565   5
  -4  -2   4 62.1026 8.79232  13
  -4  -2   4 63.5256 7.70939  11
  -4  -2   4 66.2508 7.92246  12
  -4  -2   4 70.1907 7.90252  18
  -4  -2   4 62.9812 6.32823  10
  -4  -2   4 65.7134 7.92549  14
  -4   2   4 59.2850 7.60537  16
  -4   2   4 68.6277 7.93007  14
  -4   2   4 79.3418 10.9268   6
  -4   2   4 74.5710 8.89980  13
  -4   2   4 73.1252 7.33617  15
  -3  -2   4 50.9253 5.60811   3
  -3  -2   4 39.1763 5.40580   2
  -3  -2   4 59.0463 9.60511   5
  -3  -2   4 36.7711 4.69108   1
  -3  -2   4 45.9027 6.50518   6
  -3  -2   4 41.2684 5.75855   3
  -3  -2   4 49.2249 5.87226   2
   3  -2  -4 33.8270 4.25407   1
  -3   2   4 35.6611 4.40342   1
  -3   2   4 61.2294 10.1508   5
  -3   2   4 71.2707 8.45948   6
  -3   2   4 55.6489 4.99482   2
  -3   2   4 46.3995 5.17328   3
  -3   2   4 45.9280 5.36328   2
  -3   2   4 34.2787 7.64585   7
  -3   2   4 52.5741 5.53744   3
  -2  -2   4 126.679 11.5745   1
   2  -2  -4 142.510 11.7204   1
  -2  -2   4 123.738 14.0329   6
  -2  -2   4 156.335 13.9024   2
  -2  -2   4 128.217 11.3451   1
  -2  -2   4 126.981 14.1565   3
  -2  -2   4 144.181 16.0264   5
  -2  -2   4 153.290 14.1847   3
  -2  -2   4 107.070 13.2598   2
   2  -2  -4 129.860 11.5039   1
  -2   2   4 124.678 13.5323   2
  -2   2   4 128.773 11.4865   1
   2   2  -4 138.496 11.5253   1
  -2   2   4 137.578 13.3485   2
  -2   2   4 131.147 14.0220   3
  -2   2   4 138.048 11.3445   1
  -2   2   4 135.961 14.7286   6
   2   2  -4 131.426 11.6835   1
  -2   2   4 151.095 14.3368   3
  -2   2   4 147.273 15.2452   7
  -1  -2   4 1011.44 92.2822   3
  -1  -2   4 971.786 73.9682   1
  -1  -2   4 905.257 73.8715   1
  -1  -2   4 1018.43 87.1202   2
   1  -2  -4 976.082 74.0997   1
  -1  -2   4 832.148 92.1569   3
   1  -2  -4 834.632 92.3133   3
  -1  -2   4 952.030 95.5555   5
   1  -2  -4 945.151 74.0680   1
  -1   2   4 952.034 90.8699   6
   1   2  -4 982.809 73.9930   1
   1   2  -4 980.242 73.9830   1
  -1   2   4 949.040 73.9300   1
   1   2  -4 841.571 87.0068   2
  -1   2   4 1004.15 87.0927   2
   1   2  -4 867.377 92.1868   3
  -1   2   4 1033.74 92.3303   3
   0  -2   4 213.120 22.0387   5
   0  -2   4 206.413 21.4931   3
   0  -2  -4 219.867 17.6867   1
   0  -2  -4 209.014 21.9034   3
   0  -2   4 232.082 17.4788   1
   0  -2   4 207.977 20.4867   2
   0  -2  -4 225.906 17.8277   1
   0  -2   4 205.740 17.3404   1
   0  -2  -4 206.982 20.7795   2
   0   2   4 218.345 17.5052   1
   0   2  -4 205.762 17.3092   1
   0   2  -4 208.397 20.4141   2
   0   2   4 204.579 20.5356   2
   0   2  -4 209.715 21.4749   3
   0   2  -4 197.181 21.7881   7
   0   2   4 214.946 21.7394   3
   0   2  -4 209.625 17.3777   1
   0   2   4 225.169 17.6834   1
   0   2   4 194.027 20.9876   6
   1  -2   4 402.017 30.1668   1
  -1  -2  -4 390.990 35.6153   2
  -1  -2  -4 357.651 38.2483   4
   1  -2   4 336.147 35.3246   2
  -1  -2  -4 413.683 30.2669   1
  -1  -2  -4 397.100 37.5766   3
  -1  -2  -4 391.245 30.2287   1
   1  -2   4 391.514 30.0918   1
   1  -2   4 346.062 37.3298   3
  -1   2  -4 354.461 38.4766   7
  -1   2  -4 388.902 35.3012   2
   1   2   4 337.873 37.3476   3
  -1   2  -4 380.956 29.9396   1
  -1   2  -4 383.654 37.2898   3
  -1   2  -4 383.824 30.0075   1
   1   2   4 369.842 30.1135   1
   1   2   4 400.088 30.2276   1
   1   2   4 325.999 35.3160   2
  -2  -2  -4 163.089 14.7185   1
  -2  -2  -4 178.700 14.8006   1
  -2  -2  -4 157.464 18.1073   3
  -2  -2  -4 196.383 17.5999   2
   2  -2   4 164.363 14.5926   1
  -2  -2  -4 132.904 17.0204   2
  -2  -2  -4 172.782 18.4928   5
  -2  -2  -4 176.757 18.1496   3
   2  -2   4 176.026 14.5892   1
  -2  -2  -4 199.040 19.9085   4
  -2   2  -4 136.183 16.8566   2
  -2   2  -4 154.698 17.7613   3
  -2   2  -4 198.138 17.2240   2
  -2   2  -4 177.497 18.6414   4
  -2   2  -4 164.842 14.3689   1
   2   2   4 181.460 14.8759   1
  -2   2  -4 174.177 14.3922   1
   2   2   4 182.073 14.7854   1
  -2   2  -4 197.113 19.5015   7
  -2   2  -4 193.468 17.9125   3
  -3  -2  -4 14.2969 4.13828   5
  -3  -2  -4 16.9916 5.52422   4
  -3  -2  -4 15.8640 3.28343   3
  -3   2  -4 10.9705 2.77798   3
  -3   2  -4 10.5536 3.00524   3
  -3   2  -4 8.73971 2.80381   2
  -3   2  -4 14.2424 3.38557   2
  -3   2  -4 4.96044 3.71038   4
  -3   2  -4 10.1143 5.17004   7
  -4  -2  -4 15.6834 2.75365   3
  -4  -2  -4 18.8597 1.93005   9
  -4  -2  -4 25.6052 4.28766  12
  -4  -2  -4 9.57078 6.34090   4
  -4  -2  -4 18.8883 3.59326  11
  -4  -2  -4 23.0075 3.84404  17
  -4  -2  -4 13.4678 2.68733   2
  -4  -2  -4 19.3030 3.41286  16
  -4  -2  -4 28.8873 4.13852  18
  -4  -2  -4 13.0563 2.63808   3
  -4  -2  -4 23.5523 2.81346  10
  -4  -2  -4 9.74796 2.74453   2
  -4   2  -4 9.78467 5.58903   4
  -4   2  -4 22.3547 3.20778  15
  -4   2  -4 20.0847 6.90586   7
  -4   2  -4 20.4366 4.28822  18
  -4   2  -4 24.4714 3.69898  16
  -4   2  -4 22.9594 2.42125  10
  -4   2  -4 21.1241 3.58935  17
  -5  -2  -4 0.87783 1.42095  10
  -5  -2  -4 -5.7176 2.83401  12
  -5  -2  -4 15.1965 8.95824   4
  -5  -2  -4 -0.3129 3.30359  17
  -5  -2  -4 -4.9445 3.47477  18
  -5   2  -4 2.80894 3.06708  17
  -5   2  -4 0.91082 1.38210  10
  -5   2  -4 3.62588 2.96749  16
  -5   2  -4 0.70439 2.43114  11
  -5   2  -4 2.79489 2.43824  15
  -5   2  -4 -2.8460 3.89569  18
  -5   2  -4 2.55578 8.29158   7
  -6  -2  -4 68.1248 8.76441  17
  -6  -2  -4 58.4141 8.24908  12
  -6  -2  -4 82.1353 9.54048  18
  -6   2  -4 43.8428 8.16770  18
  -6   2  -4 65.6441 7.93050  16
  -6   2  -4 60.8587 7.58686  17
  -7  -2  -4 17.0555 3.70146  12
  -7  -2  -4 19.0969 4.80660  18
  -7   2  -4 15.1529 3.42379  16
  -7   2  -4 22.2174 4.37906  17
  -7   2  -4 10.9339 3.50719  18
  -7  -3   4 14.2888 3.75804  12
  -7  -3   4 10.2251 5.00031  13
  -7   3   4 15.6405 3.68900  14
  -7   3   4 18.5139 3.25720  16
  -6  -3   4 13.4937 3.96949  14
  -6  -3   4 20.6723 4.33328  11
  -6  -3   4 22.8762 4.81175  13
  -6  -3   4 17.8966 4.18404  12
  -6   3   4 13.1985 4.25717  14
  -6   3   4 24.0224 4.81445  13
  -6   3   4 18.5799 3.60823  16
  -6   3   4 7.15903 3.97878  17
  -5  -3   4 16.1803 4.05152  12
  -5  -3   4 21.5784 5.48007  13
  -5  -3   4 -1.6550 10.8472   5
  -5  -3   4 26.1354 4.38900  11
  -5  -3   4 23.4444 2.56942  10
  -5  -3   4 20.5284 4.37276  14
  -5   3   4 21.0640 5.85329  13
  -5   3   4 12.0310 4.57777  17
  -5   3   4 28.0980 4.62652  14
  -5   3   4 22.2548 4.25653  16
  -4  -3   4 23.3050 4.00430  18
  -4  -3   4 20.6113 2.53962  10
  -4  -3   4 11.2531 3.69287  14
  -4  -3   4 21.4924 3.80234  12
  -4  -3   4 21.5029 3.62414  11
  -4  -3   4 21.7475 8.31050   5
  -4  -3   4 17.3717 4.38633  13
  -4   3   4 20.2944 2.31677  10
  -4   3   4 10.5423 3.33226  12
  -4   3   4 22.8942 5.06223  13
  -4   3   4 19.1337 3.24403  15
  -4   3   4 19.4717 3.57885  16
  -4   3   4 14.6336 3.63431  14
  -4   3   4 18.4771 4.37228  17
  -4   3   4 19.7424 6.52900   6
  -3  -3   4 41.4531 8.44104   5
  -3  -3   4 28.6740 4.62968   3
  -3  -3   4 29.7959 4.73365   2
  -3   3   4 25.8983 4.22038   3
  -3   3   4 37.1149 7.25304   6
  -3   3   4 21.6111 4.87642   2
  -3   3   4 31.6558 5.17946   3
  -3   3   4 28.0498 7.54090   7
  -3   3   4 25.6051 4.04873   2
  -2  -3   4 69.8349 7.36365   1
  -2  -3   4 81.0951 9.10209   2
  -2  -3   4 79.6674 9.14003   3
   2  -3  -4 80.6880 7.79584   1
  -2  -3   4 70.5110 7.62445   1
  -2  -3   4 60.7592 8.45421   6
  -2  -3   4 89.0986 11.0384   5
  -2   3   4 82.7944 10.2482   7
  -2   3   4 91.0923 10.6045   6
  -2   3   4 76.9273 7.49692   1
  -2   3   4 85.4930 9.21898   3
  -2   3   4 66.9961 7.37054   1
  -2   3   4 88.6001 8.84058   2
  -1  -3   4 33.2779 4.96354   3
   1  -3  -4 33.8581 4.63232   1
   1  -3  -4 23.9111 5.36167   2
   1  -3  -4 28.0906 5.66286   3
  -1  -3   4 39.4586 6.10708   5
  -1  -3   4 24.6255 3.65381   1
   1  -3  -4 18.1132 3.48745   4
   1  -3  -4 21.5553 4.30507   1
  -1  -3   4 27.6634 4.06136   1
  -1  -3   4 27.9718 5.12947   2
   1   3  -4 26.3824 4.76723   3
  -1   3   4 29.5138 4.11255   1
  -1   3   4 28.5597 5.03423   6
  -1   3   4 30.8858 5.05131   3
   1   3  -4 24.2157 5.03130   2
   1   3  -4 28.1620 4.07446   1
  -1   3   4 26.8692 4.03979   1
  -1   3   4 27.6404 4.79473   2
   1   3  -4 27.2368 4.07794   1
   0  -3  -4 147.025 16.0434   4
   0  -3   4 135.498 13.1605   1
   0  -3   4 151.319 15.4973   2
   0  -3  -4 162.049 16.5433   3
   0  -3   4 154.391 13.0978   1
   0  -3  -4 140.107 15.8197   2
   0  -3  -4 155.268 13.7272   1
   0  -3   4 147.394 16.2767   3
   0  -3  -4 153.136 13.4050   1
   0   3   4 148.367 16.1346   3
   0   3  -4 156.666 13.3837   1
   0   3   4 149.265 13.3047   1
   0   3  -4 151.888 16.2991   3
   0   3  -4 159.139 13.0762   1
   0   3  -4 149.965 15.3678   2
   0   3   4 154.289 13.2059   1
   0   3   4 145.562 15.5395   6
   0   3   4 151.046 15.5030   2
  -1  -3  -4 20.7277 4.24680   1
  -1  -3  -4 38.8852 5.76295   2
   1  -3   4 22.0558 4.09865   1
   1  -3   4 22.1584 4.96029   3
  -1  -3  -4 23.7971 5.39228   4
  -1  -3  -4 27.3221 4.43095   1
  -1  -3  -4 35.4353 5.53429   3
   1  -3   4 31.1568 4.26511   1
   1  -3   4 18.9041 4.94720   2
  -1   3  -4 19.0237 3.93173   1
  -1   3  -4 28.2656 5.18843   7
   1   3   4 21.0463 4.64196   2
  -1   3  -4 26.7561 4.77835   3
  -1   3  -4 29.9380 5.18982   2
   1   3   4 23.7850 3.73300   6
  -1   3  -4 20.8140 3.87786   1
   1   3   4 25.7214 4.81909   3
   1   3   4 25.1147 4.12918   1
   1   3   4 33.6124 4.22047   1
  -2  -3  -4 24.9717 4.73002   3
  -2  -3  -4 21.5276 4.02049   1
  -2  -3  -4 15.9125 3.30500   1
  -2  -3  -4 27.1224 5.16854   2
  -2  -3  -4 20.2000 6.08735   4
  -2   3  -4 25.3438 4.12572   2
  -2   3  -4 14.9208 3.32462   1
  -2   3  -4 13.1943 4.07309   4
  -2   3  -4 29.2300 5.78147   7
  -2   3  -4 17.1077 3.24704   1
  -2   3  -4 15.8170 3.85520   3
  -3  -3  -4 3.94076 5.07466   5
  -3  -3  -4 7.41782 3.37852   2
  -3  -3  -4 3.93990 3.53347   3
  -3  -3  -4 0.53872 4.47725   4
  -3   3  -4 5.69180 2.49190   3
  -3   3  -4 5.73871 4.76471   7
  -3   3  -4 9.53408 4.08715   4
  -3   3  -4 5.10586 3.14575   2
  -4  -3  -4 26.0535 4.14075  12
  -4  -3  -4 14.1786 3.89901   3
  -4  -3  -4 17.5757 1.99599   9
  -4  -3  -4 17.2414 3.65948  11
  -4  -3  -4 20.3822 2.70771  10
  -4  -3  -4 27.0115 4.25052   2
  -4  -3  -4 13.0555 3.75102  17
  -4  -3  -4 8.83877 3.60928  18
  -4  -3  -4 9.52223 6.83137   4
  -4   3  -4 19.9701 7.02009   7
  -4   3  -4 20.4782 2.29689  10
  -4   3  -4 16.7798 4.14560  18
  -4   3  -4 19.9271 3.52779  16
  -4   3  -4 20.0336 3.21087  15
  -4   3  -4 13.7225 1.72514   9
  -4   3  -4 18.0141 3.57118  17
  -5  -3  -4 3.13811 1.81991  10
  -5  -3  -4 18.4655 4.25111  17
  -5  -3  -4 3.93161 9.26713   4
  -5  -3  -4 6.83140 4.01810  18
  -5  -3  -4 5.15515 3.79160  11
  -5  -3  -4 3.47518 3.63346  12
  -5   3  -4 7.28036 1.61172  10
  -5   3  -4 4.74947 3.35640  17
  -5   3  -4 5.26935 3.13744  18
  -5   3  -4 -3.1801 8.70219   7
  -5   3  -4 11.2063 2.95474  15
  -5   3  -4 3.55272 3.05610  16
  -6  -3  -4 24.1893 5.23272  12
  -6  -3  -4 27.1329 5.53816  18
  -6   3  -4 18.7454 4.29277  16
  -6   3  -4 24.6519 4.25301  17
  -6   3  -4 27.7874 5.54167  18
  -7  -3  -4 6.65507 3.21372  18
  -7  -3  -4 0.91474 2.00783  12
  -7   3  -4 5.43198 2.74200  17
  -7   3  -4 9.15935 2.90284  16
  -7   3  -4 9.89963 3.06065  18
  -7  -4   4 19.6611 3.41336  12
  -7  -4   4 14.5397 4.24645  13
  -7   4   4 15.4193 3.23450  16
  -6  -4   4 38.7166 6.06561  11
  -6  -4   4 35.1240 7.00546  13
  -6  -4   4 40.5513 5.57798  12
  -6   4   4 20.8803 5.43953  17
  -6   4   4 46.5359 5.88833  14
  -6   4   4 47.5848 6.08124  16
  -5  -4   4 5.17308 3.53934  14
  -5  -4   4 1.53774 3.29482  11
  -5  -4   4 3.37742 1.54097  10
  -5  -4   4 13.0576 12.1527   5
  -5  -4   4 1.58502 2.41860  12
  -5  -4   4 5.09752 4.76650  13
  -5   4   4 6.13660 7.90905   6
  -5   4   4 6.79737 4.26410  17
  -5   4   4 5.45553 3.47057  16
  -5   4   4 1.63029 3.38452  14
  -5   4   4 3.85867 0.96033  10
  -4  -4   4 83.7417 8.98110   9
  -4  -4   4 102.727 11.2427  12
  -4  -4   4 100.248 12.2049  13
  -4  -4   4 78.5325 15.6717   5
  -4  -4   4 97.4243 11.1846  14
  -4  -4   4 109.003 11.1502  11
  -4  -4   4 107.462 9.65983  10
  -4  -4   4 99.8360 11.2373   3
  -4  -4   4 102.239 10.9617   2
  -4   4   4 116.575 11.1285  14
  -4   4   4 104.910 10.9644  16
  -4   4   4 113.016 12.8403  13
  -4   4   4 76.6351 11.7335  17
  -4   4   4 106.171 9.43292  10
  -4   4   4 98.5143 14.4433   6
  -4   4   4 96.3372 10.3626  15
  -3  -4   4 21.0380 4.69019   3
  -3  -4   4 18.3280 4.49944   2
  -3  -4   4 16.4786 6.90394   5
  -3   4   4 15.8482 5.40908   6
  -3   4   4 20.8375 4.13504   2
  -3   4   4 21.9057 7.50348   7
  -3   4   4 18.8602 4.65476   3
  -2  -4   4 105.511 15.0154   5
  -2  -4   4 107.094 12.4281   2
  -2  -4   4 105.582 13.1011   3
  -2   4   4 118.910 13.4929   6
  -2   4   4 124.742 14.3844   7
  -2   4   4 112.446 12.7121   3
  -2   4   4 124.139 12.4888   2
  -1  -4   4 436.248 35.3869   1
  -1  -4   4 383.262 35.0986   1
  -1  -4   4 467.772 43.9437   3
  -1  -4   4 442.019 45.5202   5
  -1  -4   4 484.391 41.7189   2
   1  -4  -4 440.719 35.6684   1
   1  -4  -4 377.754 35.7819   1
   1   4  -4 435.325 35.4303   1
  -1   4   4 452.891 43.1342   6
  -1   4   4 457.363 41.4919   2
   1   4  -4 412.583 35.3218   1
  -1   4   4 465.303 43.8416   3
  -1   4   4 409.502 35.2392   1
  -1   4   4 427.032 35.2266   1
   0  -4   4 630.418 50.9762   1
   0  -4   4 607.180 50.9245   1
   0  -4   4 658.303 63.5394   3
   0  -4  -4 599.808 51.1336   1
   0  -4   4 639.348 60.0485   2
   0  -4  -4 661.571 63.8162   3
   0  -4  -4 624.183 64.1470   4
   0   4   4 656.768 63.5023   3
   0   4  -4 676.571 63.5194   3
   0   4   4 685.245 60.1050   2
   0   4   4 635.240 51.0101   1
   0   4  -4 637.097 50.9435   1
   0   4  -4 629.304 59.9369   2
   0   4   4 604.674 50.9406   1
   0   4  -4 638.954 51.0076   1
   0   4   4 640.292 61.9264   6
   1  -4   4 97.7771 10.0233   1
  -1  -4  -4 102.399 13.2477   3
   1  -4   4 106.738 10.2758   1
  -1  -4  -4 94.7731 12.6678   4
  -1  -4  -4 103.460 10.5823   1
   1   4   4 102.847 10.4403   1
  -1   4  -4 100.962 10.1184   1
  -1   4  -4 97.1803 9.82432   1
   1   4   4 113.932 10.6656   1
  -1   4  -4 120.044 12.8456   7
  -1   4  -4 103.255 11.6577   2
  -1   4  -4 124.158 12.3207   3
   1   4   4 77.8148 11.9979   2
  -2  -4  -4 111.343 15.4119   4
  -2  -4  -4 124.989 13.8329   2
  -2  -4  -4 119.122 14.8594   3
  -2   4  -4 128.066 13.7390   3
  -2   4  -4 124.877 13.2850   2
  -2   4  -4 118.508 15.0611   7
  -3  -4  -4 16.3449 6.11714   4
  -3  -4  -4 17.8407 4.93345   2
  -3  -4  -4 12.9004 5.23041   3
  -3  -4  -4 11.8291 6.97616   5
  -3   4  -4 8.49802 5.65642   7
  -3   4  -4 15.3329 4.26309   2
  -4  -4  -4 23.0451 2.86288   9
  -4  -4  -4 15.8456 4.09770  11
  -4  -4  -4 21.0007 4.77923  13
  -4  -4  -4 30.3711 10.2317   4
  -4  -4  -4 37.2386 4.81277  18
  -4  -4  -4 23.3932 4.59878  12
  -4  -4  -4 20.7164 5.15712   3
  -4  -4  -4 24.8769 5.68455   2
  -4  -4  -4 30.9177 3.60383  10
  -4   4  -4 27.8350 3.26290  10
  -4   4  -4 27.7374 4.86545  18
  -4   4  -4 29.2432 2.85228   9
  -4   4  -4 23.4119 4.88405   2
  -4   4  -4 15.8776 4.29322   3
  -4   4  -4 21.8034 3.99467  16
  -4   4  -4 13.2439 7.74479   7
  -4   4  -4 24.3950 4.19037  17
  -4   4  -4 23.3386 3.72158  15
  -5  -4  -4 27.0390 3.69686  10
  -5  -4  -4 28.4292 5.40628  12
  -5  -4  -4 23.5877 5.27724  18
  -5   4  -4 30.3274 4.12765  15
  -5   4  -4 28.2795 11.1650   7
  -5   4  -4 29.0935 4.30007  16
  -5   4  -4 23.7904 3.07544  10
  -5   4  -4 27.1280 4.31988  17
  -5   4  -4 17.1083 5.40747  18
  -6  -4  -4 48.9687 6.63497  12
  -6  -4  -4 40.1950 5.76413  18
  -6   4  -4 29.1343 5.61071  17
  -6   4  -4 38.3136 5.08717  16
  -6   4  -4 28.3835 6.09488  18
  -7   4  -4 28.8494 4.32809  16
  -7   4  -4 38.8307 4.61055  18
  -7   4  -4 34.5215 4.67496  17
  -7  -5   4 10.9260 5.03717  13
  -7  -5   4 10.8487 3.46047  12
  -7   5   4 8.76293 2.44175  16
  -6  -5   4 0.31566 2.39208  12
  -6  -5   4 -5.8245 4.88340  13
  -6   5   4 5.69007 2.70226  16
  -6   5   4 3.45335 3.33580  17
  -5  -5   4 11.7966 5.51544  13
  -5  -5   4 24.3191 14.8170   5
  -5  -5   4 17.9734 2.71014  10
  -5  -5   4 19.5148 4.01353  12
  -5  -5   4 15.3443 3.62065  11
  -5   5   4 13.3164 3.41409  16
  -5   5   4 14.4697 1.97248  10
  -5   5   4 13.3934 4.82177  17
  -5   5   4 21.2531 4.49034  14
  -4  -5   4 18.2023 9.83753   5
  -4  -5   4 19.0589 2.59986   9
  -4  -5   4 25.6108 3.37924  10
  -4  -5   4 12.1121 4.30013  14
  -4  -5   4 12.7427 5.21173   3
  -4  -5   4 20.1644 4.20611  12
  -4  -5   4 22.4853 4.23107  11
  -4  -5   4 29.5508 6.07097   2
  -4  -5   4 22.6618 5.21444  13
  -4   5   4 25.0933 4.32997  14
  -4   5   4 24.0626 4.19510  16
  -4   5   4 19.2669 4.96338  17
  -4   5   4 22.5910 8.42039   6
  -4   5   4 20.6108 2.89129  10
  -3  -5   4 31.5871 3.44772   8
  -3  -5   4 35.5924 5.78706  13
  -3  -5   4 32.9509 4.86910  11
  -3  -5   4 22.9679 6.17286   2
  -3  -5   4 38.9959 4.04377   9
  -3  -5   4 30.2801 6.77980   3
  -3  -5   4 47.5331 9.84590   5
  -3  -5   4 38.1400 4.53225  10
  -3  -5   4 30.6980 4.79819  12
  -3   5   4 31.4795 7.71649   6
  -3   5   4 33.4573 3.68275   9
  -3   5   4 26.5253 6.34784   3
  -3   5   4 24.1855 5.82830   2
  -3   5   4 38.4483 5.63831  17
  -3   5   4 42.8872 11.3277   7
  -3   5   4 37.2581 4.85079  16
  -3   5   4 32.6513 4.84518  14
  -3   5   4 43.7945 4.35365  10
  -3   5   4 34.1509 4.36338  15
  -2  -5   4 4.07768 3.64727   2
  -2  -5   4 2.08512 5.07624   5
  -2  -5   4 2.90807 3.83549   3
  -2   5   4 1.02516 3.71090   2
  -2   5   4 -0.3229 6.42148   7
  -2   5   4 -0.5671 3.61122   3
  -2   5   4 -2.6445 3.61784   6
  -1  -5   4 16.5063 4.97846   1
  -1  -5   4 14.3855 5.38719   2
  -1  -5   4 17.4777 5.55885   5
  -1  -5   4 18.8922 5.10215   3
  -1   5   4 18.9965 5.20304   3
  -1   5   4 20.0716 4.77146   2
  -1   5   4 15.1242 4.43601   6
   0  -5  -4 -1.1207 5.17818   2
   0  -5  -4 3.08492 4.28067   1
   0  -5  -4 -1.5139 5.20707   3
   0  -5   4 -5.2065 4.01534   3
   0  -5   4 4.18576 4.59981   2
   0  -5   4 0.98457 3.58920   1
   0   5   4 1.91422 3.62895   1
   0   5   4 2.39984 4.22116   2
   0   5   4 3.98373 4.21625   3
   0   5   4 -1.4646 3.67007   1
   0   5  -4 -3.5639 4.50104   3
   0   5   4 -0.8387 2.64707   6
   0   5  -4 2.16095 4.29529   2
   0   5  -4 0.83535 3.90211   1
  -1  -5  -4 39.5060 7.32353   1
  -1  -5  -4 45.8101 8.57289   2
  -1  -5  -4 42.2010 7.61193   4
  -1  -5  -4 50.0817 8.41652   3
  -1   5  -4 49.0254 7.80150   3
  -1   5  -4 43.8911 7.52511   2
   1   5   4 25.8311 5.61573   1
  -1   5  -4 43.5684 6.48761   1
  -1   5  -4 59.3192 8.37027   7
  -2  -5  -4 2.62024 4.76034   3
  -2  -5  -4 -0.1942 4.33433   4
  -2  -5  -4 -1.7575 3.89130   2
  -2   5  -4 1.84901 3.49060   3
  -2   5  -4 3.84693 5.51148   7
  -2   5  -4 -4.2664 3.88905   2
  -3  -5  -4 77.8894 7.79123   9
  -3  -5  -4 79.4234 9.54984  12
  -3  -5  -4 69.7331 13.0516   5
  -3  -5  -4 99.8213 12.0914   2
  -3  -5  -4 67.4525 9.02247  18
  -3  -5  -4 82.1251 8.38945  10
  -3  -5  -4 89.3732 6.98029   8
  -3  -5  -4 82.0661 12.1318   3
  -3  -5  -4 80.1918 12.6878   4
  -3   5  -4 70.8025 8.70412  16
  -3   5  -4 80.9028 8.92552  17
  -3   5  -4 64.2277 9.83105   2
  -3   5  -4 56.8490 9.13771  18
  -3   5  -4 95.0423 10.5934   3
  -3   5  -4 79.6358 8.34294  15
  -3   5  -4 77.3822 6.63300   8
  -3   5  -4 78.8750 7.82890  10
  -3   5  -4 93.8645 13.9668   7
  -4  -5  -4 25.3029 3.67570  10
  -4  -5  -4 22.3854 3.01923   9
  -4  -5  -4 21.9220 4.64100  18
  -4  -5  -4 8.13470 5.52479   3
  -4  -5  -4 13.0348 6.52170   2
  -4  -5  -4 14.4747 4.88045  13
  -4  -5  -4 29.0402 5.02398  12
  -4   5  -4 24.4429 4.31224  17
  -4   5  -4 18.5338 5.09950   3
  -4   5  -4 24.5051 2.59829   9
  -4   5  -4 27.3331 3.93713  15
  -4   5  -4 19.3869 2.92677  10
  -4   5  -4 20.9437 3.83972  16
  -4   5  -4 14.6875 4.41603  18
  -4   5  -4 14.3709 4.92006   2
  -4   5  -4 4.51655 8.81944   7
  -5  -5  -4 45.5044 5.51597  10
  -5  -5  -4 46.6781 6.97289  18
  -5  -5  -4 57.9756 7.67018  12
  -5   5  -4 20.2120 12.6219   7
  -5   5  -4 42.1049 6.34129  17
  -5   5  -4 51.1882 7.25264  18
  -5   5  -4 46.3612 5.92510  16
  -5   5  -4 45.9637 4.97682  10
  -6  -5  -4 -0.7652 4.38489  12
  -6   5  -4 3.40767 2.16892  16
  -6   5  -4 4.42187 3.97399  18
  -6   5  -4 1.48383 3.62196  17
  -7  -5  -4 0.68167 3.45262  12
  -7   5  -4 11.1258 2.68497  16
  -7   5  -4 16.1888 3.00962  17
  -7  -6   4 -0.6040 3.34173  13
  -7  -6   4 3.70865 2.87682  12
  -7   6   4 2.17352 1.58621  16
  -6  -6   4 66.8182 8.08987  12
  -6  -6   4 80.1380 9.53570  13
  -6   6   4 68.8137 8.46599  16
  -6   6   4 64.3927 8.69710  17
  -5  -6   4 24.0421 4.75753  11
  -5  -6   4 24.5933 6.46045  13
  -5  -6   4 21.5841 3.14749  10
  -5  -6   4 4.37444 3.76417  12
  -5   6   4 20.0818 2.39691  10
  -5   6   4 12.4175 4.75783  17
  -5   6   4 16.3026 4.30240  16
  -4  -6   4 26.9490 3.34374   9
  -4  -6   4 15.7152 12.1974   5
  -4  -6   4 22.8571 4.62113  12
  -4  -6   4 38.2776 6.33586  13
  -4  -6   4 17.1453 4.76801  14
  -4  -6   4 31.5860 3.97085  10
  -4  -6   4 27.0418 4.80465  11
  -4  -6   4 34.7017 7.38654   2
  -4   6   4 26.0275 3.33130  10
  -4   6   4 32.5366 4.83606  16
  -4   6   4 15.1486 5.66669   3
  -4   6   4 26.4685 5.30357   2
  -4   6   4 23.9479 2.86291   9
  -4   6   4 26.7952 5.46034  17
  -4   6   4 30.3445 9.16115   6
  -3  -6   4 3.95394 2.83102  12
  -3  -6   4 9.99823 2.08540   9
  -3  -6   4 5.92033 1.58057   8
  -3  -6   4 4.03181 2.43615  10
  -3  -6   4 6.89282 4.87839   3
  -3  -6   4 -1.7409 6.87735   5
  -3  -6   4 2.50702 5.68978   2
  -3  -6   4 6.37214 4.06084  13
  -3  -6   4 6.50820 2.97033  11
  -3   6   4 10.6324 2.86519  16
  -3   6   4 4.49492 2.67386  15
  -3   6   4 7.11359 4.80462   3
  -3   6   4 6.72145 1.89838   9
  -3   6   4 7.57966 6.39415   6
  -3   6   4 11.7646 5.25635   2
  -3   6   4 14.7569 8.93869   7
  -3   6   4 3.05187 3.66896  17
  -3   6   4 12.8323 2.29494  10
  -2  -6   4 22.8321 3.37032   9
  -2  -6   4 18.1793 2.62872   8
  -2  -6   4 22.8729 6.28435   2
  -2  -6   4 24.2676 8.06403   5
  -2  -6   4 19.6340 7.12853   3
  -2   6   4 19.0291 2.85252   9
  -2   6   4 21.5627 3.49433  16
  -2   6   4 14.4798 5.88478   3
  -2   6   4 22.8541 6.33220   6
  -2   6   4 19.9012 2.46220   8
  -2   6   4 29.8048 8.12450   7
  -2   6   4 13.2687 6.03960   2
  -2   6   4 26.8669 3.41824  10
  -1  -6   4 382.130 39.3436   2
  -1  -6   4 410.650 42.9677   5
  -1  -6   4 379.024 41.3693   3
  -1   6   4 447.172 41.6092   3
  -1   6   4 421.366 39.1741   2
  -1   6   4 359.926 39.8389   6
   0   6   4 141.440 15.0704   2
   0   6   4 108.440 14.7574   3
  -1  -6  -4 93.3150 14.1083   2
  -1  -6  -4 83.8810 13.6497   3
  -1   6  -4 115.140 13.8411   7
  -1   6  -4 103.076 13.6823   3
  -1   6  -4 95.3632 13.0087   2
  -2  -6  -4 6.67931 6.10727   3
  -2  -6  -4 1.13149 2.43746   9
  -2  -6  -4 2.27169 6.76222   2
  -2  -6  -4 4.27416 6.45540   4
  -2  -6  -4 -1.7644 2.23357   8
  -2   6  -4 4.28078 2.03846  10
  -2   6  -4 3.74487 1.80210   9
  -2   6  -4 0.95059 4.17954   2
  -2   6  -4 6.26949 5.75390   7
  -2   6  -4 4.95208 1.53872   8
  -2   6  -4 5.46486 2.50099  17
  -3  -6  -4 23.3595 9.12133   3
  -3  -6  -4 24.7017 12.1314   5
  -3  -6  -4 34.2777 9.37722   2
  -3  -6  -4 41.6713 4.66765   9
  -3  -6  -4 41.2180 5.20531  10
  -3  -6  -4 28.1206 9.25413   4
  -3  -6  -4 39.1316 5.79892  12
  -3  -6  -4 37.1389 3.88907   8
  -3   6  -4 28.5294 4.74497  16
  -3   6  -4 35.6815 4.11386   9
  -3   6  -4 35.7157 4.40152  10
  -3   6  -4 28.6179 6.87218   2
  -3   6  -4 31.7654 7.17226   3
  -3   6  -4 38.1924 5.17144  17
  -3   6  -4 37.4691 3.36247   8
  -3   6  -4 47.7171 10.5225   7
  -4  -6  -4 14.8244 4.74329  13
  -4  -6  -4 4.86894 2.55856   9
  -4  -6  -4 4.06677 2.92854  10
  -4  -6  -4 -1.7135 7.58260   2
  -4  -6  -4 5.68732 3.14816  12
  -4   6  -4 8.33579 2.52706  10
  -4   6  -4 -0.6598 5.28127   2
  -4   6  -4 7.35649 2.62997  17
  -4   6  -4 5.73741 2.86718  16
  -4   6  -4 7.02291 3.63220  18
  -4   6  -4 5.78159 1.58467   9
  -4   6  -4 7.06429 6.82169   7
  -5  -6  -4 -1.8503 4.39948  12
  -5  -6  -4 -1.3823 2.44895  10
  -5  -6  -4 2.77339 4.11081  13
  -5   6  -4 4.33064 1.76342  10
  -5   6  -4 1.66132 2.82948  16
  -5   6  -4 2.89165 3.97502  18
  -5   6  -4 4.59950 3.72267  17
  -6  -6  -4 30.2876 6.28471  12
  -6   6  -4 33.0744 4.43988  16
  -6   6  -4 25.9159 4.33289  18
  -6   6  -4 44.3603 5.04935  17
  -7  -6  -4 2.30829 3.19777  12
  -7   6  -4 1.88753 1.80723  16
  -7   6  -4 6.35921 2.20867  17
  -6  -7   4 25.7163 4.89411  13
  -6  -7   4 15.6506 3.76407  12
  -6   7   4 11.5360 2.84627  17
  -6   7   4 12.2038 2.68598  16
  -5  -7   4 -1.1026 1.91663  10
  -5  -7   4 -0.0081 3.30050  12
  -5  -7   4 -3.5333 5.46917  13
  -5   7   4 4.23007 3.42664  16
  -5   7   4 0.74229 3.86447  17
  -4  -7   4 2.45253 5.14005  13
  -4  -7   4 14.5003 3.64985  10
  -4  -7   4 6.75601 2.14648   9
  -4  -7   4 8.34913 3.53882  12
  -4   7   4 9.74804 1.54865   9
  -4   7   4 7.27440 4.24075  17
  -4   7   4 15.0326 3.77531  16
  -4   7   4 7.74553 2.13046  10
  -3  -7   4 20.1949 3.63614  10
  -3  -7   4 19.2969 5.22025  13
  -3  -7   4 15.0195 3.35772   9
  -3  -7   4 8.90730 10.0917   5
  -3  -7   4 11.7311 8.59993   2
  -3  -7   4 16.0319 2.56083   8
  -3  -7   4 16.5734 8.26667   3
  -3   7   4 3.07430 10.4998   7
  -3   7   4 12.9489 6.30415   3
  -3   7   4 16.1643 3.53314  16
  -3   7   4 17.2716 2.57109   9
  -3   7   4 16.6630 4.42872  17
  -3   7   4 12.8131 5.73906   2
  -3   7   4 17.9240 2.99559  10
  -2  -7   4 3.77801 6.30203   3
  -2  -7   4 8.14032 7.91892   5
  -2  -7   4 6.07495 1.98979   8
  -2  -7   4 3.70272 2.52505   9
  -2  -7   4 5.82415 2.33245  10
  -2  -7   4 2.92430 7.79929   2
  -2   7   4 3.37004 5.31175   6
  -2   7   4 1.14589 5.18821   2
  -2   7   4 1.72431 7.93553   7
  -2   7   4 6.00955 4.99104   3
  -2   7   4 6.39023 1.39147   8
  -2   7   4 5.54767 2.45060  16
  -2   7   4 5.61000 2.01932   9
  -2   7   4 3.78716 2.33499  10
  -1  -7   4 -0.1117 2.00892   8
  -1  -7   4 -2.0327 6.35551   3
  -1  -7   4 2.46421 6.53668   5
  -1  -7   4 5.74515 6.67504   2
  -1   7   4 2.55613 6.34959   3
  -1   7   4 4.98464 2.08895   9
  -1   7   4 7.07590 7.22014   2
  -1   7   4 0.40036 1.48443   8
  -1  -7  -4 4.62203 2.39453   8
  -1   7  -4 1.98365 5.00930   3
  -1   7  -4 1.58848 6.17379   7
  -1   7  -4 4.00197 1.78483   8
  -1   7  -4 3.71654 5.58559   2
  -2  -7  -4 24.6863 8.87129   2
  -2  -7  -4 20.7726 3.81950   9
  -2  -7  -4 29.0828 3.74328   8
  -2  -7  -4 19.1121 4.20157  12
  -2  -7  -4 19.3031 8.68586   3
  -2   7  -4 22.9761 3.85192  17
  -2   7  -4 23.2003 8.30549   2
  -2   7  -4 20.7913 7.89311   7
  -2   7  -4 20.4745 2.66525   8
  -2   7  -4 16.3653 2.99235   9
  -2   7  -4 7.91846 5.92858   3
  -2   7  -4 14.0224 3.22253  10
  -3  -7  -4 27.5693 3.27042   8
  -3  -7  -4 10.3207 9.78306   3
  -3  -7  -4 19.4756 4.84494  12
  -3  -7  -4 22.5772 4.48681  10
  -3  -7  -4 27.4409 4.02542   9
  -3  -7  -4 10.2316 9.70491   4
  -3  -7  -4 24.0175 10.8408   2
  -3  -7  -4 29.5469 14.4996   5
  -3   7  -4 23.1435 10.6422   7
  -3   7  -4 17.8914 4.18021  17
  -3   7  -4 19.8283 2.25885   8
  -3   7  -4 19.6611 3.39012  10
  -3   7  -4 23.1614 2.97868   9
  -3   7  -4 17.3335 7.26329   3
  -3   7  -4 22.7295 4.22219  18
  -3   7  -4 18.0476 6.83323   2
  -4  -7  -4 1.13817 4.16138  12
  -4  -7  -4 -4.6986 4.68807  13
  -4  -7  -4 -0.9212 2.25038   9
  -4  -7  -4 3.01425 3.18467  10
  -4   7  -4 -1.8962 3.42726  17
  -4   7  -4 4.56729 2.66619  16
  -4   7  -4 5.45981 2.13258  10
  -4   7  -4 6.15347 3.58069  18
  -5  -7  -4 8.76502 4.23468  13
  -5  -7  -4 5.13957 5.18937  12
  -5   7  -4 6.69849 1.76911  10
  -5   7  -4 6.66562 3.89112  17
  -5   7  -4 9.37816 3.02950  16
  -5   7  -4 6.34769 2.74418  18
  -6  -7  -4 6.14736 3.48824  12
  -6   7  -4 8.95777 2.79604  17
  -6   7  -4 8.34899 2.30860  16
  -6  -8   4 137.103 14.8760  13
  -6   8   4 117.399 12.4202  16
  -5  -8   4 40.8157 4.91289  10
  -5  -8   4 42.0514 7.12737  13
  -5   8   4 39.0019 5.87178  17
  -4  -8   4 193.072 21.4777  13
  -4  -8   4 194.305 17.3554   9
  -4  -8   4 208.450 18.2658  10
  -4   8   4 191.871 19.7694  17
  -4   8   4 178.691 19.3082  16
  -4   8   4 186.142 16.8065   9
  -3  -8   4 8.24814 13.5946   5
  -3  -8   4 24.2286 4.33395  10
  -3  -8   4 27.6128 5.96974  13
  -3  -8   4 18.0138 3.42538   9
  -3  -8   4 14.3032 2.39845   8
  -3   8   4 21.4332 3.88768  16
  -3   8   4 -1.3296 8.35776   6
  -3   8   4 19.2339 4.44151  17
  -3   8   4 19.4200 13.4137   7
  -3   8   4 15.9116 2.66124   9
  -2  -8   4 97.0108 17.7981   5
  -2  -8   4 66.7675 7.58910   9
  -2  -8   4 37.4895 11.9558   3
  -2  -8   4 55.4242 12.2966   2
  -2  -8   4 66.9522 6.47626   8
  -2   8   4 61.9061 13.6416   7
  -2   8   4 48.0334 10.8493   2
  -2   8   4 62.4659 7.51349  16
  -2   8   4 39.5605 10.1746   3
  -2   8   4 69.5731 7.19486  10
  -2   8   4 67.9956 6.02230   8
  -1  -8   4 17.4940 10.2882   5
  -1  -8   4 10.9677 2.94998   8
  -1   8   4 9.64214 8.40133   2
  -1   8   4 7.50028 7.51351   3
  -1   8   4 12.2663 2.95328   9
  -1   8   4 19.4647 3.13812  16
  -1   8   4 16.1513 2.46036   8
   0  -8   4 6.59421 8.20942   5
   0   8  -4 11.1907 8.07458   7
   0   8   4 2.10949 1.99944   8
  -1  -8  -4 69.3622 7.80029   8
  -1   8  -4 82.0913 13.8130   7
  -1   8  -4 79.9495 7.46132   8
  -2  -8  -4 29.4385 11.3140   3
  -2  -8  -4 22.4551 3.57288   8
  -2  -8  -4 18.8577 4.48891  12
  -2  -8  -4 21.5755 4.24964   9
  -2  -8  -4 4.99376 11.4266   2
  -2   8  -4 2.22306 7.05175   3
  -2   8  -4 23.7476 9.85162   7
  -2   8  -4 21.0954 9.11636   2
  -2   8  -4 28.3015 4.31974  17
  -2   8  -4 25.4080 2.74701   8
  -2   8  -4 15.8481 3.61043  10
  -2   8  -4 22.9993 3.46445   9
  -3  -8  -4 6.59155 4.08150  12
  -3  -8  -4 17.7864 18.0942   5
  -3   8  -4 8.32438 2.54492  10
  -3   8  -4 -2.6203 11.4226   7
  -3   8  -4 2.05203 1.85947   9
  -3   8  -4 6.47832 3.07103  18
  -3   8  -4 9.27279 3.43963  17
  -4  -8  -4 31.0034 6.79691  12
  -4  -8  -4 56.9298 7.45752  13
  -4   8  -4 49.0622 4.70571   9
  -4   8  -4 42.0039 6.09585  18
  -4   8  -4 48.4258 6.13825  17
  -4   8  -4 45.4748 5.50346  10
  -5  -8  -4 27.0283 5.77172  12
  -5  -8  -4 20.9038 5.30638  13
  -5   8  -4 29.9911 4.48464  17
  -5   8  -4 27.1156 3.30096  10
  -6  -8  -4 24.1318 4.05685  12
  -6   8  -4 25.7013 3.53334  17
  -5  -9   4 23.2863 3.29878  10
  -5  -9   4 19.5113 5.15533  13
  -5   9   4 22.0981 3.12619  16
  -5   9   4 15.7079 3.70528  17
  -4  -9   4 8.06651 3.30323  10
  -4  -9   4 11.6646 2.49945   9
  -4  -9   4 12.9511 4.66811  13
  -4   9   4 17.7334 3.31131  17
  -4   9   4 7.65255 2.99448  16
  -3  -9   4 42.7934 4.83292   9
  -3  -9   4 25.3969 3.24640   8
  -3  -9   4 45.3644 7.51732  13
  -3  -9   4 46.3799 5.24992  10
  -3   9   4 42.5590 5.59425  17
  -3   9   4 26.8819 4.69285  16
  -2  -9   4 25.7935 3.77780   8
  -2  -9   4 31.8073 4.33939   9
  -2   9   4 25.6090 4.24516  16
  -2   9   4 24.3777 4.17338  10
  -2   9   4 32.9363 4.08172   9
  -1  -9   4 12.5998 12.3510   5
  -1  -9   4 16.7327 3.51030   8
   0  -9   4 3.76882 11.5637   5
   0   9  -4 8.13624 10.4904   7
   0   9  -4 17.9143 3.23467   8
  -1   9  -4 12.3273 2.52849   8
  -1   9  -4 -8.5867 10.7324   7
  -2   9  -4 12.5775 3.17144   9
  -2   9  -4 18.1489 3.95142  17
  -2   9  -4 15.6509 2.52578   8
  -3  -9  -4 6.94580 3.91651  12
  -3   9  -4 4.13375 2.23171   9
  -3   9  -4 11.7807 2.39596  10
  -3   9  -4 11.0481 3.16626  18
  -3   9  -4 7.01705 3.61305  17
  -4  -9  -4 10.3243 3.90253  13
  -4  -9  -4 9.31504 4.17205  12
  -4   9  -4 8.88265 2.43488  10
  -4   9  -4 6.26925 2.86781  17
  -5  -9  -4 5.06073 2.85489  13
  -5  -9  -4 7.68735 3.96846  12
  -5   9  -4 6.74812 2.62292  17
  -5   9  -4 6.53613 1.48249  10
  -5 -10   4 2.98158 1.72632  10
  -5 -10   4 7.74602 3.42274  13
  -4 -10   4 -0.0403 5.14260  13
  -4 -10   4 4.20603 1.99563   9
  -4 -10   4 2.79703 2.13004  10
  -4  10   4 -1.7509 1.33387  16
  -4  10   4 0.59913 2.09787  17
  -3 -10   4 34.1574 5.27156  10
  -3 -10   4 34.3625 7.09990  13
  -3 -10   4 33.4703 4.37493   9
  -3  10   4 31.4329 4.75561  17
  -2 -10   4 22.0738 3.61066   9
  -2 -10   4 18.0096 5.81375  13
  -2 -10   4 19.4786 3.32819   8
  -2  10   4 17.5096 2.18598   8
  -1 -10   4 24.4047 4.05126   8
   0 -10   4 4.42078 2.55223   8
   0  10  -4 3.59646 2.55660   8
  -1  10  -4 105.028 9.51521   8
  -2  10  -4 29.3782 4.07635   9
  -2  10  -4 29.6939 4.27819  17
  -2  10  -4 23.7828 2.81593   8
  -3 -10  -4 10.9787 4.33583  13
  -3  10  -4 16.2573 3.23924  17
  -3  10  -4 14.5902 2.48753   9
  -3  10  -4 12.5463 3.00915  10
  -4 -10  -4 6.91344 3.44335  13
  -4  10  -4 6.56413 2.56495  17
  -4  10  -4 8.28237 1.79628  10
  -5  10  -4 8.01140 2.17821  17
  -4 -11   4 7.89118 3.41212  13
  -4 -11   4 1.44458 1.83089  10
  -4  11   4 5.25898 2.77132  17
  -3 -11   4 3.71039 2.56763   9
  -3 -11   4 -1.2766 3.10550  13
  -3 -11   4 -0.2082 3.48401  10
  -3  11   4 -0.4345 1.96135  17
  -3  11   4 -1.6646 1.10237   9
  -2 -11   4 12.4500 4.11391  13
  -2 -11   4 13.2589 3.11461   9
  -2 -11   4 12.0220 2.37076   8
  -2  11   4 14.7022 3.05670  17
  -1 -11   4 -1.7764 3.02045  13
  -1 -11   4 0.22782 2.80934   8
   0 -11   4 5.59591 2.58806   8
   0  11  -4 5.42790 2.50042   8
  -1  11  -4 1.23566 2.17437   9
  -1  11  -4 0.44766 2.12992  17
  -1  11  -4 2.85318 1.70018   8
  -2  11  -4 26.1706 4.20639  17
  -2  11  -4 25.9298 3.14239   9
  -2  11  -4 18.3486 1.92410   8
  -3 -11  -4 0.48978 3.01095  13
  -3  11  -4 0.15018 1.60824  10
  -3  11  -4 -0.3874 3.00795  17
  -4 -11  -4 26.2788 4.34723  13
  -4  11  -4 30.1483 4.18919  17
  -4  11  -4 28.7753 3.36217  10
  -2 -12   4 10.7493 3.91354  13
  -2  12   4 6.14253 2.38448  17
  -1 -12   4 14.0891 3.54644  13
  -1 -12   4 17.2334 3.05541   8
   1  12  -4 12.5709 2.81360   8
  -1  12   4 33.6959 3.78264  17
  -1  12   4 21.8164 2.13983   8
   0 -12   4 -3.0290 2.86584   8
   0  12  -4 2.52805 1.75631   8
   0  12  -4 2.99334 2.77208  17
  -1  12  -4 7.30187 2.89113   9
  -1  12  -4 11.9649 1.69383   8
  -1  12  -4 14.0013 3.21465  17
  -2 -12  -4 -2.6987 4.03887  13
  -2  12  -4 5.77527 1.48516   9
  -2  12  -4 3.39000 1.96596  17
  -7   0   5 -0.9937 2.90856  14
  -7   0   5 -3.6164 3.13441  13
  -7   0   5 1.92158 2.10926  12
  -6   0   5 0.57697 3.40592  14
  -6   0   5 -1.5972 3.15113  13
  -6   0   5 0.97087 3.28498  12
  -6   0   5 3.02484 2.74932  11
  -5   0   5 -9.0720 8.24606   5
  -5   0   5 -3.3323 4.14933  13
  -5   0   5 -1.7390 2.28325  11
  -5   0   5 1.53199 2.91430  12
  -5   0   5 -4.2551 2.87293  14
  -4   0   5 -3.6272 5.10363   6
  -4   0   5 0.10573 2.45158  12
  -4   0   5 3.06326 2.69791  14
  -4   0   5 3.86126 6.52442   5
  -4   0   5 1.45995 0.99539  10
  -4   0   5 2.69453 3.45660  13
  -3   0   5 -1.1521 1.34588   2
  -3   0   5 0.12003 1.45676   3
  -3   0   5 -0.5520 1.31681   3
  -3   0   5 5.10189 4.77697   5
  -3   0   5 1.83238 1.46085   2
  -3   0   5 -2.2811 1.16559   1
  -3   0   5 4.92660 4.16985   6
   3   0  -5 -0.3535 1.35617   1
  -2   0   5 -0.9269 3.24734   6
  -2   0   5 -3.0482 3.87206   5
   2   0  -5 -0.2487 1.85429   1
  -2   0   5 0.56209 2.33166   2
  -2   0   5 0.34711 1.72443   1
  -2   0   5 -0.2551 1.99582   3
  -2   0   5 0.22390 2.25976   2
  -2   0   5 3.44719 2.08191   1
   2   0  -5 1.29956 2.18844   1
  -2   0   5 -0.9742 2.26088   3
  -1   0   5 -0.0919 1.99092   1
  -1   0   5 -0.0493 1.90468   3
  -1   0   5 -1.4140 2.32393   3
   1   0  -5 1.12504 2.28056   1
   1   0  -5 -1.5029 1.78622   1
  -1   0   5 -0.4205 0.96088   1
  -1   0   5 -0.8888 3.26155   5
  -1   0   5 2.06032 2.59118   2
   1   0  -5 -0.6425 2.11315   3
   0   0   5 0.35462 2.93089   2
   0   0   5 0.56904 2.72210   3
   0   0  -5 -4.4576 1.84757   1
   0   0   5 4.31296 2.45327   1
   0   0  -5 -1.0289 2.44029   1
   0   0   5 1.17753 2.51162   5
   0   0  -5 -4.5741 2.30181   2
   0   0  -5 1.11825 1.65461   7
   0   0   5 2.90526 2.80361   1
   0   0  -5 -2.2502 2.14611   3
  -1   0  -5 -0.0212 2.58750   2
  -1   0  -5 1.68665 2.49033   3
   1   0   5 -0.3897 2.81869   2
   1   0   5 -1.4820 2.68025   1
  -1   0  -5 2.68443 2.16243   1
   1   0   5 -1.4520 2.38477   1
   1   0   5 -2.2653 3.06316   3
  -1   0  -5 -3.8085 2.23663   1
  -1   0  -5 2.87327 3.33693   7
   2   0   5 -6.0977 2.48793   1
  -2   0  -5 -4.0105 2.22022   1
  -2   0  -5 -2.0066 1.93320   2
  -2   0  -5 0.06254 2.05442   1
  -2   0  -5 -5.5191 4.17196   4
   2   0   5 2.27653 2.66465   1
  -2   0  -5 1.90639 2.00551   3
  -2   0  -5 1.50017 3.32284   2
  -2   0  -5 -1.6236 2.62468   3
  -2   0  -5 -0.6848 4.24826   7
  -3   0  -5 -1.2545 2.83828   2
  -3   0  -5 5.37948 5.29978   4
  -3   0  -5 1.35223 2.97666   3
  -3   0  -5 4.84661 5.50904   7
  -3   0  -5 2.54707 2.42799   3
  -3   0  -5 -2.3812 2.39610   2
  -4   0  -5 2.29167 2.41130  16
  -4   0  -5 -0.7674 2.54257  11
  -4   0  -5 -1.0093 2.52598  17
  -4   0  -5 -0.1586 1.63796  10
  -4   0  -5 4.90412 5.49813   4
  -4   0  -5 -0.9002 5.16914   7
  -4   0  -5 -3.4827 2.96226  18
  -5   0  -5 2.60677 7.88474   7
  -5   0  -5 -1.8265 3.67390  18
  -5   0  -5 3.42270 2.91672  16
  -5   0  -5 1.20478 3.11935  17
  -5   0  -5 -0.2408 1.41828  10
  -5   0  -5 -3.8378 9.82125   4
  -6   0  -5 4.33201 2.75471  17
  -6   0  -5 4.34844 4.56328  18
  -6   0  -5 -2.2159 2.08199  16
  -7   0  -5 5.63543 4.34573  18
  -7   0  -5 2.85043 3.65671  17
  -8   0  -5 2.22565 2.89736  18
  -7  -1   5 85.3164 9.61065  14
  -7  -1   5 93.5122 11.7108  13
  -7  -1   5 88.3535 9.96957  12
  -7   1   5 93.0414 10.9249  13
  -7   1   5 94.3867 9.73524  14
  -6  -1   5 4.07691 3.35526  12
  -6  -1   5 9.63387 3.23602  11
  -6  -1   5 2.98372 3.52934  14
  -6  -1   5 8.30562 5.01667  13
  -6   1   5 4.75710 3.28372  16
  -6   1   5 4.04952 3.35740  12
  -6   1   5 8.72535 2.81530  11
  -6   1   5 -0.1034 3.46335  14
  -6   1   5 8.87780 5.23109  13
  -5  -1   5 22.5893 4.37392  14
  -5  -1   5 20.9501 5.42832  13
  -5  -1   5 18.7845 3.31307  15
  -5  -1   5 21.2968 3.90845  18
  -5  -1   5 25.1788 4.29743  12
  -5  -1   5 23.1066 3.96119  11
  -5  -1   5 -15.880 8.52841   5
  -5   1   5 17.9454 3.39605  11
  -5   1   5 7.44979 8.60171   6
  -5   1   5 18.6963 3.80279  16
  -5   1   5 25.0992 4.29457  14
  -5   1   5 19.8288 4.16485  12
  -5   1   5 5.08644 9.03017   5
  -5   1   5 20.1339 3.64881  15
  -5   1   5 26.8413 5.50750  13
  -4  -1   5 199.408 18.9213  11
  -4  -1   5 174.926 22.9739   5
  -4  -1   5 185.014 18.7861  14
  -4  -1   5 165.211 16.8746  10
  -4  -1   5 196.270 19.2607  12
  -4  -1   5 192.240 20.3531  13
  -4  -1   5 171.793 20.2048   6
  -4   1   5 185.792 18.0121  15
  -4   1   5 191.953 18.7464  14
  -4   1   5 183.797 16.8003  10
  -4   1   5 192.067 22.9450   5
  -4   1   5 197.399 20.8799   6
  -4   1   5 193.882 20.4457  13
  -4   1   5 183.969 19.1381  12
  -3  -1   5 33.6128 7.52155   5
  -3  -1   5 28.1483 5.46109   6
  -3  -1   5 25.4812 3.45190   2
  -3  -1   5 29.1971 3.56124   3
  -3  -1   5 17.9133 2.77993   1
  -3  -1   5 22.0367 3.56760   2
  -3  -1   5 21.1259 3.56327   3
  -3   1   5 26.8024 3.47886   3
  -3   1   5 29.7314 7.15007   5
  -3   1   5 35.6107 6.29597   6
  -3   1   5 28.9651 3.28977   2
  -3   1   5 24.3059 3.22551   2
  -3   1   5 18.4614 2.63864   1
  -3   1   5 28.1178 3.56218   3
  -2  -1   5 257.592 27.0039   2
  -2  -1   5 311.650 27.3930   2
   2  -1  -5 306.770 23.2604   1
  -2  -1   5 286.443 23.0245   1
  -2  -1   5 323.297 30.9949   5
  -2  -1   5 248.575 23.1257   1
  -2  -1   5 308.237 28.8009   6
  -2  -1   5 259.427 28.6787   3
   2  -1  -5 288.557 23.2497   1
  -2  -1   5 304.228 28.6607   3
  -2   1   5 321.215 29.1978   6
  -2   1   5 254.154 27.2591   2
   2   1  -5 285.815 23.0977   1
   2   1  -5 288.086 23.2354   1
  -2   1   5 301.622 31.2394   5
  -2   1   5 280.421 23.0589   1
  -2   1   5 288.510 28.6521   3
  -2   1   5 239.116 29.2878   7
  -2   1   5 307.237 28.9808   3
  -2   1   5 268.373 23.1579   1
  -2   1   5 325.917 27.2285   2
  -1  -1   5 267.980 26.6144   3
   1  -1  -5 275.874 21.5300   1
   1  -1  -5 245.003 26.5884   3
  -1  -1   5 268.611 27.8004   5
  -1  -1   5 265.117 25.2336   2
  -1  -1   5 271.507 21.4010   1
   1  -1  -5 241.723 21.5422   1
  -1  -1   5 258.394 21.4096   1
  -1   1   5 275.515 26.4627   6
   1   1  -5 280.263 21.4294   1
  -1   1   5 280.709 28.0530   5
  -1   1   5 272.223 26.6677   3
   1   1  -5 236.725 26.4771   3
   1   1  -5 274.226 21.4075   1
  -1   1   5 262.866 21.4671   1
  -1   1   5 269.030 25.2608   2
   1   1  -5 231.905 25.0422   2
   0  -1  -5 777.495 75.6483   2
   0  -1  -5 863.652 64.3963   1
   0  -1   5 793.923 80.0578   3
   0  -1   5 831.242 64.2603   1
   0  -1   5 778.914 82.3551   5
   0  -1  -5 822.219 64.3054   1
   0  -1  -5 812.968 80.1799   3
   0  -1   5 802.641 64.1840   1
   0  -1   5 825.639 75.6718   2
   0   1  -5 818.644 75.5050   2
   0   1   5 838.179 80.2554   3
   0   1   5 819.872 64.2592   1
   0   1  -5 849.988 64.1391   1
   0   1   5 778.164 75.6247   2
   0   1  -5 761.858 81.9723   7
   0   1  -5 867.124 64.1792   1
   0   1   5 879.135 64.4444   1
   0   1  -5 803.474 79.9400   3
   1  -1   5 114.481 10.6543   1
   1  -1   5 100.704 12.3176   2
  -1  -1  -5 141.040 13.2197   2
  -1  -1  -5 130.856 10.9937   1
   1  -1   5 104.738 12.9253   3
   1  -1   5 121.213 10.7943   1
  -1  -1  -5 115.133 13.2231   7
  -1  -1  -5 126.941 13.2320   3
  -1  -1  -5 135.536 10.8711   1
   1   1   5 102.839 12.6952   2
   1   1   5 125.913 10.9821   1
  -1   1  -5 116.948 12.1068   2
  -1   1  -5 108.011 10.2879   1
   1   1   5 129.919 11.0895   1
   1   1   5 100.817 13.1888   3
  -1   1  -5 121.700 12.7923   3
  -1   1  -5 117.084 10.4839   1
  -1   1  -5 108.380 13.0945   7
  -2  -1  -5 67.7495 9.44211   2
  -2  -1  -5 82.7644 10.3771   3
  -2  -1  -5 115.521 10.5099   2
   2  -1   5 87.3323 8.36568   1
  -2  -1  -5 89.6326 8.58376   1
  -2  -1  -5 106.362 11.4967   7
   2  -1   5 94.4278 8.73039   1
  -2  -1  -5 77.4923 8.36020   1
  -2  -1  -5 107.397 10.1367   3
  -2  -1  -5 93.7713 12.2483   4
   2   1   5 83.2236 8.62834   1
  -2   1  -5 101.962 9.84513   2
  -2   1  -5 71.3195 9.93607   3
  -2   1  -5 93.2268 8.25906   1
  -2   1  -5 89.8733 11.2352   7
  -2   1  -5 87.5628 8.06379   1
   2   1   5 67.9258 8.41691   1
  -2   1  -5 103.640 10.1637   3
  -2   1  -5 63.9496 9.31199   2
  -2   1  -5 88.4451 11.6085   4
  -3  -1  -5 56.6627 7.25546   2
  -3  -1  -5 47.2365 6.99566   3
  -3  -1  -5 72.2338 10.2557   4
  -3  -1  -5 55.7127 9.21930   7
  -3   1  -5 56.2019 9.48680   7
  -3   1  -5 70.7883 9.86912   4
  -3   1  -5 52.6869 7.29224   2
  -3   1  -5 57.1079 6.98364   3
  -4  -1  -5 71.5984 7.89218  17
  -4  -1  -5 64.0643 6.87069   3
  -4  -1  -5 68.5049 7.59329  16
  -4  -1  -5 63.8445 10.9752   7
  -4  -1  -5 49.2716 6.83390   3
  -4  -1  -5 55.9307 7.90635  11
  -4  -1  -5 55.8433 6.62753   2
  -4  -1  -5 77.8540 6.74380  10
  -4  -1  -5 48.5337 10.4284   4
  -4  -1  -5 80.8269 8.25980  18
  -4  -1  -5 63.4757 6.65049   2
  -4   1  -5 70.2798 7.66172  16
  -4   1  -5 65.0940 7.09163  15
  -4   1  -5 55.0869 7.56404  11
  -4   1  -5 68.2657 7.71975  17
  -4   1  -5 60.7746 8.33813  18
  -4   1  -5 74.6718 11.8070   7
  -4   1  -5 77.4622 6.44825  10
  -4   1  -5 61.0543 10.9062   4
  -5  -1  -5 53.6596 6.79218  16
  -5  -1  -5 50.7309 6.84114  18
  -5  -1  -5 53.1271 6.77604  17
  -5  -1  -5 58.6274 6.82678  12
  -5  -1  -5 51.7429 5.28308  10
  -5  -1  -5 26.0710 11.1867   4
  -5  -1  -5 65.4696 7.45039  11
  -5   1  -5 48.1686 11.8433   7
  -5   1  -5 51.4018 6.95910  16
  -5   1  -5 45.6837 5.34284  10
  -5   1  -5 56.9942 6.80435  17
  -5   1  -5 52.4783 6.98931  11
  -5   1  -5 38.9658 7.03038  18
  -6  -1  -5 31.1459 4.49745  17
  -6  -1  -5 25.8562 5.44313  18
  -6  -1  -5 23.1718 4.54125  12
  -6   1  -5 21.0627 5.58293  18
  -6   1  -5 23.8046 4.94479  17
  -6   1  -5 26.4416 4.76024  16
  -7  -1  -5 23.1672 5.24756  18
  -7   1  -5 22.7271 5.24341  18
  -7   1  -5 24.3556 4.08032  17
  -8  -1  -5 39.5940 5.21488  18
  -7  -2   5 1.74588 2.05793  14
  -7  -2   5 2.77367 3.07413  12
  -7  -2   5 -3.6798 4.51374  13
  -7   2   5 2.69276 3.08787  14
  -7   2   5 0.47915 2.29559  16
  -6  -2   5 23.4607 5.96396  13
  -6  -2   5 19.2333 3.55123  12
  -6  -2   5 21.7418 4.10322  11
  -6  -2   5 15.2375 4.25259  14
  -6   2   5 11.5604 3.31869  14
  -6   2   5 15.5233 4.19559  16
  -6   2   5 12.8167 5.68116  13
  -5  -2   5 100.212 10.4403  11
  -5  -2   5 83.7415 11.7628  13
  -5  -2   5 97.1357 10.6156  14
  -5  -2   5 92.5751 10.6823  12
  -5  -2   5 98.0572 10.3069  18
  -5  -2   5 52.0707 14.5783   5
  -5   2   5 106.075 12.1451  13
  -5   2   5 100.575 10.5793  14
  -5   2   5 79.5934 10.2692  16
  -5   2   5 76.3476 10.4074  12
  -4  -2   5 18.3168 8.54758   5
  -4  -2   5 36.3427 5.82922  13
  -4  -2   5 45.3262 5.20165  18
  -4  -2   5 42.6487 5.06447  11
  -4  -2   5 43.6262 5.41152  14
  -4  -2   5 36.6898 4.14191  10
  -4   2   5 30.6098 3.72674  10
  -4   2   5 39.9980 4.92906  15
  -4   2   5 39.7617 5.14049  12
  -4   2   5 36.0099 5.12709  14
  -4   2   5 33.8720 4.90763  16
  -4   2   5 36.8858 6.11719  13
  -4   2   5 25.8347 7.12522   6
  -3  -2   5 56.8247 8.26804   2
  -3  -2   5 111.314 13.8954   5
  -3  -2   5 86.7714 8.81036   3
  -3  -2   5 57.1016 8.78405   3
  -3  -2   5 79.6904 9.55889   6
  -3  -2   5 71.0553 8.72283   2
  -3   2   5 95.9051 10.7515   6
  -3   2   5 69.4717 8.66512   2
  -3   2   5 88.1398 9.01962   3
  -3   2   5 80.6124 8.58610   3
  -3   2   5 101.066 13.0617   5
  -3   2   5 88.7705 8.21669   2
  -2  -2   5 18.4657 4.15182   6
  -2  -2   5 12.3729 3.70113   3
  -2  -2   5 14.4222 2.60576   1
  -2  -2   5 17.8775 5.55055   5
   2  -2  -5 25.1769 3.87207   1
   2  -2  -5 20.4492 3.41681   1
  -2  -2   5 20.8745 3.63185   3
  -2  -2   5 14.9408 3.03511   1
  -2  -2   5 17.9270 3.97114   2
  -2  -2   5 10.4285 3.11016   2
  -2   2   5 20.7421 4.68149   6
  -2   2   5 9.62328 3.61848   2
   2   2  -5 20.0842 3.21582   1
   2   2  -5 16.8669 2.96669   1
  -2   2   5 16.3319 3.04951   1
  -2   2   5 23.3137 4.73295   7
  -2   2   5 11.3296 3.57000   3
  -2   2   5 12.4284 3.09847   1
  -2   2   5 25.8041 3.88236   2
  -2   2   5 21.1132 4.28763   3
  -1  -2   5 5.93146 2.81098   2
   1  -2  -5 3.48024 3.64094   3
  -1  -2   5 4.61215 1.91720   1
  -1  -2   5 3.75455 2.51611   1
   1  -2  -5 0.46166 2.98433   1
  -1  -2   5 4.38640 3.57693   5
  -1  -2   5 3.76680 2.69667   3
   1  -2  -5 1.75899 2.47617   1
   1  -2  -5 3.57496 3.21802   2
   1   2  -5 -1.2565 2.57816   2
  -1   2   5 -0.0790 3.15175   3
   1   2  -5 3.35575 2.55149   3
  -1   2   5 2.33151 2.40572   3
  -1   2   5 -0.6642 2.24261   1
  -1   2   5 6.05123 2.85463   2
  -1   2   5 -0.4055 2.57360   6
   1   2  -5 1.36407 2.08449   1
  -1   2   5 -0.7789 2.00121   1
   1   2  -5 2.78779 2.53978   1
   0  -2  -5 154.645 18.1470   3
   0  -2  -5 177.097 14.9356   1
   0  -2   5 168.363 16.9552   2
   0  -2  -5 152.047 14.5752   1
   0  -2   5 169.725 14.3548   1
   0  -2  -5 163.447 17.2300   2
   0  -2   5 169.053 14.3482   1
   0  -2   5 169.123 18.0012   5
   0  -2   5 175.976 17.7232   3
   0   2   5 167.895 16.9776   2
   0   2   5 168.986 14.4318   1
   0   2  -5 167.786 14.2354   1
   0   2   5 165.812 14.6952   1
   0   2  -5 165.065 17.6966   7
   0   2  -5 166.907 16.7992   2
   0   2  -5 159.785 17.5490   3
   0   2   5 162.466 18.0068   3
   0   2  -5 191.906 14.4344   1
   1  -2   5 1.04943 1.84500   5
  -1  -2  -5 -0.7516 3.21015   3
   1  -2   5 -4.1406 2.60295   2
   1  -2   5 0.08109 2.29763   1
  -1  -2  -5 -1.1270 3.92322   4
   1  -2   5 2.72645 2.77939   1
  -1  -2  -5 3.74370 3.47733   2
   1  -2   5 -1.5053 2.51730   3
  -1  -2  -5 -3.4133 2.35033   1
  -1  -2  -5 3.09658 2.92174   1
   1   2   5 -1.0725 2.83142   2
  -1   2  -5 1.61322 2.00504   1
  -1   2  -5 1.52636 2.53492   1
  -1   2  -5 3.82874 3.71459   7
  -1   2  -5 -0.1900 2.59832   2
   1   2   5 -3.5451 2.18876   1
   1   2   5 0.86567 2.40062   1
  -1   2  -5 -1.0200 2.40975   3
   1   2   5 1.75846 2.92907   3
  -2  -2  -5 75.3087 8.37632   1
   2  -2   5 83.2139 8.55411   1
  -2  -2  -5 67.0247 8.45549   1
  -2  -2  -5 87.3299 10.4983   2
  -2  -2  -5 101.771 12.5285   4
   2  -2   5 77.6056 8.32336   1
  -2  -2  -5 90.8786 10.3845   3
  -2   2  -5 85.7909 11.3041   7
  -2   2  -5 108.155 9.97086   2
  -2   2  -5 93.3499 10.0251   3
   2   2   5 89.4836 8.77087   1
  -2   2  -5 76.8512 8.04254   1
  -2   2  -5 86.8503 8.17796   1
   2   2   5 85.9660 8.75837   1
  -3  -2  -5 26.2927 4.62281   3
  -3  -2  -5 25.6259 7.02455   4
  -3  -2  -5 19.6341 4.58326   2
  -3   2  -5 29.4375 6.60844   7
  -3   2  -5 22.8212 4.33806   2
  -3   2  -5 29.3430 6.29041   4
  -3   2  -5 27.2829 4.28623   3
  -4  -2  -5 44.6731 5.35420  11
  -4  -2  -5 35.3308 3.32499   9
  -4  -2  -5 29.7475 4.78575  17
  -4  -2  -5 35.6343 3.95673  10
  -4  -2  -5 36.9207 5.05142  18
  -4  -2  -5 35.1812 4.88890  12
  -4  -2  -5 31.2210 4.71303   3
  -4  -2  -5 45.8558 10.2672   4
  -4  -2  -5 32.0849 4.85531   2
  -4   2  -5 23.9075 7.58394   4
  -4   2  -5 30.0607 3.58765  10
  -4   2  -5 26.9674 3.99723   2
  -4   2  -5 37.2544 4.35486  15
  -4   2  -5 32.0884 5.24711  18
  -4   2  -5 27.5044 4.07865   3
  -4   2  -5 37.5900 4.75015  17
  -4   2  -5 27.2947 3.07807   9
  -4   2  -5 43.2959 4.90015  16
  -4   2  -5 36.4273 4.94584  11
  -4   2  -5 21.8695 7.49097   7
  -5  -2  -5 31.9969 4.95155  17
  -5  -2  -5 28.4918 5.04474  18
  -5  -2  -5 23.0833 3.16444  10
  -5  -2  -5 19.9151 10.9510   4
  -5  -2  -5 28.1754 4.77866  12
  -5   2  -5 22.7660 3.95545  15
  -5   2  -5 21.1364 9.54956   7
  -5   2  -5 18.7395 4.06313  11
  -5   2  -5 27.6530 3.14116  10
  -5   2  -5 25.1706 4.52661  17
  -5   2  -5 30.3056 4.55735  16
  -5   2  -5 31.5602 5.58089  18
  -6  -2  -5 39.4786 5.53523  17
  -6  -2  -5 26.3185 4.92311  12
  -6  -2  -5 25.9823 5.59131  18
  -6   2  -5 24.7535 4.90887  18
  -6   2  -5 21.9528 4.73286  17
  -6   2  -5 17.5203 4.34959  16
  -7  -2  -5 2.85286 2.14836  12
  -7  -2  -5 1.75875 2.95040  18
  -7   2  -5 4.81395 4.01840  18
  -7   2  -5 3.30175 2.65467  17
  -7  -3   5 -0.0235 3.17089  13
  -7  -3   5 -1.5918 2.09326  12
  -7   3   5 -2.3254 3.15125  16
  -7   3   5 3.67612 2.24673  14
  -6  -3   5 81.3711 11.0863  13
  -6  -3   5 67.9343 9.29831  14
  -6  -3   5 84.8691 9.57186  11
  -6  -3   5 83.6012 9.50715  12
  -6   3   5 75.9799 9.49785  16
  -6   3   5 73.8089 8.87609  14
  -5  -3   5 14.2936 2.01362  10
  -5  -3   5 14.5223 3.81509  11
  -5  -3   5 13.4784 5.00441  13
  -5  -3   5 8.70056 3.75449  12
  -5  -3   5 9.01516 4.02592  14
  -5  -3   5 8.57561 11.1203   5
  -5   3   5 21.2985 3.97420  16
  -5   3   5 12.4083 5.51914  13
  -5   3   5 13.6132 3.95330  14
  -5   3   5 8.27688 7.58177   6
  -5   3   5 13.7893 3.35532  15
  -4  -3   5 73.5730 8.54196  11
  -4  -3   5 80.0096 9.68847  13
  -4  -3   5 67.7637 8.75920  14
  -4  -3   5 60.3993 12.4512   5
  -4  -3   5 76.2897 8.68249  12
  -4  -3   5 75.3183 7.21499  10
  -4   3   5 71.7774 8.54668  14
  -4   3   5 73.8273 9.74063  13
  -4   3   5 67.8484 7.93049  15
  -4   3   5 100.875 12.9276   6
  -4   3   5 67.5491 8.36167  16
  -3  -3   5 61.5786 11.9749   5
  -3  -3   5 73.7425 9.13354   2
  -3  -3   5 76.9706 9.45272   3
  -3   3   5 65.8656 10.9961   7
  -3   3   5 100.152 10.2416   3
  -3   3   5 76.7321 8.49807   2
  -3   3   5 85.9072 11.7309   6
  -2  -3   5 368.621 39.8381   5
  -2  -3   5 387.299 35.8625   2
  -2  -3   5 397.754 37.7431   3
  -2  -3   5 324.269 36.7522   6
  -2   3   5 397.136 35.6016   2
  -2   3   5 375.512 37.6387   3
  -2   3   5 389.248 37.8684   6
  -2   3   5 365.914 39.2795   7
  -1  -3   5 138.011 13.9225   2
   1  -3  -5 126.913 12.3450   1
   1  -3  -5 124.129 12.0619   1
  -1  -3   5 121.446 11.7556   1
  -1  -3   5 125.467 12.0005   1
  -1  -3   5 141.782 14.7492   3
  -1  -3   5 137.613 15.5097   5
  -1   3   5 139.515 14.4827   6
  -1   3   5 128.455 11.7427   1
   1   3  -5 131.466 12.1069   1
  -1   3   5 145.114 13.9645   2
  -1   3   5 131.043 11.9035   1
  -1   3   5 137.538 14.7415   3
   1   3  -5 121.807 11.9500   1
   0  -3  -5 158.663 16.7376   3
   0  -3   5 140.865 15.5000   2
   0  -3  -5 148.052 16.0693   2
   0  -3   5 150.013 16.5143   5
   0  -3   5 159.080 16.3030   3
   0  -3  -5 152.744 13.6754   1
   0  -3   5 141.037 13.1075   1
   0  -3   5 148.457 13.1071   1
   0  -3  -5 139.931 16.3009   4
   0  -3  -5 148.616 13.5768   1
   0   3   5 158.986 15.7266   2
   0   3  -5 143.972 15.4836   2
   0   3  -5 142.726 13.1159   1
   0   3   5 160.902 16.3552   3
   0   3   5 157.239 15.7272   6
   0   3   5 156.999 13.3151   1
   0   3  -5 150.859 16.2781   7
   0   3  -5 147.101 16.1852   3
   0   3  -5 149.283 13.1232   1
   0   3   5 136.326 13.1427   1
   1  -3   5 30.7488 4.45740   1
  -1  -3  -5 49.5428 7.21783   2
  -1  -3  -5 30.7490 6.35677   4
  -1  -3  -5 46.1122 6.94141   3
   1  -3   5 26.5876 4.48644   1
  -1  -3  -5 33.3135 5.12526   1
  -1  -3  -5 37.7601 5.45669   1
   1  -3   5 25.2445 5.33033   2
   1  -3   5 24.8984 5.37362   3
   1   3   5 24.2519 4.48206   6
   1   3   5 24.3701 5.62688   3
  -1   3  -5 33.6874 4.37055   1
  -1   3  -5 41.2188 6.38838   7
   1   3   5 33.7825 5.03301   1
  -1   3  -5 35.9145 5.36326   3
   1   3   5 29.9619 4.78549   1
   1   3   5 17.4252 5.48182   2
  -1   3  -5 29.1500 5.26927   2
  -1   3  -5 28.5947 4.15930   1
  -2  -3  -5 102.043 12.0201   2
  -2  -3  -5 122.138 12.6981   3
  -2  -3  -5 80.2707 9.82069   1
  -2  -3  -5 101.103 13.5553   4
  -2   3  -5 92.0033 10.8596   2
  -2   3  -5 92.7335 11.0840   3
  -2   3  -5 102.940 12.7157   7
  -3  -3  -5 141.660 16.7387   3
  -3  -3  -5 148.541 18.6405   4
  -3   3  -5 162.599 18.5385   7
  -3   3  -5 137.040 17.3003   4
  -3   3  -5 154.790 15.6193   2
  -3   3  -5 154.788 16.1296   3
  -4  -3  -5 14.2280 9.52327   4
  -4  -3  -5 18.1703 4.57072   2
  -4  -3  -5 20.0189 3.96189  11
  -4  -3  -5 26.1277 3.42585  10
  -4  -3  -5 25.7002 4.21965  17
  -4  -3  -5 22.0171 3.94619  18
  -4  -3  -5 17.7819 2.46526   9
  -4  -3  -5 18.2180 4.21670   3
  -4  -3  -5 20.0356 4.11234  12
  -4   3  -5 15.6788 3.72634   3
  -4   3  -5 21.3685 3.70347  16
  -4   3  -5 18.4042 3.69688  17
  -4   3  -5 21.1921 3.39137  15
  -4   3  -5 21.2770 7.69964   7
  -4   3  -5 22.6126 4.72649   2
  -4   3  -5 20.6574 2.75396  10
  -4   3  -5 14.5597 4.24190  18
  -4   3  -5 19.8277 2.29927   9
  -5  -3  -5 53.8515 7.00939  12
  -5  -3  -5 55.5501 6.85251  17
  -5  -3  -5 55.3013 7.16991  11
  -5  -3  -5 39.6419 5.14650  10
  -5  -3  -5 50.2491 6.18796  18
  -5   3  -5 42.0826 5.95635  16
  -5   3  -5 42.4855 6.08203  17
  -5   3  -5 32.4287 6.78167  18
  -5   3  -5 35.6186 11.5970   7
  -5   3  -5 42.7100 4.71037  10
  -6  -3  -5 14.8270 4.75342  18
  -6  -3  -5 6.69598 4.05146  12
  -6   3  -5 15.4611 5.13703  18
  -6   3  -5 10.2479 3.59429  16
  -6   3  -5 15.5718 4.20844  17
  -7  -3  -5 3.56666 1.88467  12
  -7  -3  -5 9.81636 2.98766  18
  -7   3  -5 13.4132 2.54564  16
  -7   3  -5 0.59983 3.95083  18
  -7   3  -5 12.5792 3.73507  17
  -7  -4   5 5.18878 3.15279  12
  -7  -4   5 2.56496 4.82163  13
  -7   4   5 2.42752 2.22850  16
  -6  -4   5 7.13192 2.66264  14
  -6  -4   5 8.05470 3.89769  11
  -6  -4   5 6.84400 4.08424  13
  -6  -4   5 4.12880 3.37558  12
  -6   4   5 4.91368 2.73029  14
  -6   4   5 4.59388 3.79667  16
  -5  -4   5 -0.7272 7.94458   5
  -5  -4   5 2.60548 1.59096  10
  -5  -4   5 0.70560 4.53061  13
  -5  -4   5 6.18704 3.86656  14
  -5  -4   5 3.07707 3.47910  11
  -5  -4   5 0.25262 2.38279  12
  -5   4   5 -0.3349 3.78863  17
  -5   4   5 0.99410 3.37179  14
  -5   4   5 1.08610 0.89302  10
  -5   4   5 0.08079 3.29262  16
  -4  -4   5 -3.4282 3.37220   3
  -4  -4   5 -0.9979 3.63663   2
  -4  -4   5 0.19560 1.47569  10
  -4  -4   5 3.10279 3.34137  14
  -4  -4   5 3.84729 3.65572  13
  -4  -4   5 -1.5961 2.64306  12
  -4  -4   5 1.88510 2.00928  11
  -4  -4   5 1.72020 1.19566   9
  -4  -4   5 -5.8405 6.68482   5
  -4   4   5 3.52063 2.87415  14
  -4   4   5 3.57334 6.35469   6
  -4   4   5 3.16238 3.80391  17
  -4   4   5 2.47183 2.76573  16
  -4   4   5 3.99810 2.37427  15
  -4   4   5 -4.2809 4.29289  13
  -4   4   5 -1.1690 1.51295  10
  -3  -4   5 123.731 16.6841   5
  -3  -4   5 136.217 14.3463   3
  -3  -4   5 121.092 11.2548   9
  -3  -4   5 116.622 13.6893   2
  -3  -4   5 118.143 14.0073  13
  -3  -4   5 122.536 11.6687  10
  -3   4   5 135.860 13.0640   2
  -3   4   5 125.888 11.6664  10
  -3   4   5 115.714 11.1053   9
  -3   4   5 140.458 15.4090   6
  -3   4   5 134.904 14.4992   3
  -3   4   5 118.990 12.8292  16
  -3   4   5 129.415 18.1805   7
  -2  -4   5 76.5999 10.4653   3
  -2  -4   5 78.4706 10.2604   2
  -2  -4   5 94.3588 13.0050   5
  -2   4   5 80.9931 9.59918   2
  -2   4   5 88.4448 11.4608   6
  -2   4   5 86.5323 12.6957   7
  -2   4   5 82.0671 10.4236   3
  -1  -4   5 10.1972 3.89948   2
  -1  -4   5 11.7823 3.81761   3
  -1  -4   5 7.15705 3.03447   1
  -1  -4   5 8.86547 4.40232   5
   1  -4  -5 9.75580 3.75581   1
  -1   4   5 10.1940 4.15420   2
  -1   4   5 9.06413 3.55567   1
   1   4  -5 4.25554 3.57399   1
  -1   4   5 4.90023 3.35990   3
  -1   4   5 3.87067 4.22988   6
   0  -4   5 89.8931 10.5495   2
   0  -4   5 75.2386 8.74350   1
   0  -4  -5 92.0360 9.81581   1
   0  -4  -5 90.1549 11.4413   3
   0  -4   5 83.7968 10.6762   5
   0  -4  -5 80.1387 9.00356   1
   0  -4   5 75.5240 10.2163   3
   0  -4  -5 98.8590 11.9445   2
   0  -4  -5 75.3834 9.78799   4
   0  -4   5 73.7391 8.71289   1
   0   4  -5 74.0114 8.79076   1
   0   4   5 76.7580 8.88737   1
   0   4  -5 76.5314 8.66431   1
   0   4  -5 82.1758 10.4006   7
   0   4   5 86.7855 10.4187   3
   0   4   5 82.6667 9.76806   6
   0   4   5 92.5138 10.8574   2
   0   4  -5 80.6772 10.2906   3
   0   4   5 78.5478 8.51493   1
   0   4  -5 87.4201 10.5017   2
   1  -4   5 22.4255 4.50127   1
  -1  -4  -5 26.2827 5.20318   1
  -1  -4  -5 35.6063 6.80117   4
  -1  -4  -5 40.4889 6.87249   3
  -1  -4  -5 25.2597 4.91305   1
  -1  -4  -5 37.3563 6.70485   2
  -1   4  -5 29.2424 6.06948   2
  -1   4  -5 17.9471 4.10100   1
   1   4   5 31.4489 5.12875   1
  -1   4  -5 23.6307 4.81876   1
  -1   4  -5 36.0236 5.69855   3
  -1   4  -5 34.5666 6.29279   7
  -2  -4  -5 27.0491 6.72151   3
  -2  -4  -5 17.5193 6.67805   4
  -2   4  -5 12.9606 4.20934   2
  -2   4  -5 20.7029 4.76556   3
  -2   4  -5 18.8224 5.73664   7
  -3  -4  -5 35.1517 3.60457   8
  -3  -4  -5 39.3473 7.00765   3
  -3  -4  -5 40.8669 8.26951   5
  -3  -4  -5 41.2083 4.41562   9
  -3  -4  -5 25.6461 7.80474   4
  -3  -4  -5 40.6397 7.42857   2
  -3  -4  -5 32.5209 5.40280  12
  -3   4  -5 35.6392 6.19352   3
  -3   4  -5 41.6699 8.42341   7
  -3   4  -5 39.1616 4.56770  10
  -3   4  -5 37.8279 4.77693  15
  -3   4  -5 36.1347 5.19113  18
  -3   4  -5 33.8645 3.87120   9
  -3   4  -5 39.4574 6.28592   2
  -4  -4  -5 2.24540 3.15520  11
  -4  -4  -5 -2.5677 4.39022   2
  -4  -4  -5 5.24952 2.36568  10
  -4  -4  -5 4.12575 3.46186  12
  -4  -4  -5 -1.0164 3.02845  18
  -4  -4  -5 -1.3659 7.51947   4
  -4  -4  -5 0.64321 3.90077   3
  -4  -4  -5 2.58624 1.64765   9
  -4   4  -5 6.96389 7.09554   7
  -4   4  -5 0.71952 1.46295  10
  -4   4  -5 3.70852 4.45060   2
  -4   4  -5 0.11072 2.77283  17
  -4   4  -5 6.11694 3.49029   3
  -4   4  -5 -0.6203 2.29656  15
  -4   4  -5 4.25037 2.70239  16
  -4   4  -5 1.02983 3.58678  18
  -4   4  -5 0.94807 1.31582   9
  -5  -4  -5 24.4070 11.9607   4
  -5  -4  -5 8.71813 4.22074  12
  -5  -4  -5 10.1540 4.19837  18
  -5  -4  -5 8.18957 2.79547  10
  -5   4  -5 8.35048 2.58500  16
  -5   4  -5 5.76629 1.76525  10
  -5   4  -5 4.39539 4.42895  18
  -5   4  -5 0.19456 3.39206  17
  -5   4  -5 7.93183 9.99301   7
  -6  -4  -5 2.76638 3.00765  18
  -6  -4  -5 1.11017 2.96552  12
  -6   4  -5 5.12915 4.70796  18
  -6   4  -5 5.05739 3.21693  16
  -6   4  -5 1.97454 3.49283  17
  -7  -4  -5 21.0191 3.69891  12
  -7   4  -5 16.2486 2.84860  16
  -7   4  -5 19.9348 4.05336  18
  -7   4  -5 20.0929 4.10580  17
  -7  -5   5 29.9341 4.25549  12
  -7  -5   5 39.4465 5.57145  13
  -7   5   5 25.4053 3.88856  16
  -6  -5   5 14.6194 3.22606  12
  -6  -5   5 15.3661 4.57596  13
  -6   5   5 11.6884 4.05763  16
  -5  -5   5 91.9041 10.9993  12
  -5  -5   5 91.4703 12.4117  13
  -5  -5   5 80.8548 10.7992  14
  -5  -5   5 92.7141 9.08913  10
  -5  -5   5 90.6680 10.4059  11
  -5   5   5 93.8962 10.8031  16
  -5   5   5 92.7450 8.63020  10
  -5   5   5 110.342 10.9664  14
  -5   5   5 85.5350 11.3078  17
  -4  -5   5 -0.0807 1.34206   9
  -4  -5   5 3.55671 3.62289  14
  -4  -5   5 -3.3798 8.25836   5
  -4  -5   5 -1.4532 4.39764   3
  -4  -5   5 3.69308 3.03023  12
  -4  -5   5 4.94578 2.33041  11
  -4  -5   5 2.30118 2.86454  13
  -4  -5   5 3.34269 5.09439   2
  -4  -5   5 0.31789 1.78749  10
  -4   5   5 0.04948 1.43985  10
  -4   5   5 -1.6268 6.98737   6
  -4   5   5 -2.5442 3.11268  14
  -4   5   5 1.89546 3.98502  17
  -4   5   5 -2.4043 2.74030  16
  -3  -5   5 60.8066 8.56842  13
  -3  -5   5 60.6008 7.66641  12
  -3  -5   5 46.4239 8.83309   2
  -3  -5   5 72.1743 9.81591   3
  -3  -5   5 61.6465 5.60475   8
  -3  -5   5 54.0322 11.3951   5
  -3  -5   5 68.6728 6.36962   9
  -3  -5   5 68.6156 7.13893  10
  -3  -5   5 56.4981 7.72455  11
  -3   5   5 61.7537 7.40452  16
  -3   5   5 65.1086 8.67913  17
  -3   5   5 51.2822 8.60651   3
  -3   5   5 74.5127 8.79348   2
  -3   5   5 62.0574 6.95332  15
  -3   5   5 67.3520 6.16206   9
  -3   5   5 53.6423 12.2232   7
  -3   5   5 50.8843 10.1082   6
  -3   5   5 68.5408 7.78826  14
  -2  -5   5 638.679 68.2362   5
  -2  -5   5 627.613 65.2528   3
  -2  -5   5 625.777 61.7354   2
  -2   5   5 694.545 61.5713   2
  -2   5   5 682.509 65.1345   3
  -2   5   5 650.119 67.9247   7
  -2   5   5 642.460 64.4776   6
  -1  -5   5 75.5332 11.2949   5
  -1  -5   5 72.0337 10.1741   3
  -1  -5   5 61.0625 9.62258   2
  -1   5   5 72.0638 10.2109   6
  -1   5   5 81.0815 10.6688   3
  -1   5   5 72.4210 9.84419   2
   0  -5   5 80.9915 11.8415   2
   0  -5   5 91.1489 12.2108   3
   0  -5  -5 59.9520 9.66035   1
   0  -5   5 102.762 11.8555   5
   0   5  -5 108.184 12.8845   3
   0   5  -5 98.5922 11.5799   7
   0   5   5 88.9796 11.6466   3
   0   5  -5 84.0152 11.6706   2
   0   5   5 100.057 12.0726   2
   0   5   5 78.4691 10.5047   6
  -1  -5  -5 136.427 15.8000   1
  -1  -5  -5 154.325 18.3101   3
  -1  -5  -5 143.679 17.9112   2
  -1  -5  -5 147.483 17.8772   4
  -1   5  -5 153.958 17.2024   2
  -1   5  -5 157.865 18.1028   7
  -1   5  -5 166.714 18.0553   3
  -2  -5  -5 155.506 17.6033   3
  -2  -5  -5 145.294 16.7533   2
  -2  -5  -5 142.925 17.7082   4
  -2   5  -5 129.557 17.5367   7
  -2   5  -5 137.243 16.2577   3
  -2   5  -5 142.718 15.8181   2
  -3  -5  -5 148.645 14.4251  12
  -3  -5  -5 142.498 19.1801   4
  -3  -5  -5 125.466 16.1605   3
  -3  -5  -5 143.646 11.0696   8
  -3  -5  -5 107.356 13.8915  11
  -3  -5  -5 133.831 16.3120   2
  -3  -5  -5 156.011 19.6594   5
  -3  -5  -5 116.285 12.6498  10
  -3  -5  -5 121.619 12.0904   9
  -3  -5  -5 105.792 13.7002  18
  -3   5  -5 130.061 13.5819  17
  -3   5  -5 123.994 13.3260  16
  -3   5  -5 135.732 12.3124  10
  -3   5  -5 130.420 10.7333   8
  -3   5  -5 132.378 11.8562   9
  -3   5  -5 129.669 17.4224   7
  -3   5  -5 142.305 14.9829   2
  -4  -5  -5 4.35018 6.74172   2
  -4  -5  -5 0.22649 8.61692   4
  -4  -5  -5 3.27822 2.59430  10
  -4  -5  -5 3.86740 1.79244   9
  -4  -5  -5 2.54719 3.95787  12
  -4  -5  -5 7.88604 3.57803  18
  -4  -5  -5 4.69101 5.26514   3
  -4   5  -5 4.06251 2.82540  16
  -4   5  -5 7.64621 8.37121   7
  -4   5  -5 4.39131 1.42518   9
  -4   5  -5 7.50880 3.19115  17
  -4   5  -5 6.42637 3.68538  18
  -4   5  -5 5.63623 4.15745   3
  -4   5  -5 3.99227 4.80884   2
  -4   5  -5 2.61428 1.75790  10
  -5  -5  -5 17.1927 5.32571  12
  -5  -5  -5 20.0886 3.42006  10
  -5  -5  -5 27.4743 4.27306  18
  -5   5  -5 17.2556 2.64977  10
  -5   5  -5 15.0136 3.31830  16
  -5   5  -5 18.4842 4.20935  17
  -5   5  -5 13.6053 5.01903  18
  -6  -5  -5 28.6600 5.15419  12
  -6   5  -5 25.2041 3.86942  16
  -6   5  -5 24.4696 5.27212  18
  -6   5  -5 22.0258 4.69896  17
  -7  -5  -5 13.9355 3.18588  12
  -7   5  -5 8.70720 2.30784  18
  -7   5  -5 11.0810 2.74332  17
  -7   5  -5 13.4693 2.25203  16
  -7  -6   5 0.56256 2.58632  12
  -7  -6   5 0.81914 3.21394  13
  -7   6   5 -2.3977 2.14479  16
  -6  -6   5 17.6649 6.44069  13
  -6  -6   5 24.7829 4.12101  12
  -6   6   5 33.1890 4.46397  16
  -5  -6   5 43.0034 7.96214  13
  -5  -6   5 49.3270 5.44750  10
  -5  -6   5 42.8985 6.00207  12
  -5   6   5 46.7842 4.60031  10
  -5   6   5 45.1362 6.39483  16
  -5   6   5 34.0153 6.41887  17
  -4  -6   5 21.7449 5.08095  14
  -4  -6   5 20.5681 2.95257   9
  -4  -6   5 28.6663 7.58750   2
  -4  -6   5 8.76313 11.9527   5
  -4  -6   5 17.5843 4.13317  12
  -4  -6   5 26.3164 5.76630  13
  -4  -6   5 17.0165 3.69212  10
  -4   6   5 22.7386 2.51449   9
  -4   6   5 24.5344 5.60559   2
  -4   6   5 16.5969 4.90221  17
  -4   6   5 20.9167 3.01721  10
  -4   6   5 30.2929 9.15010   6
  -4   6   5 17.6105 4.23457  16
  -4   6   5 23.2161 4.46777  14
  -3  -6   5 7.87953 8.17214   5
  -3  -6   5 -0.8095 4.34239   3
  -3  -6   5 0.79770 2.25897  10
  -3  -6   5 -2.8564 1.42717   8
  -3  -6   5 1.94882 1.79849   9
  -3  -6   5 1.96896 3.83733  13
  -3  -6   5 -5.0526 4.98051   2
  -3   6   5 7.57070 9.63111   7
  -3   6   5 2.18310 3.65698  17
  -3   6   5 -0.1366 4.73939   3
  -3   6   5 3.69098 5.10011   2
  -3   6   5 -0.4802 1.98544  15
  -3   6   5 -0.4253 2.81127  14
  -3   6   5 1.07302 1.65752   9
  -3   6   5 3.19846 2.52545  16
  -3   6   5 1.71204 1.89106  10
  -3   6   5 12.0900 6.88906   6
  -2  -6   5 11.8076 3.06329  10
  -2  -6   5 10.6598 2.11357   8
  -2  -6   5 11.3708 5.49236   2
  -2  -6   5 10.1467 7.02202   5
  -2  -6   5 8.53048 6.76480   3
  -2  -6   5 14.1125 2.86479   9
  -2   6   5 18.8186 9.28022   7
  -2   6   5 2.14934 5.14388   6
  -2   6   5 12.9491 1.97794   8
  -2   6   5 20.2611 5.90757   3
  -2   6   5 22.1182 5.55753   2
  -2   6   5 18.6346 3.08558  16
  -2   6   5 10.8864 2.33664   9
  -1  -6   5 32.1158 8.12336   5
  -1  -6   5 22.8515 7.12606   3
  -1  -6   5 35.1276 7.62678   2
  -1   6   5 44.7753 8.48179   3
  -1   6   5 27.4426 6.23132   6
  -1   6   5 31.2055 6.88358   2
   0  -6   5 109.027 15.1963   5
   0   6   5 137.190 16.0509   2
   0   6  -5 121.455 15.0296   7
   0   6   5 109.445 14.7247   3
  -1  -6  -5 9.90281 6.67655   2
  -1  -6  -5 1.90792 7.37896   3
  -1   6  -5 12.1955 5.68093   7
  -1   6  -5 11.2361 5.04624   2
  -1   6  -5 13.1216 5.57568   3
  -2  -6  -5 3.84263 2.44062   8
  -2  -6  -5 10.8371 7.03532   4
  -2  -6  -5 -14.126 6.82306   2
  -2  -6  -5 1.30817 7.72737   3
  -2  -6  -5 3.93228 2.64142   9
  -2   6  -5 -1.0183 5.68001   2
  -2   6  -5 4.70024 6.30487   7
  -2   6  -5 1.60810 2.15205   9
  -2   6  -5 0.54001 2.04437  10
  -2   6  -5 1.54196 2.33695  17
  -2   6  -5 1.85906 1.22641   8
  -3  -6  -5 2.31762 1.60142   8
  -3  -6  -5 2.67981 6.48638   3
  -3  -6  -5 -9.6140 7.54980   2
  -3  -6  -5 -18.668 11.4721   5
  -3  -6  -5 0.10688 3.61658  12
  -3  -6  -5 0.16478 2.85684  10
  -3  -6  -5 1.18845 2.34964   9
  -3  -6  -5 5.41393 7.73841   4
  -3   6  -5 2.15173 5.20084   3
  -3   6  -5 2.14097 7.56626   7
  -3   6  -5 0.98003 2.54243  17
  -3   6  -5 -1.4209 1.82011  10
  -3   6  -5 4.72987 6.11802   2
  -3   6  -5 1.16986 1.64661   9
  -3   6  -5 -1.6669 0.91768   8
  -4  -6  -5 12.4656 9.28486   2
  -4  -6  -5 14.5627 3.26249   9
  -4  -6  -5 20.6514 11.1962   4
  -4  -6  -5 21.4415 3.79739  10
  -4  -6  -5 20.3138 5.16899  12
  -4  -6  -5 18.6972 5.81411  13
  -4   6  -5 18.8448 2.34982   9
  -4   6  -5 18.8053 4.09345  17
  -4   6  -5 10.6814 5.65325   2
  -4   6  -5 15.6133 10.5998   7
  -4   6  -5 10.9941 2.60465  10
  -4   6  -5 13.7289 3.34956  16
  -4   6  -5 12.5262 4.18982  18
  -5  -6  -5 56.7419 6.65203  10
  -5  -6  -5 53.6389 8.19518  12
  -5   6  -5 49.5423 7.04973  16
  -5   6  -5 58.5009 5.89431  10
  -5   6  -5 46.9683 7.45250  18
  -5   6  -5 63.3978 7.87139  17
  -6  -6  -5 4.15685 4.85693  12
  -6  -6  -5 6.13422 1.28472  10
  -6   6  -5 7.57480 2.74218  16
  -6   6  -5 6.82408 2.68773  18
  -6   6  -5 7.76097 2.71861  17
  -7  -6  -5 -3.8688 1.79437  12
  -7   6  -5 -0.0704 1.80263  17
  -6  -7   5 133.001 15.0382  12
  -6  -7   5 130.771 16.2258  13
  -6   7   5 162.908 14.7236  16
  -5  -7   5 55.6343 9.36589  13
  -5  -7   5 65.7192 6.67996  10
  -5  -7   5 53.7742 7.87715  12
  -5   7   5 66.6416 6.13004  10
  -5   7   5 57.7716 7.32667  16
  -4  -7   5 407.400 35.3525  10
  -4  -7   5 404.466 41.2346  13
  -4  -7   5 404.400 34.1970   9
  -4  -7   5 331.456 38.8510  12
  -4  -7   5 342.815 37.9388  14
  -4   7   5 391.673 38.2297  16
  -4   7   5 384.375 38.7769  17
  -4   7   5 413.240 33.7508   9
  -4   7   5 384.867 35.0479  10
  -3  -7   5 1.04304 6.19893   3
  -3  -7   5 -2.5387 9.97821   5
  -3  -7   5 5.67106 2.01820   8
  -3  -7   5 5.54416 4.36542  13
  -3  -7   5 6.53019 2.90814  10
  -3  -7   5 3.40767 2.29189   9
  -3  -7   5 2.11696 6.85521   2
  -3   7   5 8.34135 1.91385   9
  -3   7   5 5.72969 11.3942   7
  -3   7   5 10.8781 6.86645   2
  -3   7   5 7.07291 7.01905   6
  -3   7   5 0.33482 6.47161   3
  -3   7   5 10.4100 3.95787  17
  -3   7   5 9.59685 2.40390  10
  -3   7   5 3.73465 2.76958  16
  -2  -7   5 334.248 32.4771  10
  -2  -7   5 368.692 31.5585   9
  -2  -7   5 369.764 40.6676   5
  -2  -7   5 367.137 29.2692   8
  -2   7   5 329.577 34.6652  16
  -2   7   5 346.450 36.8994   6
  -2   7   5 330.269 32.2197  10
  -2   7   5 364.917 37.7824   3
  -2   7   5 394.496 40.7663   7
  -2   7   5 342.285 31.2216   9
  -2   7   5 368.992 29.0480   8
  -1  -7   5 13.0295 7.63057   5
  -1  -7   5 14.8885 2.71195   8
  -1  -7   5 7.73828 6.72383   2
  -1  -7   5 7.33436 7.12402   3
  -1   7   5 9.15684 6.47507   2
  -1   7   5 12.4254 2.76211   9
  -1   7   5 9.28542 6.29221   3
  -1   7   5 11.8984 2.12392   8
   0  -7   5 189.030 22.4611   5
   0   7   5 165.508 15.4283   8
   0   7  -5 219.404 22.3592   7
  -1  -7  -5 9.36615 2.68712   8
  -1   7  -5 9.58158 2.08959   8
  -1   7  -5 2.85840 7.81161   2
  -1   7  -5 7.09093 6.67424   7
  -2  -7  -5 46.7251 12.2975   2
  -2  -7  -5 80.0427 15.2845   3
  -2  -7  -5 71.2360 8.70517   9
  -2  -7  -5 81.1313 7.66927   8
  -2   7  -5 86.2167 7.04022   8
  -2   7  -5 75.1927 8.24645  10
  -2   7  -5 65.5331 11.7355   2
  -2   7  -5 89.3398 14.1163   7
  -2   7  -5 51.7069 11.6241   3
  -2   7  -5 81.4158 8.99319  17
  -2   7  -5 80.6873 7.85110   9
  -3  -7  -5 11.0060 12.4965   4
  -3  -7  -5 21.0408 2.98314   8
  -3  -7  -5 13.1297 8.56119   3
  -3  -7  -5 30.3647 5.19459  12
  -3  -7  -5 29.3595 10.0484   2
  -3  -7  -5 24.5179 4.55060  10
  -3  -7  -5 13.1265 14.3262   5
  -3  -7  -5 22.6774 3.86198   9
  -3   7  -5 17.7501 7.00419   2
  -3   7  -5 20.0017 3.03987   9
  -3   7  -5 21.0634 4.07815  17
  -3   7  -5 20.8652 2.37553   8
  -3   7  -5 16.5638 10.2109   7
  -3   7  -5 19.2980 3.37160  10
  -3   7  -5 11.9004 6.04005   3
  -4  -7  -5 84.7142 8.89645   9
  -4  -7  -5 96.9334 11.6500  13
  -4   7  -5 88.5642 8.22705   9
  -4   7  -5 93.4761 8.96471  10
  -4   7  -5 79.7399 9.85373  17
  -4   7  -5 84.8151 10.3600  18
  -5  -7  -5 60.1114 7.91197  12
  -5   7  -5 56.9952 5.65394  10
  -5   7  -5 44.0097 6.18292  16
  -5   7  -5 58.0591 7.21030  17
  -5   7  -5 60.0424 7.21197  18
  -6  -7  -5 26.5223 4.65903  12
  -6   7  -5 16.5531 3.10362  16
  -6   7  -5 31.1292 3.84240  17
  -6  -8   5 25.0850 6.43612  13
  -6   8   5 32.0004 3.89698  16
  -5  -8   5 -1.2702 2.04739  10
  -5  -8   5 -1.3069 3.96629  13
  -5   8   5 1.06457 2.22700  17
  -5   8   5 3.32844 2.91002  16
  -5   8   5 0.54443 1.08345  10
  -4  -8   5 1.03284 5.28574  13
  -4  -8   5 2.75692 2.84687  10
  -4  -8   5 -4.2628 2.30617   9
  -4   8   5 0.27030 0.78236   9
  -4   8   5 2.91605 1.87610  10
  -4   8   5 6.23898 2.35953  16
  -4   8   5 5.02658 3.55398  17
  -3  -8   5 6.68996 2.05536   8
  -3  -8   5 3.84767 2.71041   9
  -3  -8   5 1.07351 3.43705  13
  -3  -8   5 2.12012 4.63177  14
  -3  -8   5 8.37734 3.28106  10
  -3   8   5 5.72798 2.42459  10
  -3   8   5 9.11049 3.79583  17
  -3   8   5 8.27872 2.07937   9
  -3   8   5 3.97022 3.00585  16
  -2  -8   5 10.0808 9.84814   2
  -2  -8   5 6.95666 11.6411   5
  -2  -8   5 24.4024 5.26159  13
  -2  -8   5 21.3194 3.24975   8
  -2  -8   5 19.7832 3.77439   9
  -2   8   5 20.5217 2.51361   8
  -2   8   5 19.2230 10.0625   2
  -2   8   5 30.2188 11.2722   7
  -2   8   5 23.6118 3.81827  16
  -2   8   5 26.9324 3.54434   9
  -2   8   5 14.6781 3.48472  10
  -1  -8   5 5.82685 9.91513   5
  -1  -8   5 4.75821 2.59054   8
  -1   8   5 5.04044 3.01398  16
  -1   8   5 5.41920 2.57753   9
  -1   8   5 4.96524 8.56692   2
  -1   8   5 2.86211 7.72289   3
  -1   8   5 8.17459 1.93390   8
   0  -8   5 3.14602 8.35772   5
   0   8  -5 3.55720 7.94063   7
   0   8   5 3.41288 1.50571   8
  -1  -8  -5 35.2488 4.55056   8
  -1   8  -5 28.1433 10.4469   7
  -1   8  -5 30.2062 3.70441   8
  -2  -8  -5 26.7184 4.51189   9
  -2  -8  -5 28.6948 15.2100   3
  -2  -8  -5 13.6451 12.2332   2
  -2  -8  -5 21.8903 3.65256   8
  -2  -8  -5 20.0571 4.95959  12
  -2   8  -5 12.2740 10.4747   7
  -2   8  -5 21.3411 3.12134   9
  -2   8  -5 10.1275 10.7910   2
  -2   8  -5 17.7340 2.60992   8
  -2   8  -5 23.3702 4.04713  17
  -3  -8  -5 3.74753 4.23536  12
  -3   8  -5 4.29186 2.54597  10
  -3   8  -5 9.06441 3.35859  18
  -3   8  -5 9.37229 3.49138  17
  -3   8  -5 7.40618 2.23857   9
  -4  -8  -5 9.34615 4.65685  12
  -4  -8  -5 0.65286 4.71228  13
  -4   8  -5 9.98755 1.75737   9
  -4   8  -5 -3.8771 3.49294  17
  -4   8  -5 9.52540 2.48550  10
  -4   8  -5 6.93831 2.77934  18
  -5  -8  -5 4.99269 2.91245  10
  -5  -8  -5 -2.4714 3.03970  12
  -5   8  -5 0.17822 2.22267  18
  -5   8  -5 2.85585 2.60457  17
  -5   8  -5 -0.0134 1.49609  10
  -6  -8  -5 13.4379 3.29239  12
  -6   8  -5 13.3295 2.56753  17
  -5  -9   5 4.34372 3.87941  13
  -5  -9   5 14.3579 2.65726  10
  -5   9   5 7.55529 2.77984  17
  -5   9   5 13.2147 1.53145  10
  -5   9   5 6.34139 1.98885  16
  -4  -9   5 40.4561 4.79044  10
  -4  -9   5 39.7215 6.30679  13
  -4  -9   5 37.1695 4.12147   9
  -4   9   5 23.9923 4.71959  17
  -4   9   5 21.4801 4.25780  16
  -3  -9   5 39.8378 6.21057  13
  -3  -9   5 30.0456 5.16910  10
  -3  -9   5 34.0065 4.65746   9
  -3   9   5 26.9440 4.96183  17
  -3   9   5 22.5563 4.37211  16
  -3   9   5 33.6375 3.74508   9
  -2  -9   5 12.3793 3.66305   9
  -2  -9   5 13.6546 3.51530   8
  -2  -9   5 19.3019 5.32703  13
  -2   9   5 14.2709 2.24569   8
  -2   9   5 15.9555 3.44415  10
  -2   9   5 19.2402 3.11132  16
  -2   9   5 14.1177 3.00674   9
  -1  -9   5 6.37058 2.82526   8
  -1  -9   5 -3.1852 12.9241   5
  -1   9   5 3.60225 2.75965   9
  -1   9   5 3.68624 1.90029   8
   0  -9   5 7.77864 12.7329   5
   0   9  -5 26.1136 3.79365   8
   0   9  -5 30.9533 12.6929   7
  -1  -9  -5 3.49816 3.35168   8
  -1   9  -5 8.54861 11.5909   7
  -1   9  -5 10.8111 2.46320   8
  -2  -9  -5 13.4574 4.10329  12
  -2  -9  -5 15.6356 3.28189   8
  -2   9  -5 11.4200 2.98962   9
  -2   9  -5 6.24868 2.18496   8
  -2   9  -5 6.05566 3.35175  17
  -3  -9  -5 8.03460 4.38841  10
  -3  -9  -5 14.7476 2.97705   9
  -3  -9  -5 7.97971 4.17170  12
  -3   9  -5 8.16098 2.42371   9
  -3   9  -5 12.2177 2.44734  10
  -3   9  -5 10.5908 3.32627  18
  -3   9  -5 6.73819 3.58660  17
  -4  -9  -5 9.18674 4.54595  13
  -4  -9  -5 5.51178 3.59266  10
  -4  -9  -5 4.72205 4.17699  12
  -4   9  -5 7.74641 2.87026  17
  -4   9  -5 10.6946 2.45905  10
  -4   9  -5 8.86138 1.46613   9
  -5  -9  -5 27.8051 3.90138  10
  -5  -9  -5 23.8035 4.21504  12
  -5   9  -5 24.5132 3.90570  17
  -5   9  -5 27.9487 2.99997  10
  -4 -10   5 3.52707 2.18388  10
  -4 -10   5 3.82824 1.44150   9
  -4 -10   5 -2.1096 3.11316  13
  -4  10   5 7.36747 2.79339  17
  -4  10   5 4.01875 1.57899  16
  -3 -10   5 -1.6731 4.92323  13
  -3 -10   5 12.6178 2.55019   9
  -3 -10   5 7.60189 3.76976  10
  -3  10   5 4.06542 2.32332  10
  -3  10   5 3.60096 1.88554  16
  -3  10   5 8.29716 3.31608  17
  -2 -10   5 10.8529 4.84985  13
  -2 -10   5 3.88372 2.45977   9
  -2 -10   5 3.72419 2.38166   8
  -2  10   5 5.89892 1.33787   8
  -1 -10   5 32.8014 4.58466   8
  -1  10   5 30.0377 3.55096   8
   0 -10   5 35.3275 4.48606   8
   0  10  -5 26.6557 4.02678   8
  -1  10  -5 9.24804 2.52678  17
  -1  10  -5 3.11527 2.10654   8
  -2 -10  -5 27.9214 4.61805   9
  -2  10  -5 23.6740 2.52810   8
  -2  10  -5 9.47908 2.95994   9
  -2  10  -5 20.7973 4.08182  17
  -3 -10  -5 20.7369 5.52541  13
  -3 -10  -5 21.9101 4.16885  10
  -3  10  -5 21.9248 4.23487  17
  -3  10  -5 16.5431 3.11161  10
  -3  10  -5 26.5465 3.08422   9
  -4 -10  -5 17.0323 4.07767  12
  -4 -10  -5 13.2265 4.62655  13
  -4 -10  -5 15.8596 3.90644  10
  -4  10  -5 27.9892 3.02795  10
  -4  10  -5 26.9944 3.66044  17
  -4 -11   5 4.73894 2.09697  10
  -4  11   5 10.4324 1.60146  10
  -3 -11   5 2.27539 3.54378  10
  -3 -11   5 2.63839 2.99428  13
  -3 -11   5 4.12723 2.54505   9
  -3  11   5 2.19763 1.27439   9
  -3  11   5 4.25144 2.11277  17
  -2 -11   5 14.0953 3.79667   9
  -2 -11   5 17.8455 2.61667   8
  -2 -11   5 4.62125 3.45155  13
  -2  11   5 20.3033 3.24613  17
  -1 -11   5 0.46071 2.90372  13
  -1 -11   5 1.73834 2.77695   8
  -1  11   5 0.87213 1.51379   8
   0 -11   5 72.6928 7.37695   8
   0  11  -5 58.6185 6.53254   8
   0  11  -5 67.1727 7.89488  17
  -1 -11  -5 -0.0470 2.94609   8
  -1  11  -5 -0.6423 2.92173  17
  -1  11  -5 4.16468 1.81661   9
  -1  11  -5 0.12471 1.61214   8
  -2 -11  -5 3.96265 2.02071   8
  -2  11  -5 10.5019 2.56024  17
  -2  11  -5 5.97861 1.98779   9
  -3 -11  -5 7.55498 3.16820  13
  -3  11  -5 8.06963 2.30170  17
  -3  11  -5 7.56120 1.92593  10
  -4  11  -5 2.03362 1.45425  10
  -2 -12   5 0.88500 3.40579  13
  -2 -12   5 5.91068 2.78412   9
  -2  12   5 5.92577 1.91790  17
  -2  12   5 2.26098 1.58135   9
  -1 -12   5 24.2350 2.62957   8
  -1  12   5 17.7434 1.86038   8
   1  12  -5 14.5678 2.76327   8
  -1  12   5 24.7663 3.90346  17
   0 -12   5 13.6927 3.08917   8
   0  12   5 5.27549 1.73243   8
   1 -12   5 8.76306 4.12587   8
  -1 -12  -5 19.0425 2.74614   8
  -1  12  -5 15.8139 1.90188   8
  -1  12  -5 18.6074 2.71150   9
  -2 -12  -5 20.4668 3.98624  13
  -2  12  -5 23.0716 2.64472   9
  -7   0   6 46.1586 5.61675  14
  -7   0   6 41.3210 7.20213  13
  -6   0   6 -2.7808 3.18621  12
  -6   0   6 -0.1212 4.92149  13
  -6   0   6 4.41182 2.72325  15
  -6   0   6 0.68350 3.50288  14
  -5   0   6 45.8901 5.90641  12
  -5   0   6 44.9162 7.06378  13
  -5   0   6 40.3191 5.41611  11
  -5   0   6 14.3528 10.4043   5
  -5   0   6 36.4228 5.73639  14
  -4   0   6 51.8756 6.91831  14
  -4   0   6 47.6817 6.27105  15
  -4   0   6 49.6527 9.67627   6
  -4   0   6 48.5520 11.0103   5
  -4   0   6 60.8752 6.88123  12
  -4   0   6 54.0680 6.47123  11
  -4   0   6 62.6574 8.12692  13
  -4   0   6 51.0903 5.26179  10
  -3   0   6 275.113 25.4282   3
  -3   0   6 267.912 24.1334   2
  -3   0   6 229.365 23.9855   2
  -3   0   6 237.777 25.4385   3
  -3   0   6 271.632 26.6931   6
  -3   0   6 252.342 28.7343   5
   2   0  -6 100.654 9.40235   1
  -2   0   6 83.5414 11.2880   3
  -2   0   6 85.6546 10.7770   2
  -2   0   6 113.519 11.4800   3
  -2   0   6 125.318 13.4520   5
   2   0  -6 114.886 9.27572   1
  -2   0   6 118.536 12.2264   6
  -2   0   6 109.421 11.0893   2
  -2   0   6 95.9404 9.40336   1
  -2   0   6 92.3173 9.11805   1
  -1   0   6 322.134 29.2856   3
  -1   0   6 231.378 28.7971   3
   1   0  -6 315.029 23.4106   1
   1   0  -6 297.407 23.4186   1
  -1   0   6 270.534 23.3201   1
  -1   0   6 310.964 27.6523   2
  -1   0   6 290.251 23.4598   1
  -1   0   6 314.203 30.5856   5
   1   0  -6 230.325 27.2597   2
   1   0  -6 292.023 29.0558   3
   0   0  -6 355.223 27.9346   1
   0   0   6 372.701 28.1963   1
   0   0  -6 369.486 27.9991   1
   0   0   6 338.972 28.0589   1
   0   0   6 336.764 34.8850   3
   0   0  -6 334.228 32.8167   2
   0   0   6 341.634 33.0191   2
   0   0  -6 337.014 34.6244   3
   0   0   6 324.948 35.4824   5
  -1   0  -6 320.715 25.7881   1
   1   0   6 291.427 32.0275   3
  -1   0  -6 319.653 25.7163   1
  -1   0  -6 336.119 32.8789   7
   1   0   6 306.017 26.0068   1
  -1   0  -6 330.890 31.8416   3
   1   0   6 282.262 30.5294   2
  -1   0  -6 350.648 30.5375   2
   1   0   6 294.890 25.9627   1
   2   0   6 111.060 12.3021   1
  -2   0  -6 146.931 14.9484   3
  -2   0  -6 137.513 12.4794   1
  -2   0  -6 148.192 14.8755   2
  -2   0  -6 149.037 16.2060   7
   2   0   6 131.172 12.5831   1
  -2   0  -6 128.943 12.0484   1
  -2   0  -6 162.235 16.8240   4
  -3   0  -6 146.258 18.0884   4
  -3   0  -6 145.369 18.1954   7
  -3   0  -6 141.463 15.2184   2
  -3   0  -6 149.693 15.5161   3
  -4   0  -6 128.948 12.7869  10
  -4   0  -6 142.155 14.6596  11
  -4   0  -6 133.165 14.5071  18
  -4   0  -6 142.708 14.4238  17
  -4   0  -6 130.048 12.1695   9
  -4   0  -6 143.126 14.1648   3
  -4   0  -6 146.339 14.3196  16
  -4   0  -6 153.818 18.8205   4
  -4   0  -6 131.497 17.8298   7
  -5   0  -6 18.0280 2.73781  10
  -5   0  -6 21.4948 9.09059   7
  -5   0  -6 24.4900 4.25345  17
  -5   0  -6 10.1744 9.91375   4
  -5   0  -6 12.9603 4.46791  18
  -5   0  -6 22.5064 3.93606  16
  -6   0  -6 14.2109 4.13756  17
  -6   0  -6 11.2609 4.86171  18
  -7   0  -6 19.7271 4.03805  18
  -7   0  -6 19.6061 3.70184  17
  -7  -1   6 -0.6476 2.94253  12
  -7  -1   6 4.46836 2.99003  14
  -7  -1   6 0.06655 3.39764  13
  -7   1   6 6.18339 4.71222  13
  -7   1   6 -0.5109 3.08371  14
  -6  -1   6 2.61399 3.19136  11
  -6  -1   6 9.35456 5.04261  13
  -6  -1   6 4.04476 3.58870  14
  -6  -1   6 -0.4394 2.29292  15
  -6  -1   6 9.24804 3.57742  12
  -6   1   6 6.18847 2.78305  14
  -6   1   6 0.98465 2.71541  15
  -6   1   6 7.58135 3.53137  12
  -6   1   6 3.45199 3.40658  16
  -6   1   6 6.68231 5.10253  13
  -5  -1   6 25.7487 4.07539  15
  -5  -1   6 26.3172 10.6174   5
  -5  -1   6 32.3789 5.06498  14
  -5  -1   6 29.2276 5.95057  13
  -5  -1   6 29.1141 4.73278  12
  -5  -1   6 25.9393 4.44203  11
  -5   1   6 34.4433 5.04584  14
  -5   1   6 19.8105 4.47716  16
  -5   1   6 33.1496 4.44748  12
  -5   1   6 27.1643 4.20926  11
  -5   1   6 4.22034 7.47126   6
  -5   1   6 26.1811 4.27068  15
  -5   1   6 29.1484 6.19666  13
  -4  -1   6 43.8848 8.49606   6
  -4  -1   6 37.6826 4.43788  10
  -4  -1   6 41.2071 5.64506  11
  -4  -1   6 55.2230 5.97140  12
  -4  -1   6 26.6818 10.8573   5
  -4  -1   6 43.5438 5.18759  15
  -4  -1   6 50.1057 6.68688  13
  -4  -1   6 50.3897 5.88095  14
  -4   1   6 43.2311 5.25581  15
  -4   1   6 31.3851 7.82101   6
  -4   1   6 20.1390 8.81428   5
  -4   1   6 45.2063 5.73470  12
  -4   1   6 56.3885 6.85765  13
  -4   1   6 37.4928 4.33294  10
  -4   1   6 40.4373 5.49634  16
  -4   1   6 40.6955 5.65375  14
  -3  -1   6 92.6160 11.4168   6
  -3  -1   6 92.3083 9.25944   3
  -3  -1   6 74.1958 9.41723   3
  -3  -1   6 87.0572 13.1555   5
  -3  -1   6 65.7203 8.71624   2
  -3  -1   6 101.107 9.22829   2
  -3   1   6 93.0954 9.38471   3
  -3   1   6 98.7065 8.86911   2
  -3   1   6 70.0306 8.81131   2
  -3   1   6 84.4023 13.0747   5
  -3   1   6 76.3377 9.14322   3
  -3   1   6 84.3596 10.9274   6
  -2  -1   6 57.6378 7.90593   2
  -2  -1   6 65.3972 7.32280   1
  -2  -1   6 65.7530 8.67902   3
   2  -1  -6 71.0134 7.14361   1
  -2  -1   6 89.6719 10.7107   5
  -2  -1   6 65.2206 6.68090   1
  -2  -1   6 72.8687 8.77182   6
  -2  -1   6 87.0503 8.73653   2
   2  -1  -6 80.2460 7.12390   1
  -2  -1   6 80.2560 8.41748   3
  -2   1   6 60.7209 6.76932   1
  -2   1   6 79.1597 8.23749   2
   2   1  -6 60.3462 6.68554   1
  -2   1   6 51.4005 8.20024   3
  -2   1   6 67.8315 8.80963   6
  -2   1   6 59.2925 8.24990   2
  -2   1   6 63.8257 6.95232   1
   2   1  -6 53.8889 6.89013   1
  -2   1   6 89.9511 9.04114   3
  -2   1   6 93.9278 10.8885   5
  -1  -1   6 -0.1627 3.33994   2
  -1  -1   6 0.33414 2.78017   1
   1  -1  -6 0.30049 2.43623   1
  -1  -1   6 0.62242 2.31582   1
  -1  -1   6 2.22972 3.09259   3
   1  -1  -6 0.98432 3.53422   3
   1  -1  -6 3.90033 2.92419   1
  -1  -1   6 -0.1194 4.03906   5
   1  -1  -6 -0.9162 2.99584   2
  -1   1   6 2.18277 3.00032   6
   1   1  -6 1.86875 3.36338   2
  -1   1   6 1.39013 2.79831   2
   1   1  -6 2.01003 2.51425   1
  -1   1   6 1.43037 4.63726   5
  -1   1   6 -3.9245 1.97430   1
   1   1  -6 1.63609 2.48709   1
  -1   1   6 0.61812 3.58932   3
  -1   1   6 -0.5747 2.56014   1
   1   1  -6 -1.0723 2.76115   3
  -1   1   6 3.94920 2.98328   3
   0  -1  -6 19.6810 4.07009   1
   0  -1   6 8.70154 3.56009   1
   0  -1   6 17.9731 3.84116   5
   0  -1   6 11.6322 3.32036   1
   0  -1   6 14.2636 3.90808   3
   0  -1  -6 10.6875 4.72158   2
   0  -1  -6 18.0232 4.27005   3
   0  -1  -6 17.0302 3.46415   1
   0  -1   6 7.14357 3.81087   2
   0   1   6 18.1161 3.60085   1
   0   1   6 18.4469 4.97153   2
   0   1   6 17.1123 3.90436   1
   0   1  -6 10.9906 3.61865   2
   0   1  -6 13.4460 2.90456   7
   0   1   6 21.6318 4.40217   3
   0   1  -6 15.4781 3.73683   3
   0   1  -6 17.0536 3.60384   1
   0   1  -6 16.9190 3.23764   1
  -1  -1  -6 0.28627 2.36536   1
  -1  -1  -6 4.11293 3.70828   2
   1  -1   6 4.52144 2.69895   1
   1  -1   6 5.74400 2.82724   1
  -1  -1  -6 2.40165 2.81889   1
   1  -1   6 4.60700 3.44872   2
  -1  -1  -6 4.79363 3.19886   3
   1  -1   6 3.15840 2.95938   3
   1   1   6 5.32481 3.49257   2
  -1   1  -6 4.20430 2.96235   7
  -1   1  -6 6.39310 3.15150   2
   1   1   6 4.89316 2.91179   1
   1   1   6 -3.6189 3.07446   3
  -1   1  -6 5.60738 2.86141   3
  -1   1  -6 3.84941 2.14459   1
   1   1   6 2.54600 2.62565   1
  -1   1  -6 4.90584 2.42816   1
  -2  -1  -6 231.368 21.7215   3
  -2  -1  -6 211.905 20.7585   2
  -2  -1  -6 240.596 23.0272   7
  -2  -1  -6 218.602 23.3298   4
  -2  -1  -6 189.419 17.5023   1
  -2  -1  -6 183.794 17.3514   1
   2  -1   6 180.467 17.5001   1
   2  -1   6 174.158 17.6151   1
  -2   1  -6 193.455 17.3677   1
  -2   1  -6 196.823 17.2164   1
  -2   1  -6 221.150 20.4828   2
  -2   1  -6 231.091 22.9022   7
   2   1   6 191.623 17.7326   1
   2   1   6 209.146 17.8400   1
  -2   1  -6 231.948 21.5945   3
  -3  -1  -6 99.5365 11.6583   2
  -3  -1  -6 100.608 14.1971   7
  -3  -1  -6 99.9011 14.4574   4
  -3  -1  -6 100.950 11.4795   3
  -3   1  -6 96.0013 11.6907   2
  -3   1  -6 106.080 11.5859   3
  -3   1  -6 101.249 13.5060   7
  -3   1  -6 114.794 14.7162   4
  -4  -1  -6 50.7740 6.23390  18
  -4  -1  -6 53.5713 6.55865  11
  -4  -1  -6 46.9064 5.21813  10
  -4  -1  -6 48.0740 9.85139   7
  -4  -1  -6 48.6513 6.41176  17
  -4  -1  -6 53.0994 12.1737   4
  -4  -1  -6 42.4973 6.07174   3
  -4  -1  -6 52.2157 6.01928  16
  -4  -1  -6 45.3253 6.02751  12
  -4   1  -6 51.0106 9.82106   7
  -4   1  -6 47.7152 5.93819  17
  -4   1  -6 47.1835 10.9326   4
  -4   1  -6 43.3301 6.29331  18
  -4   1  -6 45.1795 4.89546  10
  -4   1  -6 54.0774 6.24842  16
  -4   1  -6 47.7144 6.31957   2
  -4   1  -6 40.7625 5.73770   3
  -4   1  -6 48.9435 6.10568  11
  -4   1  -6 42.4938 4.53606   9
  -5  -1  -6 9.04316 3.49317  17
  -5  -1  -6 2.96948 3.74804  18
  -5  -1  -6 3.60878 12.6910   4
  -5  -1  -6 8.05455 2.07172  10
  -5  -1  -6 13.6096 3.41006  12
  -5   1  -6 12.7209 2.30901  10
  -5   1  -6 5.71187 4.25321  18
  -5   1  -6 5.61582 3.18631  16
  -5   1  -6 5.53191 3.29606  11
  -5   1  -6 4.37454 3.42024  17
  -5   1  -6 7.25737 8.54437   7
  -6  -1  -6 14.8555 3.55202  12
  -6  -1  -6 11.8892 3.76756  18
  -6  -1  -6 14.1846 4.31398  17
  -6   1  -6 10.6879 3.17549  17
  -6   1  -6 10.7113 4.98803  18
  -6   1  -6 13.1092 3.61564  16
  -7  -1  -6 2.06065 2.87130  18
  -7   1  -6 -1.5299 2.53997  18
  -7   1  -6 0.63076 2.50182  17
  -7  -2   6 17.2652 3.83906  14
  -7  -2   6 22.9836 4.68156  13
  -7  -2   6 19.6901 3.61985  12
  -7   2   6 24.9690 3.61527  14
  -6  -2   6 0.67363 3.23473  12
  -6  -2   6 0.09739 2.63508  14
  -6  -2   6 0.12102 3.50336  11
  -6  -2   6 -0.3235 4.90645  13
  -6   2   6 1.98560 3.65605  13
  -6   2   6 -4.8901 3.34840  16
  -6   2   6 -1.4578 3.40613  14
  -5  -2   6 108.426 11.7258  11
  -5  -2   6 114.544 11.9306  14
  -5  -2   6 106.950 13.2392  13
  -5  -2   6 92.9131 9.55327  10
  -5  -2   6 71.1943 16.8997   5
  -5  -2   6 113.664 11.9356  12
  -5   2   6 109.892 11.1210  15
  -5   2   6 116.962 16.3979   6
  -5   2   6 125.635 11.9726  14
  -5   2   6 119.010 13.3800  13
  -5   2   6 94.6130 11.8508  12
  -5   2   6 98.4788 11.6267  16
  -4  -2   6 143.179 14.1088  12
  -4  -2   6 133.691 12.2449  10
  -4  -2   6 115.300 18.6285   5
  -4  -2   6 126.201 13.8620  14
  -4  -2   6 128.979 13.7874  11
  -4  -2   6 138.635 15.1644  13
  -4   2   6 127.740 12.0704  10
  -4   2   6 129.799 15.2649  13
  -4   2   6 126.636 13.0895  15
  -4   2   6 130.297 14.0429  12
  -4   2   6 125.090 13.6325  16
  -4   2   6 165.117 17.5312   6
  -4   2   6 128.178 13.7439  14
  -3  -2   6 493.683 52.7401   5
  -3  -2   6 485.107 46.6038   2
  -3  -2   6 522.950 49.0598   3
  -3  -2   6 444.532 48.8102   6
  -3   2   6 490.265 49.1927   3
  -3   2   6 506.855 49.7688   6
  -3   2   6 521.476 46.1656   2
  -2  -2   6 278.804 26.1432   1
  -2  -2   6 319.091 32.0759   6
  -2  -2   6 319.018 30.9198   2
  -2  -2   6 334.265 34.5881   5
  -2  -2   6 356.277 32.4189   3
  -2   2   6 357.285 30.7024   2
  -2   2   6 313.674 25.9931   1
  -2   2   6 345.625 32.5926   6
  -2   2   6 307.217 26.1824   1
  -2   2   6 267.757 33.0686   7
  -2   2   6 335.622 32.5909   3
  -1  -2   6 171.474 14.9910   1
  -1  -2   6 192.889 18.4727   3
   1  -2  -6 176.172 15.3756   1
  -1  -2   6 177.023 19.4845   5
  -1  -2   6 181.145 17.7245   2
  -1  -2   6 172.916 14.8153   1
   1  -2  -6 157.538 15.2221   1
   1   2  -6 142.986 17.4019   2
  -1   2   6 199.769 18.8264   3
   1   2  -6 177.576 15.0642   1
  -1   2   6 174.056 15.0838   1
   1   2  -6 168.308 14.8796   1
  -1   2   6 172.211 15.0441   1
  -1   2   6 173.560 18.2425   6
   1   2  -6 155.669 18.2743   3
  -1   2   6 187.814 17.6962   2
   0  -2   6 1564.21 137.000   2
   0  -2  -6 1493.56 116.433   1
   0  -2   6 1476.99 145.033   3
   0  -2  -6 1489.69 137.097   2
   0  -2  -6 1434.33 116.327   1
   0  -2  -6 1483.21 145.182   3
   0  -2   6 1491.79 149.398   5
   0  -2   6 1467.50 116.208   1
   0  -2   6 1501.07 116.296   1
   0   2   6 1480.49 116.277   1
   0   2  -6 1493.13 116.147   1
   0   2  -6 1501.44 136.783   2
   0   2  -6 1496.43 116.141   1
   0   2   6 1516.17 145.119   3
   0   2  -6 1421.25 148.846   7
   0   2  -6 1430.11 144.861   3
   0   2   6 1529.48 136.941   2
   0   2   6 1476.33 116.284   1
  -1  -2  -6 156.161 14.4157   1
  -1  -2  -6 174.684 18.0115   3
  -1  -2  -6 178.244 18.7617   4
   1  -2   6 146.187 16.9178   2
  -1  -2  -6 171.127 17.7374   2
   1  -2   6 141.869 17.4860   3
   1  -2   6 156.544 14.6035   1
   1  -2   6 162.432 14.3331   1
  -1  -2  -6 178.023 14.9776   1
  -1   2  -6 165.832 18.2973   7
  -1   2  -6 180.830 16.8331   2
   1   2   6 141.640 17.1016   2
  -1   2  -6 160.453 14.0627   1
   1   2   6 155.318 17.7948   3
  -1   2  -6 169.798 17.4234   3
   1   2   6 174.433 14.6413   1
   1   2   6 169.821 14.7751   1
  -1   2  -6 169.267 14.3678   1
  -2  -2  -6 249.810 24.1835   3
  -2  -2  -6 237.546 23.0219   2
  -2  -2  -6 228.198 25.7340   4
  -2  -2  -6 199.471 19.4867   1
  -2   2  -6 233.363 22.5236   2
  -2   2  -6 238.589 23.6178   3
  -2   2  -6 202.667 19.0756   1
  -2   2  -6 230.389 24.9911   7
  -3  -2  -6 301.238 32.3331   4
  -3  -2  -6 298.335 29.3159   3
  -3  -2  -6 281.839 28.1384   2
  -3   2  -6 265.364 30.8793   4
  -3   2  -6 284.857 27.5911   2
  -3   2  -6 289.984 28.9693   3
  -3   2  -6 264.853 31.0767   7
  -4  -2  -6 103.343 16.3158   4
  -4  -2  -6 107.482 11.9540   3
  -4  -2  -6 108.000 11.7103  18
  -4  -2  -6 112.077 11.8469  12
  -4  -2  -6 110.911 12.1126   2
  -4  -2  -6 112.855 11.6734  17
  -4  -2  -6 102.425 9.63243   9
  -4  -2  -6 111.325 11.9727  11
  -4  -2  -6 113.259 10.3450  10
  -4   2  -6 110.481 12.0750  18
  -4   2  -6 93.2043 14.9674   7
  -4   2  -6 104.397 11.3973   3
  -4   2  -6 111.538 11.5491  17
  -4   2  -6 90.3316 9.57242   9
  -4   2  -6 107.667 11.7987   2
  -4   2  -6 82.7288 14.6959   4
  -4   2  -6 112.825 10.1222  10
  -4   2  -6 112.582 11.4206  16
  -4   2  -6 103.927 11.4577  11
  -5  -2  -6 44.3870 14.6644   4
  -5  -2  -6 65.6261 8.33074  18
  -5  -2  -6 71.5142 8.93423  12
  -5  -2  -6 66.0841 7.13502  10
  -5  -2  -6 70.2644 8.25825  17
  -5   2  -6 66.0837 8.62384  17
  -5   2  -6 63.8603 12.2342   7
  -5   2  -6 57.7971 8.32166  11
  -5   2  -6 86.0405 9.85766  18
  -5   2  -6 74.9167 7.02324  10
  -5   2  -6 77.9795 8.57122  16
  -6  -2  -6 2.44411 3.36646  12
  -6  -2  -6 5.59801 3.18478  18
  -6  -2  -6 8.50595 4.30796  17
  -6   2  -6 -1.3205 4.53554  18
  -6   2  -6 0.36975 2.25166  16
  -6   2  -6 1.35523 3.51691  17
  -7  -2  -6 9.28459 2.99463  18
  -7   2  -6 5.38954 3.14297  18
  -7   2  -6 13.2170 2.98299  17
  -7  -3   6 11.7115 3.46921  12
  -7  -3   6 8.63979 2.40940  14
  -7  -3   6 11.1142 5.20227  13
  -7   3   6 10.5132 3.57656  16
  -7   3   6 12.5940 3.42534  14
  -6  -3   6 8.02946 4.88764  13
  -6  -3   6 3.63725 2.74363  14
  -6  -3   6 6.77532 2.59637  12
  -6   3   6 6.37203 3.00187  16
  -6   3   6 4.36258 3.63112  14
  -5  -3   6 30.3259 4.27165  10
  -5  -3   6 42.9300 6.29247  14
  -5  -3   6 49.7491 5.78890  11
  -5  -3   6 42.5521 6.88402  13
  -5  -3   6 34.5242 13.0650   5
  -5  -3   6 38.3521 5.73515  12
  -5   3   6 38.4727 5.69729  14
  -5   3   6 43.0368 6.05189  16
  -5   3   6 28.6887 10.2351   6
  -5   3   6 37.2459 7.23399  13
  -4  -3   6 48.6492 5.74041  11
  -4  -3   6 47.9637 5.76420  12
  -4  -3   6 33.3947 3.61461   9
  -4  -3   6 34.3750 9.93341   5
  -4  -3   6 47.0997 5.90766  14
  -4  -3   6 40.5707 4.53407  10
  -4  -3   6 49.2552 6.67476  13
  -4   3   6 40.1509 4.27035  10
  -4   3   6 47.0059 9.44543   6
  -4   3   6 48.7992 5.58452  16
  -4   3   6 40.8743 5.15822  15
  -4   3   6 41.1493 6.85477  13
  -4   3   6 37.0857 5.46586  14
  -3  -3   6 310.682 31.5956   2
  -3  -3   6 309.488 36.2115   5
  -3  -3   6 337.637 33.1807   3
  -3   3   6 327.840 33.4384   3
  -3   3   6 323.223 33.8898   6
  -3   3   6 343.110 31.1253   2
  -2  -3   6 6.00990 5.57090   5
  -2  -3   6 2.58895 3.44340   2
  -2  -3   6 2.31297 3.56143   6
  -2  -3   6 1.79559 2.95038   3
  -2   3   6 5.55442 3.26085   2
  -2   3   6 2.75379 4.18705   7
  -2   3   6 3.17330 3.72387   6
  -2   3   6 4.85231 3.61416   3
  -1  -3   6 104.110 10.9814   2
   1  -3  -6 97.0406 9.65338   1
   1  -3  -6 86.3774 9.49078   1
  -1  -3   6 107.743 12.8145   5
  -1  -3   6 112.458 11.6907   3
  -1  -3   6 87.2862 9.15052   1
  -1  -3   6 88.5584 9.60208   1
  -1   3   6 113.679 11.7540   6
  -1   3   6 103.876 11.3283   3
   1   3  -6 87.4420 9.52220   1
   1   3  -6 91.8526 9.41787   1
  -1   3   6 92.3330 9.14002   1
  -1   3   6 105.007 10.9865   2
  -1   3   6 83.4293 8.95324   1
   1   3  -6 78.5989 10.3481   7
   0  -3  -6 32.5200 6.29027   3
   0  -3  -6 12.0201 4.31969   1
   0  -3  -6 8.45603 3.52296   1
   0  -3   6 6.60915 3.38272   1
   0  -3   6 13.1633 4.73462   2
   0  -3  -6 8.04077 4.74692   2
   0  -3   6 16.2738 4.00604   5
   0  -3  -6 12.8708 4.17499   4
   0  -3   6 16.5798 4.11938   3
   0  -3   6 18.3351 4.03729   1
   0   3   6 11.8612 3.81577   1
   0   3   6 19.9027 4.60826   2
   0   3  -6 15.1996 4.73116   2
   0   3  -6 14.1534 3.63813   1
   0   3  -6 11.5897 3.72358   1
   0   3  -6 14.3403 3.73784   7
   0   3  -6 12.5344 4.04529   3
   0   3   6 17.0544 4.24098   6
   0   3   6 12.4724 3.40422   1
   0   3   6 18.2039 5.09032   3
  -1  -3  -6 112.656 12.2296   3
   1  -3   6 84.9733 9.68242   1
   1  -3   6 85.3800 10.6356   5
  -1  -3  -6 102.393 12.3218   4
  -1  -3  -6 108.373 11.9891   2
  -1  -3  -6 96.2841 10.1067   1
   1  -3   6 86.0311 9.71775   1
  -1  -3  -6 101.384 9.87224   1
   1   3   6 100.668 10.0725   1
  -1   3  -6 91.0681 9.36471   1
  -1   3  -6 108.735 11.7210   7
   1   3   6 76.5325 9.34962   1
  -1   3  -6 76.0717 9.19043   1
  -1   3  -6 103.626 11.5279   3
  -1   3  -6 107.311 11.5267   2
   1   3   6 86.5115 11.5135   3
   1   3   6 80.5144 11.0961   2
  -2  -3  -6 5.11060 5.13899   2
  -2  -3  -6 2.80040 5.50584   4
  -2  -3  -6 1.07975 3.75703   3
  -2   3  -6 8.57574 4.43996   7
  -2   3  -6 1.38243 3.73717   2
  -2   3  -6 2.39003 2.93311   3
  -3  -3  -6 261.367 27.6504   3
  -3  -3  -6 272.432 30.5111   4
  -3   3  -6 266.344 27.1072   3
  -3   3  -6 254.210 25.9119   2
  -3   3  -6 239.882 28.4709   4
  -3   3  -6 295.199 30.0241   7
  -4  -3  -6 19.0395 8.57166   4
  -4  -3  -6 11.2862 2.07909   9
  -4  -3  -6 11.8017 3.63197  11
  -4  -3  -6 14.1714 3.35405  18
  -4  -3  -6 11.1430 3.09414  10
  -4  -3  -6 2.26875 3.96074   3
  -4  -3  -6 9.53524 3.72972  12
  -4  -3  -6 22.0618 3.86198  17
  -4  -3  -6 14.9873 5.04684   2
  -4   3  -6 12.9803 3.99250  18
  -4   3  -6 9.62516 3.12287  17
  -4   3  -6 13.7977 1.91508   9
  -4   3  -6 15.5554 7.35328   7
  -4   3  -6 10.4603 3.08859  16
  -4   3  -6 13.2156 2.30608  10
  -4   3  -6 4.49202 4.11039   2
  -5  -3  -6 1.00556 11.6663   4
  -5  -3  -6 7.86632 3.99102  12
  -5  -3  -6 11.0866 2.77984  10
  -5  -3  -6 12.0159 4.23225  18
  -5   3  -6 7.44753 3.42539  17
  -5   3  -6 9.63643 1.97594  10
  -5   3  -6 4.80990 3.14966  16
  -5   3  -6 -7.6734 9.00264   7
  -5   3  -6 12.7690 3.72106  18
  -6  -3  -6 17.4590 4.81414  18
  -6  -3  -6 18.5092 3.80206  12
  -6   3  -6 15.3721 5.27252  18
  -6   3  -6 14.2776 3.27701  16
  -6   3  -6 16.5628 4.05174  17
  -7  -3  -6 2.85747 2.43503  18
  -7  -3  -6 2.40176 2.65730  12
  -7   3  -6 10.3941 3.44594  17
  -7   3  -6 5.16249 2.94903  18
  -7  -4   6 8.59248 3.69554  13
  -7  -4   6 10.0454 2.74093  12
  -7   4   6 15.1125 3.47250  16
  -6  -4   6 -1.9761 3.08446  12
  -6  -4   6 0.96956 3.49016  14
  -6  -4   6 6.44513 3.83520  13
  -6   4   6 0.77491 2.68478  16
  -6   4   6 2.48377 3.55899  14
  -5  -4   6 16.3065 4.77828  14
  -5  -4   6 18.0805 5.41110  13
  -5  -4   6 17.9283 4.53370  11
  -5  -4   6 16.9273 4.06551  12
  -5  -4   6 14.1607 2.55148  10
  -5  -4   6 1.50149 8.44255   5
  -5   4   6 9.17097 4.01918  16
  -5   4   6 17.9260 2.01570  10
  -5   4   6 19.0464 10.1411   6
  -5   4   6 23.1037 4.26940  14
  -4  -4   6 8.89510 1.67378   9
  -4  -4   6 9.12500 3.79271  14
  -4  -4   6 10.3068 4.31005   3
  -4  -4   6 11.1813 3.04690  12
  -4  -4   6 7.72846 4.67482   2
  -4  -4   6 10.0052 3.28135  11
  -4  -4   6 3.16281 3.97308  13
  -4  -4   6 2.40772 7.95641   5
  -4  -4   6 11.3151 2.41867  10
  -4   4   6 11.1181 3.29839  14
  -4   4   6 14.0540 2.89838  15
  -4   4   6 14.3458 7.49518   6
  -4   4   6 11.4583 3.25888  16
  -3  -4   6 6.24378 3.67609  14
  -3  -4   6 20.3756 9.19599   5
  -3  -4   6 15.9746 4.77809   3
  -3  -4   6 19.3491 5.25476   2
  -3  -4   6 16.0888 4.08912  13
  -3  -4   6 21.7567 3.61545  11
  -3  -4   6 13.6175 2.39063   9
  -3  -4   6 17.0396 2.72795  10
  -3   4   6 18.0595 3.39541  14
  -3   4   6 18.4565 4.69685   2
  -3   4   6 16.9323 3.22029  16
  -3   4   6 16.3359 2.11210   9
  -3   4   6 22.9699 6.46767   6
  -3   4   6 20.8402 2.86002  10
  -3   4   6 16.0429 2.99085  15
  -3   4   6 17.5498 5.56049   3
  -2  -4   6 308.184 31.9270   3
  -2  -4   6 306.066 33.9017   5
  -2  -4   6 309.745 30.5306   2
  -2   4   6 297.628 31.8366   3
  -2   4   6 321.085 33.4440   7
  -2   4   6 312.921 32.0958   6
  -2   4   6 303.904 29.9222   2
  -1  -4   6 217.961 22.2120   3
  -1  -4   6 160.720 17.7703   1
  -1  -4   6 207.938 21.0992   2
  -1  -4   6 221.850 23.5817   5
  -1   4   6 219.126 22.1956   3
  -1   4   6 218.450 22.0512   6
  -1   4   6 182.408 17.9847   1
  -1   4   6 223.271 21.4683   2
   0  -4   6 7.69542 4.13899   2
   0  -4   6 10.7622 4.48766   5
   0  -4  -6 7.85496 5.33339   2
   0  -4  -6 6.88791 4.16166   1
   0  -4   6 8.42620 3.94840   3
   0  -4  -6 3.68180 4.63130   3
   0  -4  -6 12.1617 3.97484   4
   0  -4  -6 11.5010 4.10310   1
   0  -4   6 9.85180 3.47289   1
   0  -4   6 5.96856 3.06779   1
   0   4   6 15.0248 4.42375   3
   0   4   6 10.9242 3.53836   6
   0   4  -6 10.3902 3.48564   7
   0   4   6 8.26179 4.01665   2
   0   4   6 8.89452 3.39070   1
   0   4  -6 7.85552 4.04628   2
   0   4  -6 7.16520 3.87335   3
   0   4  -6 7.46922 3.26071   1
   0   4  -6 3.59591 2.99334   1
   0   4   6 4.19341 3.02397   1
   1  -4   6 84.5807 10.1933   1
  -1  -4  -6 109.703 13.5491   4
  -1  -4  -6 110.535 11.7194   1
   1  -4   6 89.3872 12.0308   5
  -1  -4  -6 124.409 13.9234   3
  -1  -4  -6 104.961 13.2765   2
   1   4   6 80.7602 10.3270   1
  -1   4  -6 128.004 13.2988   7
  -1   4  -6 121.535 12.8677   2
  -1   4  -6 97.6861 10.5349   1
  -1   4  -6 107.836 12.4672   3
  -2  -4  -6 610.707 62.6219   3
  -2  -4  -6 622.472 64.3100   4
  -2   4  -6 610.511 64.4791   7
  -2   4  -6 628.026 62.0654   3
  -2   4  -6 636.294 58.9282   2
  -3  -4  -6 -2.0807 5.13116   3
  -3  -4  -6 9.31223 2.55188   9
  -3  -4  -6 8.74471 7.53609   4
  -3  -4  -6 3.00195 1.47453   8
  -3  -4  -6 6.35222 2.62231  10
  -3  -4  -6 4.30134 2.75095  11
  -3  -4  -6 7.27279 5.56609   2
  -3   4  -6 2.63487 3.96142   3
  -3   4  -6 4.50727 2.88493  18
  -3   4  -6 3.64095 1.39819   9
  -3   4  -6 4.21035 2.48524  17
  -3   4  -6 3.20539 1.15477   8
  -3   4  -6 2.24679 5.57924   7
  -3   4  -6 2.37215 2.13373  10
  -3   4  -6 -0.1545 3.69244   2
  -4  -4  -6 11.7074 5.74516   3
  -4  -4  -6 27.3113 5.11719  12
  -4  -4  -6 16.3196 4.11040  18
  -4  -4  -6 14.7735 6.20250   2
  -4  -4  -6 21.7772 3.61049  10
  -4  -4  -6 21.8434 3.10283   9
  -4  -4  -6 20.8926 9.79423   4
  -4   4  -6 24.4546 3.16875  10
  -4   4  -6 21.4229 4.09653  17
  -4   4  -6 20.5322 8.31991   7
  -4   4  -6 14.0847 4.45192  18
  -4   4  -6 24.6820 3.92581  16
  -4   4  -6 22.3470 5.48181   2
  -4   4  -6 16.7015 4.57515   3
  -4   4  -6 23.8483 2.60210   9
  -5  -4  -6 69.7045 7.72574  12
  -5  -4  -6 46.1601 15.3336   4
  -5  -4  -6 34.5516 6.31658  18
  -5  -4  -6 54.6626 5.72993  10
  -5   4  -6 43.6344 5.74019  16
  -5   4  -6 37.6639 6.99685  18
  -5   4  -6 26.7018 12.2004   7
  -5   4  -6 40.8826 4.70690  10
  -5   4  -6 44.8839 5.82306  17
  -6  -4  -6 17.7565 4.63662  18
  -6  -4  -6 19.5247 4.86528  12
  -6   4  -6 18.6774 4.16313  17
  -6   4  -6 7.23724 4.87672  18
  -6   4  -6 15.8394 3.72694  16
  -7  -4  -6 44.2178 5.58812  12
  -7   4  -6 55.4418 6.07139  17
  -7   4  -6 36.1193 5.29409  18
  -7  -5   6 6.24565 3.24350  13
  -7  -5   6 1.22190 2.00695  12
  -7   5   6 2.39310 2.67248  16
  -6  -5   6 -0.9595 2.12009  12
  -6  -5   6 4.60509 3.74904  13
  -6   5   6 -1.5523 2.47094  14
  -6   5   6 4.08576 2.59984  16
  -5  -5   6 -3.5895 3.09046  12
  -5  -5   6 5.14507 4.85214  13
  -5  -5   6 0.02182 1.96844  10
  -5  -5   6 -2.6505 3.84038  14
  -5   5   6 -5.7881 3.35261  16
  -5   5   6 5.41986 3.66596  14
  -5   5   6 0.19692 1.20387  10
  -4  -5   6 7.90212 4.31701  14
  -4  -5   6 -0.5449 5.56507   3
  -4  -5   6 13.3890 3.44159  12
  -4  -5   6 -6.7596 8.64081   5
  -4  -5   6 5.35086 1.75945   9
  -4  -5   6 2.08231 6.00562   2
  -4  -5   6 11.1150 3.82705  11
  -4  -5   6 15.5209 2.61703  10
  -4  -5   6 10.4115 4.30341  13
  -4   5   6 14.2846 3.59902  16
  -4   5   6 14.4939 3.02392  14
  -4   5   6 9.23907 1.09556   9
  -4   5   6 17.1851 2.57749  10
  -4   5   6 7.07767 4.12450  17
  -4   5   6 10.5545 8.08369   6
  -3  -5   6 6.86130 7.08646   5
  -3  -5   6 7.85547 3.72976  13
  -3  -5   6 8.07109 2.10064   9
  -3  -5   6 13.4086 5.92701   2
  -3  -5   6 5.63826 2.58598  12
  -3  -5   6 10.8131 5.37515   3
  -3  -5   6 4.94821 1.47305   8
  -3  -5   6 11.2950 2.45364  10
  -3   5   6 6.59201 5.94373   6
  -3   5   6 8.83161 4.88708   3
  -3   5   6 16.2879 4.65971   2
  -3   5   6 8.32028 2.92657  15
  -3   5   6 8.89362 2.89743  16
  -3   5   6 8.96727 1.84414   9
  -3   5   6 4.35381 2.84920  14
  -3   5   6 5.42844 3.91519  17
  -3   5   6 11.9222 2.27721  10
  -2  -5   6 1.81324 4.28038   2
  -2  -5   6 2.90633 1.72392   8
  -2  -5   6 1.16343 5.45354   5
  -2  -5   6 3.66779 4.01004   3
  -2   5   6 1.18810 1.23054   8
  -2   5   6 0.55751 5.74829   7
  -2   5   6 0.49132 4.02012   2
  -2   5   6 -1.3528 5.20556   6
  -2   5   6 -1.8232 3.48392   3
  -1  -5   6 34.0028 8.01783   3
  -1  -5   6 44.4871 7.75029   2
  -1  -5   6 56.2172 9.20066   5
  -1   5   6 49.1244 8.24576   6
  -1   5   6 48.8251 7.99574   3
  -1   5   6 41.6042 8.03475   2
   0  -5   6 53.6315 9.44418   3
   0  -5   6 77.9576 10.5197   5
   0  -5   6 68.7196 10.5050   2
   0   5   6 57.2999 8.83696   6
   0   5  -6 57.8062 10.3577   2
   0   5   6 77.8221 10.4693   2
   0   5  -6 74.7476 9.58499   7
   0   5   6 71.5681 10.0864   3
   1  -5   6 83.7343 11.3819   5
  -1  -5  -6 89.2415 12.5864   3
  -1  -5  -6 73.7710 11.6869   4
  -1   5  -6 88.5394 11.6243   7
  -1   5  -6 65.3292 10.5433   2
  -1   5  -6 87.9217 11.4628   3
  -2  -5  -6 2.49917 5.19848   2
  -2  -5  -6 11.8745 7.03067   3
  -2  -5  -6 5.74751 2.21570   8
  -2  -5  -6 7.85083 6.69126   4
  -2   5  -6 9.79238 4.59440   3
  -2   5  -6 7.50874 5.82389   7
  -2   5  -6 6.05088 1.41793   8
  -2   5  -6 5.82160 4.43129   2
  -3  -5  -6 -2.6576 2.72320  10
  -3  -5  -6 -4.4302 6.34330   4
  -3  -5  -6 5.69372 6.74897   2
  -3  -5  -6 5.61808 2.78433  11
  -3  -5  -6 -1.9669 3.42725  12
  -3  -5  -6 1.28479 1.76504   8
  -3  -5  -6 -0.9318 2.13276   9
  -3  -5  -6 3.99485 6.95002   3
  -3   5  -6 -4.9364 4.56731   3
  -3   5  -6 0.43552 2.21024  16
  -3   5  -6 1.55907 1.02930   8
  -3   5  -6 0.79279 2.44869  17
  -3   5  -6 4.15588 1.99618  10
  -3   5  -6 -0.7716 1.32682   9
  -3   5  -6 2.60203 5.00937   2
  -3   5  -6 0.34180 7.56106   7
  -4  -5  -6 3.73402 3.18807  12
  -4  -5  -6 7.41901 2.52495   9
  -4  -5  -6 5.30331 11.8247   4
  -4  -5  -6 4.37820 3.44382  18
  -4  -5  -6 4.31890 3.48358  10
  -4  -5  -6 2.85713 6.91511   2
  -4  -5  -6 8.49637 5.76315   3
  -4   5  -6 7.73930 2.78228  16
  -4   5  -6 6.48625 4.11288   3
  -4   5  -6 4.82446 8.71739   7
  -4   5  -6 8.09960 1.65957   9
  -4   5  -6 2.61865 1.87496  10
  -4   5  -6 1.84895 3.10550  17
  -4   5  -6 3.17060 5.46161   2
  -4   5  -6 4.91329 3.75018  18
  -5  -5  -6 -0.4394 3.79804  18
  -5  -5  -6 -3.5506 3.06497  12
  -5  -5  -6 2.55275 2.66434  10
  -5   5  -6 3.74194 1.61561  10
  -5   5  -6 -0.8107 2.72210  16
  -5   5  -6 -0.3409 3.27758  17
  -5   5  -6 5.56942 4.36040  18
  -6  -5  -6 1.52259 1.18981  10
  -6  -5  -6 0.41818 4.30058  12
  -6   5  -6 4.41906 1.97169  16
  -6   5  -6 -2.1072 2.86567  18
  -6   5  -6 -1.4446 3.32167  17
  -7  -5  -6 18.8663 3.33418  12
  -7   5  -6 14.8640 3.22741  18
  -7   5  -6 15.3410 2.78856  17
  -7  -6   6 22.7977 4.28662  13
  -6  -6   6 30.1428 4.20697  12
  -6  -6   6 30.0806 6.43207  13
  -6   6   6 22.7908 4.63408  16
  -5  -6   6 46.9163 5.70450  10
  -5  -6   6 40.5179 6.72384  14
  -5  -6   6 55.3382 6.74579  12
  -5  -6   6 44.4683 8.25851  13
  -5   6   6 49.6907 6.33920  16
  -5   6   6 46.9926 4.84574  10
  -4  -6   6 31.6416 4.27941  10
  -4  -6   6 28.5344 3.61727   9
  -4  -6   6 28.7736 5.05370  12
  -4  -6   6 29.1556 5.97363  14
  -4  -6   6 32.8577 6.29694  13
  -4  -6   6 21.6391 12.5451   5
  -4   6   6 36.9594 4.97167  16
  -4   6   6 40.5253 11.4525   6
  -4   6   6 33.1976 3.28074   9
  -4   6   6 21.7114 5.39199  17
  -4   6   6 33.1796 4.05969  10
  -4   6   6 35.0368 5.30732  14
  -3  -6   6 14.0649 7.64556   2
  -3  -6   6 8.39413 6.66999   3
  -3  -6   6 18.9792 4.57750  13
  -3  -6   6 21.2670 3.84486  10
  -3  -6   6 -0.2880 8.50667   5
  -3  -6   6 13.6967 2.22544   8
  -3  -6   6 14.9016 2.84854   9
  -3   6   6 19.2324 6.19469   2
  -3   6   6 17.6468 3.67842  16
  -3   6   6 5.12615 5.93323   3
  -3   6   6 15.4613 3.03184  15
  -3   6   6 10.6474 7.30802   6
  -3   6   6 19.5910 3.79597  14
  -3   6   6 15.1700 4.35969  17
  -3   6   6 22.0699 3.42809  10
  -3   6   6 18.2441 2.63354   9
  -2  -6   6 138.609 19.0705   5
  -2  -6   6 151.888 18.0744   2
  -2  -6   6 129.730 12.8819   9
  -2  -6   6 143.776 17.4651   3
  -2  -6   6 128.084 13.3934  10
  -2  -6   6 136.748 11.9811   8
  -2  -6   6 139.203 15.4199  13
  -2   6   6 155.906 20.3642   7
  -2   6   6 148.434 16.0175   2
  -2   6   6 144.161 17.7293   6
  -2   6   6 141.176 14.2261  16
  -2   6   6 137.427 11.5674   8
  -2   6   6 121.631 16.4003   3
  -2   6   6 136.936 12.6611   9
  -1  -6   6 130.163 11.2274   8
  -1  -6   6 125.840 16.5632   2
  -1  -6   6 138.053 17.4827   3
  -1  -6   6 147.071 18.1037   5
  -1   6   6 135.337 16.0236   3
  -1   6   6 113.924 10.9509   8
  -1   6   6 120.774 14.9251   6
  -1   6   6 139.734 16.3946   2
   0  -6   6 0.06963 4.82862   5
   0   6  -6 -0.7148 4.31727   7
  -1  -6  -6 72.4349 13.2669   2
  -1  -6  -6 72.8153 13.6595   3
  -1   6  -6 105.638 13.7963   7
  -1   6  -6 93.6614 8.27579   8
  -1   6  -6 101.432 13.0815   2
  -1   6  -6 93.7766 13.1818   3
  -2  -6  -6 274.268 21.8045   8
  -2  -6  -6 261.658 23.5804   9
  -2   6  -6 261.348 21.4779   8
  -2   6  -6 232.505 25.8172  17
  -2   6  -6 256.262 23.1770   9
  -2   6  -6 281.982 27.3697   2
  -2   6  -6 291.900 30.1978   7
  -2   6  -6 261.153 28.6457   3
  -2   6  -6 246.073 23.8883  10
  -3  -6  -6 3.27116 8.00699   4
  -3  -6  -6 1.71735 8.55659   3
  -3  -6  -6 2.29718 3.08526  10
  -3  -6  -6 5.08514 7.26411   2
  -3  -6  -6 7.12378 2.80101   9
  -3  -6  -6 4.46886 3.99385  12
  -3  -6  -6 4.56447 1.83106   8
  -3   6  -6 7.07344 2.28679  10
  -3   6  -6 10.7308 8.60692   7
  -3   6  -6 4.83427 6.40854   2
  -3   6  -6 4.93168 2.91192  17
  -3   6  -6 4.80857 1.29387   8
  -3   6  -6 8.27629 2.26938   9
  -4  -6  -6 28.2586 12.6174   4
  -4  -6  -6 57.8229 7.71907  12
  -4  -6  -6 68.0420 6.84909  10
  -4  -6  -6 56.8724 6.04944   9
  -4   6  -6 53.1031 5.78794  10
  -4   6  -6 52.4049 6.99155  18
  -4   6  -6 44.4727 6.53146  17
  -4   6  -6 11.5877 11.9847   7
  -4   6  -6 45.8403 5.14962   9
  -4   6  -6 46.6934 6.56855  16
  -5  -6  -6 33.4301 7.10319  12
  -5  -6  -6 43.4312 5.71478  10
  -5   6  -6 29.3496 5.14668  16
  -5   6  -6 36.3111 4.30240  10
  -5   6  -6 39.3601 5.20388  17
  -5   6  -6 38.8897 6.30124  18
  -6  -6  -6 16.2251 2.00218  10
  -6  -6  -6 11.0319 3.91290  12
  -6   6  -6 18.0874 3.22692  17
  -6   6  -6 12.0393 2.54437  16
  -6   6  -6 14.4815 4.10563  18
  -7  -6  -6 2.57525 1.85882  12
  -7   6  -6 2.39421 1.38936  17
  -6  -7   6 43.9645 6.25493  13
  -6  -7   6 34.1550 4.68299  12
  -6   7   6 36.6226 4.72982  16
  -5  -7   6 -0.7424 3.14173  12
  -5  -7   6 7.84838 5.62144  13
  -5  -7   6 5.33481 2.21322  10
  -5   7   6 3.12493 1.41162  10
  -5   7   6 3.11457 2.36485  16
  -4  -7   6 74.3856 9.41163  14
  -4  -7   6 66.5476 7.75934  10
  -4  -7   6 67.6530 7.27778   9
  -4  -7   6 77.6629 10.5409  13
  -4   7   6 71.8565 7.25218  10
  -4   7   6 71.3921 9.26219  17
  -4   7   6 70.5733 6.41969   9
  -4   7   6 61.8360 7.81194  15
  -4   7   6 77.2085 8.77360  16
  -3  -7   6 8.84602 8.98833   2
  -3  -7   6 -4.5888 3.98253  13
  -3  -7   6 1.21668 2.80560  10
  -3  -7   6 0.25410 1.80083   8
  -3  -7   6 2.51823 2.30891   9
  -3  -7   6 -7.7682 10.3274   5
  -3   7   6 4.39478 6.91417   2
  -3   7   6 3.81940 2.64008  10
  -3   7   6 2.42101 2.87052  16
  -3   7   6 1.47571 1.72256   9
  -3   7   6 3.24487 7.32208   6
  -3   7   6 3.06321 3.54137  17
  -2  -7   6 0.89316 3.06850  10
  -2  -7   6 15.4775 9.99596   5
  -2  -7   6 7.34195 8.83583   3
  -2  -7   6 11.8368 8.94557   2
  -2  -7   6 2.37531 3.50332  13
  -2  -7   6 7.16470 2.67245   9
  -2  -7   6 4.53804 2.45073   8
  -2   7   6 6.09177 11.4306   7
  -2   7   6 -1.2374 5.45291   3
  -2   7   6 4.15035 1.60998   8
  -2   7   6 -2.2310 6.01902   6
  -2   7   6 3.84366 2.61929  16
  -2   7   6 3.04945 2.37995  10
  -2   7   6 4.17245 1.98026   9
  -2   7   6 -6.6800 5.69265   2
  -1  -7   6 32.5343 10.5398   5
  -1  -7   6 46.8949 4.76571   8
  -1   7   6 32.8121 10.2601   2
  -1   7   6 35.9709 4.78084   9
  -1   7   6 38.9054 4.13218   8
  -1   7   6 35.6645 9.86820   3
   0  -7   6 11.7034 8.62550   5
   0   7   6 7.31869 2.13638   8
   0   7  -6 20.0201 7.08055   7
  -1  -7  -6 25.6413 3.82261   8
  -1   7  -6 16.8547 8.09447   7
  -1   7  -6 7.50828 7.47229   2
  -1   7  -6 23.4365 3.01339   8
  -2  -7  -6 4.17455 8.63801   2
  -2  -7  -6 -2.1764 2.18274   8
  -2  -7  -6 -2.1892 3.05807   9
  -2  -7  -6 3.35486 8.96241   3
  -2   7  -6 6.85690 7.14994   2
  -2   7  -6 3.72357 2.61246  17
  -2   7  -6 1.36046 2.12638   9
  -2   7  -6 2.38115 2.35985  10
  -2   7  -6 10.9705 8.67303   7
  -2   7  -6 1.84751 1.41587   8
  -3  -7  -6 -1.5462 4.15285  12
  -3  -7  -6 -5.1110 11.2497   2
  -3  -7  -6 0.95968 2.89242   9
  -3  -7  -6 0.15280 3.40542  10
  -3  -7  -6 3.17571 2.34887   8
  -3   7  -6 8.73155 10.4225   7
  -3   7  -6 2.00529 2.24905  10
  -3   7  -6 2.65258 1.92367   9
  -3   7  -6 7.56711 3.02762  17
  -3   7  -6 0.92890 1.02151   8
  -3   7  -6 -0.3882 6.90212   2
  -4  -7  -6 36.0249 7.39890  12
  -4  -7  -6 44.5010 5.56320   9
  -4  -7  -6 46.2752 7.25384  13
  -4   7  -6 47.8945 6.58423  17
  -4   7  -6 44.9454 6.65316  18
  -4   7  -6 52.4769 5.07683   9
  -4   7  -6 57.8489 5.87638  10
  -5  -7  -6 14.7174 4.34929  12
  -5   7  -6 13.4516 3.13160  16
  -5   7  -6 15.4707 3.39485  17
  -5   7  -6 15.8744 4.38849  18
  -5   7  -6 18.0881 2.56321  10
  -6  -7  -6 13.1667 4.55028  12
  -6   7  -6 9.12935 2.64028  17
  -6   7  -6 6.56403 2.06507  16
  -6   7  -6 7.31462 2.14243  18
  -6  -8   6 29.4532 5.01554  13
  -6   8   6 29.4021 3.65978  16
  -5  -8   6 14.1828 4.48592  13
  -5  -8   6 9.89964 2.70246  10
  -5   8   6 13.3753 1.92326  10
  -5   8   6 11.6631 2.61670  15
  -5   8   6 9.52915 2.79467  16
  -4  -8   6 186.899 17.5734  10
  -4  -8   6 182.275 16.7170   9
  -4  -8   6 195.006 21.0451  13
  -4   8   6 186.159 18.9363  16
  -4   8   6 177.059 17.1181  10
  -4   8   6 183.289 19.2510  17
  -3  -8   6 142.943 16.3824  13
  -3  -8   6 158.493 13.3186   9
  -3  -8   6 123.646 11.6998   8
  -3  -8   6 122.192 15.6835  14
  -3  -8   6 132.608 13.8884  10
  -3   8   6 139.005 13.3972  10
  -3   8   6 140.389 14.6323  16
  -3   8   6 148.230 15.0865  17
  -3   8   6 142.812 12.7603   9
  -2  -8   6 266.302 36.1927   2
  -2  -8   6 307.906 33.2558  13
  -2  -8   6 323.805 26.2530   8
  -2  -8   6 320.692 28.4101   9
  -2   8   6 300.945 31.0576  16
  -2   8   6 305.880 28.8160  10
  -2   8   6 321.567 25.8809   8
  -2   8   6 323.245 28.0182   9
  -1  -8   6 148.630 12.6602   8
  -1  -8   6 157.853 22.7271   5
  -1   8   6 141.601 13.4076   9
  -1   8   6 139.601 12.1850   8
  -1   8   6 131.525 14.5697  16
   0  -8   6 422.972 50.1024   5
   0   8   6 467.272 37.5884   8
  -1   8  -6 99.6524 16.4522   7
  -1   8  -6 98.5899 9.06170   8
  -2  -8  -6 173.492 13.9734   8
  -2  -8  -6 151.744 14.9291   9
  -2  -8  -6 159.734 17.2822  12
  -2   8  -6 150.505 16.3526  17
  -2   8  -6 149.245 14.5666   9
  -2   8  -6 165.138 13.3382   8
  -2   8  -6 105.080 20.1068   2
  -3  -8  -6 29.5627 6.80058  12
  -3  -8  -6 50.0731 5.08490   8
  -3  -8  -6 48.2439 6.59209  10
  -3  -8  -6 42.7671 5.91870   9
  -3   8  -6 39.5186 5.41802  10
  -3   8  -6 41.2523 6.04509  17
  -3   8  -6 56.1449 5.37475   9
  -3   8  -6 50.7270 6.15740  18
  -4  -8  -6 38.9471 7.91313  12
  -4  -8  -6 63.5108 8.48612  13
  -4   8  -6 60.8757 7.77103  17
  -4   8  -6 56.7156 6.29669  10
  -4   8  -6 53.8030 5.46058   9
  -4   8  -6 62.5790 7.53725  18
  -5  -8  -6 23.8184 3.75052  10
  -5  -8  -6 18.7236 4.40374  12
  -5   8  -6 19.3685 2.58576  10
  -5   8  -6 15.3690 3.66882  18
  -5   8  -6 18.2739 4.07045  17
  -6  -8  -6 4.95354 2.53711  12
  -6   8  -6 7.24517 2.05745  17
  -5  -9   6 5.96574 3.68488  13
  -5  -9   6 2.16974 2.01162  10
  -5   9   6 1.33641 2.04303  16
  -5   9   6 1.56189 0.86130  10
  -4  -9   6 6.14924 3.01072  10
  -4  -9   6 2.91500 4.98801  13
  -4  -9   6 0.47678 1.97553   9
  -4   9   6 4.00608 2.85982  17
  -4   9   6 4.07239 1.96815  16
  -4   9   6 6.00834 1.95172  10
  -3  -9   6 7.51913 4.58870  14
  -3  -9   6 5.25285 3.71053  10
  -3  -9   6 6.21059 4.97821  13
  -3  -9   6 10.6211 3.15179   9
  -3   9   6 7.99615 3.39346  17
  -3   9   6 6.20228 2.81715  16
  -3   9   6 2.93923 2.41218  10
  -3   9   6 11.2486 2.15167   9
  -2  -9   6 2.73537 2.37675   8
  -2  -9   6 -6.1181 4.17782  13
  -2  -9   6 0.21527 3.01897   9
  -2   9   6 -0.9207 1.50026   8
  -2   9   6 -1.7183 1.55152  16
  -2   9   6 -1.1457 2.39112  10
  -2   9   6 1.77622 2.26890   9
  -1  -9   6 22.9860 3.73485   8
  -1   9   6 24.0564 3.82703   9
  -1   9   6 18.5614 2.88088   8
  -1   9   6 17.6126 3.57835  16
   0  -9   6 -6.7713 3.05798   8
   0   9  -6 -1.9752 2.45932   8
   0   9   6 -4.9778 2.09246   8
  -1  -9  -6 16.5050 3.96384   8
  -1   9  -6 17.2487 2.97452   8
  -1   9  -6 18.4820 3.66969  17
  -2  -9  -6 -1.3976 2.71750   8
  -2  -9  -6 4.75304 3.69486   9
  -2  -9  -6 1.28701 3.59409  12
  -2   9  -6 2.08844 2.25737   9
  -2   9  -6 1.10542 2.92345  17
  -2   9  -6 -4.8869 1.65367   8
  -3  -9  -6 -0.3403 4.05892  12
  -3  -9  -6 -0.9363 1.48706   8
  -3  -9  -6 -2.6472 3.98248  10
  -3  -9  -6 1.14900 2.31592   9
  -3   9  -6 2.88668 3.13093  17
  -3   9  -6 0.39028 2.39400  10
  -3   9  -6 0.77163 1.95105   9
  -3   9  -6 2.97822 2.98446  18
  -4  -9  -6 4.52395 3.02935  13
  -4  -9  -6 -0.2576 4.18690  12
  -4  -9  -6 6.19598 3.53801  10
  -4   9  -6 7.74279 3.61986  17
  -4   9  -6 7.38872 1.33544   9
  -4   9  -6 9.64844 3.17487  18
  -4   9  -6 9.79485 2.48575  10
  -5  -9  -6 1.46148 2.55352  12
  -5  -9  -6 5.61865 2.42451  10
  -5   9  -6 6.18821 1.53209  10
  -5   9  -6 6.72317 3.14877  17
  -4 -10   6 13.7859 5.06074  13
  -4 -10   6 19.0478 3.59783  10
  -4  10   6 21.2158 2.40818  10
  -4  10   6 13.4655 2.73324  16
  -4  10   6 14.9535 3.14840  17
  -3 -10   6 31.3191 4.91134  10
  -3 -10   6 24.1321 5.92631  13
  -3 -10   6 30.4412 4.28088   9
  -3  10   6 18.6067 3.63901  10
  -3  10   6 31.4217 3.48673   9
  -3  10   6 36.2040 4.33457  17
  -2 -10   6 -3.0679 2.95446  13
  -2 -10   6 -0.2431 2.71501   8
  -2 -10   6 1.23723 2.40741   9
  -2  10   6 -0.6133 0.94557   8
  -2  10   6 -1.9252 1.95173  17
  -2  10   6 -2.5123 2.70287  10
  -2  10   6 0.54187 2.34328  16
  -1 -10   6 36.4314 6.30476  13
  -1 -10   6 31.7936 4.61578   8
  -1  10   6 30.0593 3.69693   8
  -1  10   6 34.7699 4.31077   9
   0 -10   6 26.5670 4.64597   8
   0  10   6 29.5935 3.80792   8
   0  10  -6 26.2249 3.95646   8
  -1  10  -6 4.94489 2.12942   8
  -1  10  -6 4.68852 3.02646  17
  -2 -10  -6 3.80663 2.62370   8
  -2 -10  -6 3.07822 3.58690   9
  -2  10  -6 -0.9105 1.07173   8
  -2  10  -6 2.02473 2.21158  17
  -2  10  -6 5.36505 2.62835   9
  -3 -10  -6 21.9611 4.31392  13
  -3  10  -6 19.9660 3.13541  18
  -3  10  -6 18.0260 2.89239   9
  -3  10  -6 24.1686 3.26148  10
  -3  10  -6 23.6491 3.66355  17
  -4 -10  -6 24.2689 4.23739  10
  -4 -10  -6 31.0865 3.39644   9
  -4 -10  -6 25.8836 4.38728  12
  -4 -10  -6 22.6048 4.77277  13
  -4  10  -6 24.2538 3.17507  10
  -4  10  -6 28.2576 4.32629  17
  -3 -11   6 12.2574 2.81032   9
  -3 -11   6 7.17609 2.89080  13
  -3 -11   6 5.78762 3.56386  10
  -3  11   6 13.2890 2.06064  10
  -3  11   6 7.60547 1.49085   9
  -3  11   6 16.2557 2.42339  17
  -2 -11   6 23.4122 4.06402   9
  -2 -11   6 14.7624 2.28796   8
  -2 -11   6 8.42445 4.44152  13
  -2  11   6 16.5247 2.91898  17
  -1 -11   6 11.2281 3.09377   8
  -1  11   6 12.3137 1.88390   8
   0 -11  -6 0.95502 2.50609   8
   0 -11   6 8.58982 3.54071   8
   0  11   6 4.00793 2.09289   8
   0  11  -6 2.10470 2.24443   8
  -1 -11  -6 18.6755 3.31768   8
  -1  11  -6 10.7798 3.37538   9
  -1  11  -6 9.99173 1.97219   8
   1  11   6 9.00679 2.65688   8
  -2 -11  -6 10.1214 3.80085   9
  -2 -11  -6 15.0348 2.26239   8
  -2  11  -6 17.2490 2.57592   9
  -2  11  -6 16.2543 2.90502  17
  -3 -11  -6 5.55518 2.58719   9
  -3 -11  -6 9.09911 3.74685  13
  -3  11  -6 5.43532 1.79699  10
  -3  11  -6 4.64637 2.88111  17
  -3  11  -6 5.07861 1.37673   9
  -2  12   6 39.4630 4.10019   9
  -2  12   6 41.6023 5.17346  17
  -1 -12   6 5.20896 2.83307   9
  -1 -12   6 5.46603 1.94209   8
  -1  12   6 11.9144 2.44716  17
   1  12  -6 6.40674 1.73093   8
  -1  12   6 5.24954 1.79868   9
   0 -12  -6 50.9128 5.12140   8
   0 -12   6 41.6835 5.40557   8
   0  12   6 49.9199 4.57831   8
   0  12  -6 56.8547 4.93143   8
   1 -12   6 1.14882 3.37250   8
  -1 -12  -6 2.51306 1.40943   8
  -1  12  -6 2.48389 1.78932   9
   1  12   6 1.51369 1.77677   8
  -1  12  -6 2.50828 0.81140   8
  -2 -12  -6 16.3930 3.26612  13
  -2  12  -6 14.9668 2.00282   9
  -7   0   7 3.40269 3.38425  13
  -7   0   7 -1.9039 2.10607  15
  -7   0   7 2.29570 3.08094  14
  -6   0   7 0.39535 2.69680  15
  -6   0   7 5.37237 4.95869  13
  -6   0   7 2.11070 3.42355  12
  -6   0   7 -2.5332 3.47070  14
  -5   0   7 -0.5471 3.30352  14
  -5   0   7 -5.7530 8.56554   5
  -5   0   7 -11.148 4.06717  13
  -5   0   7 -1.2465 2.46302  15
  -5   0   7 0.38760 3.10682  12
  -4   0   7 2.38086 2.36172  11
  -4   0   7 -1.3433 6.24650   5
  -4   0   7 -0.9644 1.28903  10
  -4   0   7 2.44189 3.72886  13
  -4   0   7 1.65035 2.69789  12
  -4   0   7 5.52038 2.89239  14
  -4   0   7 0.96660 2.25685  15
  -4   0   7 -1.0255 5.00406   6
  -3   0   7 0.48913 3.78843   6
  -3   0   7 4.06117 5.44807   5
  -3   0   7 -3.9622 2.01303   3
  -3   0   7 2.63698 2.46194   2
  -2   0   7 -1.3734 5.42623   5
  -2   0   7 -0.6652 2.84496   3
  -2   0   7 -3.0123 3.02383   2
  -2   0   7 -4.0407 2.43397   1
  -2   0   7 3.02558 3.93420   6
  -2   0   7 1.11131 2.36168   1
  -1   0   7 0.85597 3.59591   3
  -1   0   7 0.67114 3.63382   5
  -1   0   7 0.54731 2.70061   1
   1   0  -7 -3.2888 2.54728   1
  -1   0   7 -4.9116 2.77295   2
   1   0  -7 2.22187 2.71036   1
  -1   0   7 -3.7646 2.37706   1
   0   0   7 -2.9727 2.54340   1
   0   0   7 0.15482 3.22234   3
   0   0  -7 0.80346 2.53717   1
   0   0   7 -2.3951 2.95104   5
   0   0   7 1.37816 3.47863   2
   0   0  -7 -4.3011 2.74423   3
   0   0  -7 0.13416 2.95746   1
   0   0  -7 -2.1136 3.24333   2
   0   0   7 0.88519 3.33952   1
   1   0   7 -2.6312 3.18819   1
  -1   0  -7 3.53076 3.02494   3
   1   0   7 -5.0256 4.15910   2
  -1   0  -7 1.68211 2.11729   1
  -1   0  -7 -0.4369 3.11850   7
   1   0   7 0.06648 3.23193   3
  -1   0  -7 0.23589 3.70533   2
   1   0   7 -7.1053 2.38988   1
  -1   0  -7 0.74341 2.89368   1
  -2   0  -7 -1.8904 4.55839   4
  -2   0  -7 -0.8385 3.99724   2
  -2   0  -7 -0.2457 2.55732   3
  -2   0  -7 6.12851 4.74902   7
  -2   0  -7 -5.4211 3.09301   1
  -3   0  -7 0.57473 3.91898   2
  -3   0  -7 0.47223 3.46587   3
  -3   0  -7 3.90525 5.80106   4
  -3   0  -7 -1.5155 4.10116   7
  -4   0  -7 -1.9818 2.84574  11
  -4   0  -7 4.70911 4.55548   2
  -4   0  -7 -2.3407 1.29449   9
  -4   0  -7 -0.8849 2.60033   3
  -4   0  -7 -2.2896 5.65646   7
  -4   0  -7 3.99741 2.70448  17
  -4   0  -7 -0.6742 2.37913  16
  -4   0  -7 3.54760 7.57495   4
  -4   0  -7 4.24859 3.03125  18
  -4   0  -7 0.43813 1.61835  10
  -5   0  -7 -0.3199 3.40898  11
  -5   0  -7 1.49871 2.28266  17
  -5   0  -7 10.0689 10.9907   4
  -5   0  -7 5.47571 3.73784  18
  -5   0  -7 1.54465 8.59469   7
  -5   0  -7 -3.9063 1.96834  10
  -6   0  -7 -0.1401 2.87539  11
  -6   0  -7 -1.9309 3.46778  17
  -6   0  -7 3.81441 4.22549  18
  -7   0  -7 5.77458 2.43456  11
  -7   0  -7 -0.3779 2.45451  17
  -7   0  -7 -2.2512 2.54630  18
  -7  -1   7 8.84618 2.60977  14
  -7  -1   7 12.6456 3.78514  13
  -7   1   7 7.57452 2.07879  15
  -7   1   7 10.4021 3.84747  13
  -7   1   7 12.9641 2.94732  14
  -6  -1   7 10.3131 3.01346  15
  -6  -1   7 18.7504 4.36655  14
  -6  -1   7 16.1076 5.50428  13
  -6  -1   7 11.3483 3.19493  12
  -6   1   7 14.0914 4.14507  14
  -6   1   7 22.7777 5.76070  13
  -6   1   7 15.5559 3.41988  15
  -5  -1   7 121.032 12.2612  11
  -5  -1   7 100.698 9.97425  10
  -5  -1   7 109.655 19.0332   5
  -5  -1   7 121.442 12.6107  14
  -5  -1   7 120.482 12.6183  12
  -5  -1   7 105.191 11.4257  15
  -5  -1   7 122.203 13.9382  13
  -5   1   7 70.7832 14.9867   6
  -5   1   7 122.838 12.6421  12
  -5   1   7 127.618 12.5010  14
  -5   1   7 94.3021 12.0655  16
  -5   1   7 112.216 13.9570  13
  -5   1   7 124.957 11.7283  15
  -4  -1   7 90.3990 13.7304   6
  -4  -1   7 93.6927 10.3219  15
  -4  -1   7 91.7743 15.8432   5
  -4  -1   7 102.504 10.9302  11
  -4  -1   7 110.080 12.3875  13
  -4  -1   7 103.337 11.1798  14
  -4  -1   7 103.364 11.1131  12
  -4  -1   7 106.887 9.58914  10
  -4   1   7 96.7763 9.44954  10
  -4   1   7 119.577 12.4918  13
  -4   1   7 99.8873 11.0554  14
  -4   1   7 114.986 11.3330  12
  -4   1   7 95.1808 10.3950  15
  -4   1   7 69.5520 12.8822   6
  -4   1   7 87.9268 11.0177  16
  -4   1   7 92.3724 15.4888   5
  -3  -1   7 3.61779 4.66729   6
  -3  -1   7 6.87047 2.75728   3
  -3  -1   7 7.60703 3.19894   2
  -3  -1   7 5.82057 5.84797   5
  -3   1   7 1.95440 6.35222   5
  -3   1   7 3.78929 2.61240   2
  -3   1   7 5.49216 2.96790   3
  -3   1   7 4.87421 4.15667   6
  -2  -1   7 51.9360 8.81521   6
  -2  -1   7 83.2057 9.07311   3
  -2  -1   7 70.6418 10.7446   5
  -2  -1   7 79.4133 9.22208   2
  -2   1   7 66.4685 9.72912   6
  -2   1   7 67.0575 8.60225   2
  -2   1   7 71.8600 9.40436   3
  -2   1   7 71.2509 11.0274   5
  -1  -1   7 436.990 43.8966   3
  -1  -1   7 446.844 45.5925   5
  -1  -1   7 406.818 35.3184   1
  -1  -1   7 476.443 41.8115   2
   1  -1  -7 415.735 35.4150   1
  -1  -1   7 390.801 35.1620   1
   1  -1  -7 427.800 35.3585   1
  -1   1   7 475.217 45.9378   5
   1   1  -7 424.472 35.1687   1
  -1   1   7 428.223 35.2704   1
  -1   1   7 396.773 35.3306   1
  -1   1   7 479.095 44.2496   3
   1   1  -7 447.874 35.2805   1
  -1   1   7 459.016 43.3919   6
  -1   1   7 459.515 41.6852   2
   0  -1   7 24.3188 4.61618   1
   0  -1   7 24.0746 4.76156   1
   0  -1  -7 29.0062 5.04522   1
   0  -1  -7 27.2765 5.93732   3
   0  -1   7 36.6609 5.91002   3
   0  -1  -7 34.9939 6.39189   2
   0  -1   7 29.3860 5.25424   5
   0  -1   7 26.5324 5.56617   2
   0  -1  -7 28.2751 5.07498   1
   0   1  -7 34.7264 4.55897   1
   0   1  -7 26.0446 4.23060   7
   0   1   7 31.9333 6.44769   2
   0   1   7 33.9672 5.23736   1
   0   1   7 39.7458 5.38259   1
   0   1  -7 29.7912 4.62339   1
   0   1  -7 34.0069 5.30040   2
   0   1  -7 30.8146 5.24290   3
   0   1   7 36.4385 6.65445   3
   1  -1   7 203.448 23.3897   2
   1  -1   7 223.357 19.9673   1
  -1  -1  -7 256.251 24.5187   3
  -1  -1  -7 248.670 19.8364   1
  -1  -1  -7 266.481 23.6920   2
   1  -1   7 205.942 24.4480   3
   1  -1   7 213.435 19.8370   1
  -1  -1  -7 250.150 20.1584   1
  -1   1  -7 248.412 23.2063   2
   1   1   7 219.488 24.6298   3
   1   1   7 239.080 20.1345   1
   1   1   7 241.314 20.1953   1
  -1   1  -7 230.438 19.6328   1
   1   1   7 211.647 23.4382   2
  -1   1  -7 244.958 24.8992   7
  -1   1  -7 246.925 24.2675   3
  -1   1  -7 226.520 19.4827   1
  -2  -1  -7 253.455 28.2665   4
  -2  -1  -7 269.710 26.5688   3
  -2  -1  -7 208.183 21.5740   1
  -2  -1  -7 265.824 27.9997   7
  -2  -1  -7 266.901 25.7615   2
  -2   1  -7 269.282 27.6107   7
  -2   1  -7 210.870 21.2104   1
  -2   1  -7 291.329 26.4006   3
  -2   1  -7 257.533 25.0483   2
  -3  -1  -7 16.2909 5.51191   7
  -3  -1  -7 12.8671 3.98502   3
  -3  -1  -7 4.97693 6.37285   4
  -3  -1  -7 23.2361 5.32645   2
  -3   1  -7 14.6290 5.92939   7
  -3   1  -7 17.6279 4.84142   2
  -3   1  -7 17.4993 6.83162   4
  -3   1  -7 15.9466 4.14278   3
  -4  -1  -7 244.682 23.6568  17
  -4  -1  -7 239.549 24.1159  11
  -4  -1  -7 238.858 23.9693   3
  -4  -1  -7 245.605 20.7837   9
  -4  -1  -7 229.486 21.5365  10
  -4  -1  -7 279.589 29.5138   4
  -4  -1  -7 224.620 23.4325  18
  -4  -1  -7 205.020 23.8103  12
  -4   1  -7 248.207 23.4916  16
  -4   1  -7 251.662 27.5527   7
  -4   1  -7 251.922 23.7987   3
  -4   1  -7 228.820 23.5435  18
  -4   1  -7 225.425 23.3261   2
  -4   1  -7 239.508 21.4623  10
  -4   1  -7 271.452 28.3267   4
  -4   1  -7 193.280 20.6490   9
  -4   1  -7 238.197 23.6068  17
  -4   1  -7 241.200 23.9110  11
  -5  -1  -7 25.2240 4.54629  17
  -5  -1  -7 21.0691 14.9754   4
  -5  -1  -7 27.7524 3.56612  10
  -5  -1  -7 19.9942 5.10111  11
  -5  -1  -7 21.5721 4.21897  12
  -5  -1  -7 19.8942 4.71198  18
  -5   1  -7 19.6029 4.56492  11
  -5   1  -7 33.3857 5.30054  18
  -5   1  -7 8.90746 9.34138   7
  -5   1  -7 27.5014 3.40948  10
  -5   1  -7 20.4782 4.33427  16
  -5   1  -7 28.1648 4.55290  17
  -6  -1  -7 41.9461 5.99937  18
  -6  -1  -7 35.1573 6.88048  11
  -6  -1  -7 42.0548 6.22198  17
  -6   1  -7 46.1300 5.77024  17
  -6   1  -7 45.2420 6.37268  18
  -7  -1  -7 17.0558 3.33526  18
  -7  -1  -7 7.25087 3.12406  11
  -7   1  -7 10.7199 2.93436  17
  -7   1  -7 10.0560 3.13326  18
  -7   1  -7 14.5645 3.31012  11
  -7  -2   7 10.2083 2.75285  14
  -7  -2   7 20.8572 3.26554  12
  -7  -2   7 25.9711 4.45912  13
  -7   2   7 14.8557 2.77668  15
  -7   2   7 14.3733 3.66799  14
  -6  -2   7 7.23551 4.01945  14
  -6  -2   7 5.04646 3.45125  12
  -6  -2   7 4.41848 4.91973  13
  -6   2   7 10.7005 3.94002  16
  -6   2   7 9.82800 5.24383  13
  -6   2   7 13.2018 3.27535  15
  -6   2   7 8.50973 3.84957  14
  -5  -2   7 11.1412 3.53303  11
  -5  -2   7 0.87272 9.99539   5
  -5  -2   7 6.89107 3.85664  14
  -5  -2   7 5.94110 3.26573  12
  -5  -2   7 -1.4973 4.39712  13
  -5  -2   7 4.29067 1.37967  10
  -5   2   7 -0.6031 4.64017  13
  -5   2   7 -2.9044 3.31588  14
  -5   2   7 6.37063 2.82106  15
  -5   2   7 -6.0009 9.61000   6
  -5   2   7 8.46103 3.60552  16
  -4  -2   7 16.2278 8.43033   5
  -4  -2   7 12.2006 3.76608  14
  -4  -2   7 22.3834 3.70838  11
  -4  -2   7 17.0670 2.68222  10
  -4  -2   7 18.7257 3.68846  12
  -4  -2   7 11.9136 4.41013  13
  -4  -2   7 15.1904 2.98586  15
  -4   2   7 10.1319 4.76869  13
  -4   2   7 16.6385 6.66280   6
  -4   2   7 15.4300 3.16477  15
  -4   2   7 18.8793 3.88251  12
  -4   2   7 17.1007 2.32291  10
  -4   2   7 16.6030 3.55049  16
  -4   2   7 21.3548 3.78464  14
  -3  -2   7 171.398 21.2315   6
  -3  -2   7 213.064 21.0722   3
  -3  -2   7 203.445 24.2646   5
  -3  -2   7 198.152 20.3183   2
  -3   2   7 201.903 22.1849   6
  -3   2   7 197.166 21.4003   3
  -3   2   7 222.744 19.8806   2
  -2  -2   7 -3.3941 5.48769   5
  -2  -2   7 2.36311 3.08029   3
  -2  -2   7 3.81465 3.53495   6
  -2  -2   7 0.56315 3.70489   2
  -2   2   7 4.52449 3.26526   2
  -2   2   7 6.12681 3.82290   3
  -2   2   7 -0.7770 3.61518   6
  -1  -2   7 318.758 30.2840   3
  -1  -2   7 322.325 28.9991   2
  -1  -2   7 268.012 24.1948   1
   1  -2  -7 276.975 24.6450   1
  -1  -2   7 278.195 24.4930   1
   1  -2  -7 273.638 24.4456   1
  -1  -2   7 323.089 31.5822   5
  -1   2   7 267.152 24.2351   1
   1   2  -7 288.226 24.2918   1
  -1   2   7 308.476 28.7339   2
  -1   2   7 337.207 30.5842   3
  -1   2   7 306.826 29.8193   6
  -1   2   7 270.261 24.3917   1
   1   2  -7 279.221 24.2417   1
   0  -2  -7 41.3877 7.00422   3
   0  -2   7 42.5361 7.20095   2
   0  -2   7 33.5581 5.68265   1
   0  -2  -7 40.5900 6.08685   1
   0  -2  -7 35.9713 7.36582   2
   0  -2   7 42.6953 6.50033   5
   0  -2   7 30.0601 5.06890   1
   0  -2   7 43.5157 6.81398   3
   0  -2  -7 37.7659 5.57453   1
   0   2   7 40.3813 7.16050   2
   0   2  -7 41.0488 6.56864   3
   0   2   7 41.8121 5.84325   1
   0   2   7 38.7240 5.42623   1
   0   2  -7 35.6775 5.08271   1
   0   2   7 54.2882 7.31455   3
   0   2  -7 37.0747 5.74485   7
   0   2  -7 41.5265 5.51180   1
   0   2  -7 41.3138 6.76204   2
  -1  -2  -7 186.210 16.8735   1
   1  -2   7 201.368 17.0369   1
  -1  -2  -7 189.558 17.0947   1
  -1  -2  -7 216.162 21.4982   4
   1  -2   7 176.639 16.5436   1
   1  -2   7 187.139 20.5988   2
  -1  -2  -7 215.640 21.0500   3
  -1  -2  -7 236.738 20.6116   2
   1  -2   7 151.837 20.6214   3
   1   2   7 175.206 16.8544   1
  -1   2  -7 199.028 20.6617   7
   1   2   7 166.923 19.7654   2
  -1   2  -7 210.247 19.6585   2
   1   2   7 171.561 20.7954   3
  -1   2  -7 189.652 16.6131   1
  -1   2  -7 168.291 16.1038   1
  -1   2  -7 198.939 20.1335   3
   1   2   7 181.250 17.0592   1
  -2  -2  -7 3.90337 3.59812   3
  -2  -2  -7 2.40088 4.73532   2
  -2  -2  -7 9.39190 5.39941   4
  -2   2  -7 8.44264 3.86847   2
  -2   2  -7 2.55473 3.51366   3
  -2   2  -7 6.32066 4.27420   7
  -3  -2  -7 45.2403 10.0107   4
  -3  -2  -7 47.6896 7.13886   3
  -3  -2  -7 54.1533 8.32109   2
  -3   2  -7 49.9342 6.98022   2
  -3   2  -7 35.9509 6.41064   3
  -3   2  -7 30.8940 8.85059   4
  -3   2  -7 56.6896 9.30067   7
  -4  -2  -7 2.66264 2.22567  10
  -4  -2  -7 9.34506 8.89753   4
  -4  -2  -7 0.20075 3.60946   3
  -4  -2  -7 8.93465 3.02989  17
  -4  -2  -7 8.45324 3.51923  11
  -4  -2  -7 3.97951 3.00870  18
  -4  -2  -7 3.20393 1.62849   9
  -4  -2  -7 -5.3572 4.52286   2
  -4  -2  -7 -0.3179 2.97044  12
  -4   2  -7 -5.9165 6.26456   4
  -4   2  -7 1.44783 3.35638   3
  -4   2  -7 6.98182 1.97396  10
  -4   2  -7 1.00737 1.39492   9
  -4   2  -7 -3.0866 4.69927   2
  -4   2  -7 3.75361 6.07579   7
  -4   2  -7 0.76187 3.15197  11
  -4   2  -7 3.41057 2.65166  17
  -4   2  -7 3.76387 2.64616  16
  -4   2  -7 10.6869 3.46223  18
  -5  -2  -7 0.43219 2.37782  10
  -5  -2  -7 -2.4540 3.60368  18
  -5  -2  -7 -0.2132 2.89728  11
  -5  -2  -7 -8.4476 11.6116   4
  -5  -2  -7 3.48930 3.38470  12
  -5  -2  -7 6.79851 3.62993  17
  -5   2  -7 5.62710 4.19594  18
  -5   2  -7 -0.6117 8.85743   7
  -5   2  -7 -0.6884 1.81021  10
  -5   2  -7 3.67631 3.14174  16
  -5   2  -7 4.66899 2.95551  11
  -5   2  -7 5.29579 3.10200  17
  -6  -2  -7 6.25703 3.49266  12
  -6  -2  -7 11.8737 4.45103  18
  -6   2  -7 1.19349 3.58288  17
  -6   2  -7 7.71059 3.38208  16
  -6   2  -7 5.83981 4.61499  18
  -7  -2  -7 4.36053 2.88482  11
  -7  -2  -7 4.04063 2.59920  18
  -7   2  -7 7.05975 2.81375  18
  -7   2  -7 9.31984 2.56831  17
  -7  -3   7 -1.7131 3.33653  13
  -7  -3   7 1.50390 2.70762  14
  -7  -3   7 4.17781 2.33071  12
  -7   3   7 6.06362 2.30206  14
  -7   3   7 2.78402 3.27852  16
  -6  -3   7 1.23262 3.94944  14
  -6  -3   7 13.8074 5.34587  13
  -6  -3   7 14.2815 3.82582  12
  -6   3   7 14.4328 4.34537  16
  -6   3   7 11.4228 3.24446  15
  -6   3   7 13.1036 3.12579  14
  -5  -3   7 5.77394 11.3718   5
  -5  -3   7 0.51397 3.93478  14
  -5  -3   7 3.50018 4.41055  13
  -5  -3   7 1.06014 3.06727  12
  -5  -3   7 4.64144 3.54193  11
  -5  -3   7 4.10659 1.56770  10
  -5   3   7 0.32715 3.34041  14
  -5   3   7 1.24867 8.36755   6
  -5   3   7 4.69443 3.61694  16
  -5   3   7 -2.7605 4.90306  13
  -5   3   7 4.06417 2.76645  15
  -5   3   7 2.99114 0.87198  10
  -4  -3   7 3.04441 3.74559  13
  -4  -3   7 -5.4557 7.65947   5
  -4  -3   7 5.12781 1.02850   9
  -4  -3   7 2.01163 2.88872   3
  -4  -3   7 0.96633 1.98422  10
  -4  -3   7 4.81691 3.38239  14
  -4  -3   7 0.12117 2.72015  12
  -4  -3   7 2.08455 3.08308   2
  -4  -3   7 6.45103 3.08690  11
  -4   3   7 10.2405 3.10235  16
  -4   3   7 0.95622 2.38518  15
  -4   3   7 -0.5081 6.33346   6
  -4   3   7 5.23159 1.62734  10
  -4   3   7 4.96770 2.93788  14
  -4   3   7 8.43373 4.72543  13
  -3  -3   7 70.4023 9.13050  13
  -3  -3   7 68.8496 8.72230  14
  -3  -3   7 62.5717 9.46611   2
  -3  -3   7 87.5340 14.1347   5
  -3  -3   7 85.0501 9.54830   3
  -3  -3   7 73.4372 8.40209  11
  -3  -3   7 65.6529 6.99731   9
  -3  -3   7 75.7154 7.62705  10
  -3   3   7 72.9624 7.85453  15
  -3   3   7 73.9835 6.89865   9
  -3   3   7 82.8135 8.84067   2
  -3   3   7 85.0610 10.7279   3
  -3   3   7 68.5585 8.25535  16
  -3   3   7 81.6208 11.5699   6
  -3   3   7 84.7821 10.0550  13
  -3   3   7 72.7595 7.30978  10
  -2  -3   7 66.7372 10.3982   5
  -2  -3   7 54.6585 8.14017   3
  -2  -3   7 52.9823 8.32029   2
  -2   3   7 54.9963 7.65458   2
  -2   3   7 52.9399 8.85170   6
  -2   3   7 59.2687 8.56772   3
  -1  -3   7 106.715 11.3620   2
  -1  -3   7 112.022 12.9304   5
  -1  -3   7 98.0745 9.66445   1
  -1  -3   7 93.7258 11.3654   3
  -1   3   7 105.322 11.7754   3
  -1   3   7 91.6162 11.2391   6
  -1   3   7 84.6806 9.61992   1
  -1   3   7 92.9750 11.5586   2
   1   3  -7 63.2496 8.95150   1
   0  -3   7 234.819 23.6066   2
   0  -3  -7 240.186 23.9580   2
   0  -3  -7 252.369 25.0599   3
   0  -3   7 218.250 20.0203   1
   0  -3   7 240.789 24.4924   3
   0  -3  -7 223.137 20.1356   1
   0  -3  -7 244.648 24.7202   4
   0  -3  -7 229.124 20.2016   1
   0  -3   7 232.516 24.7917   5
   0  -3   7 209.174 19.5996   1
   0   3   7 228.648 19.8847   1
   0   3   7 217.756 19.7565   1
   0   3  -7 203.950 19.4925   1
   0   3  -7 233.373 24.2405   3
   0   3  -7 221.260 24.3804   7
   0   3   7 259.755 24.7165   3
   0   3  -7 225.615 23.4083   2
   0   3   7 240.991 23.8845   6
   0   3   7 238.755 23.4390   2
   0   3  -7 213.788 19.7155   1
  -1  -3  -7 312.239 31.2561   1
   1  -3   7 324.580 31.0130   1
  -1  -3  -7 391.217 37.3958   2
  -1  -3  -7 384.956 39.4896   4
  -1  -3  -7 398.532 39.2065   3
  -1  -3  -7 352.455 31.4971   1
  -1   3  -7 360.132 30.9705   1
  -1   3  -7 417.007 38.3332   3
  -1   3  -7 426.685 36.5887   2
  -1   3  -7 399.303 39.4433   7
   1   3   7 359.270 31.2974   1
  -2  -3  -7 96.9957 13.9307   3
  -2  -3  -7 129.666 14.9767   4
  -2  -3  -7 116.377 14.2161   2
  -2   3  -7 107.078 12.7849   2
  -2   3  -7 99.9284 13.8692   7
  -2   3  -7 108.527 13.0936   3
  -3  -3  -7 91.6926 9.60521  10
  -3  -3  -7 98.7456 12.0068   3
  -3  -3  -7 86.5070 9.12918   9
  -3  -3  -7 106.238 13.2046   2
  -3  -3  -7 99.8362 14.9304   4
  -3  -3  -7 92.7784 8.15144   8
  -3   3  -7 92.6783 8.71455   9
  -3   3  -7 99.6497 11.7278   3
  -3   3  -7 107.157 11.5305   2
  -3   3  -7 87.7119 7.96751   8
  -3   3  -7 114.860 13.9715   7
  -3   3  -7 109.432 14.0383   4
  -3   3  -7 97.9694 9.16826  10
  -3   3  -7 90.6576 10.2836  18
  -4  -3  -7 2.55686 5.98467   2
  -4  -3  -7 1.89439 3.15588  18
  -4  -3  -7 6.35577 1.80063   9
  -4  -3  -7 12.9382 3.83857  12
  -4  -3  -7 9.02087 8.54951   4
  -4  -3  -7 2.97871 2.53259  10
  -4  -3  -7 1.28781 4.30749   3
  -4  -3  -7 8.97518 3.64410  11
  -4   3  -7 9.94701 3.02316  17
  -4   3  -7 11.1234 3.70526  18
  -4   3  -7 9.81442 1.97096  10
  -4   3  -7 11.2469 2.94287  16
  -4   3  -7 10.9425 1.94324   9
  -4   3  -7 18.3569 5.36460   2
  -4   3  -7 1.27345 7.04675   7
  -4   3  -7 1.83005 3.88628   3
  -4   3  -7 5.11435 2.64448  11
  -5  -3  -7 5.02783 3.79263  18
  -5  -3  -7 3.85711 2.89809  10
  -5  -3  -7 2.85425 4.30034  11
  -5  -3  -7 8.84453 4.00860  12
  -5  -3  -7 -3.4122 12.4427   4
  -5   3  -7 -1.3941 4.26337  18
  -5   3  -7 1.81877 1.85124  10
  -5   3  -7 3.82042 3.10669  16
  -5   3  -7 4.68651 9.94529   7
  -5   3  -7 3.18976 2.22277  17
  -6  -3  -7 68.1676 8.53841  12
  -6  -3  -7 58.9849 7.72320  18
  -6  -3  -7 60.5184 8.39833  11
  -6   3  -7 60.0766 7.34020  16
  -6   3  -7 74.3482 8.40261  18
  -6   3  -7 62.2874 7.56051  17
  -7  -3  -7 6.23587 2.45179  12
  -7  -3  -7 3.50687 2.33005  18
  -7   3  -7 2.44101 2.62995  18
  -7   3  -7 3.20716 3.17610  17
  -7  -4   7 9.59186 3.66064  13
  -7  -4   7 6.79352 2.49509  12
  -7   4   7 6.73880 2.29293  16
  -6  -4   7 -1.9795 2.44102  14
  -6  -4   7 1.24950 3.47587  13
  -6  -4   7 2.56327 3.29635  12
  -6   4   7 -0.5444 1.77043  15
  -6   4   7 1.16970 3.46532  14
  -6   4   7 0.01087 4.04705  16
  -5  -4   7 3.54160 3.26147  13
  -5  -4   7 0.64620 4.12570  14
  -5  -4   7 2.72208 1.89589  10
  -5  -4   7 6.07953 3.28987  12
  -5   4   7 6.29780 10.4100   6
  -5   4   7 5.64225 3.61715  14
  -5   4   7 1.03290 1.16018  10
  -5   4   7 4.69625 2.78094  15
  -5   4   7 0.02389 2.53172  16
  -4  -4   7 16.7435 5.21304   2
  -4  -4   7 8.87405 4.50174   3
  -4  -4   7 15.4078 3.71514  12
  -4  -4   7 13.9540 9.24310   5
  -4  -4   7 23.1631 3.16199  10
  -4  -4   7 16.1861 2.27443   9
  -4  -4   7 15.6871 4.73028  13
  -4  -4   7 15.7965 4.51851  14
  -4   4   7 10.8085 3.66435  16
  -4   4   7 18.6344 3.45789  15
  -4   4   7 17.1167 3.75441  14
  -4   4   7 19.0259 8.39822   6
  -3  -4   7 2.85829 3.31749  14
  -3  -4   7 -0.1281 1.57514   9
  -3  -4   7 5.15472 2.54016  12
  -3  -4   7 -2.9657 4.50049   2
  -3  -4   7 1.66037 0.83490   8
  -3  -4   7 2.64391 1.87702  10
  -3  -4   7 2.71408 3.04584  13
  -3  -4   7 -2.9585 3.74034   3
  -3  -4   7 6.46110 6.84939   5
  -3   4   7 1.50066 3.44809   2
  -3   4   7 9.49416 4.78046   3
  -3   4   7 1.25073 1.70416  10
  -3   4   7 -5.3767 5.88289   6
  -3   4   7 0.11227 1.41456   9
  -3   4   7 0.16146 2.39552  16
  -3   4   7 -1.5953 2.35024  14
  -3   4   7 0.72224 1.94933  15
  -2  -4   7 7.88625 6.03255   5
  -2  -4   7 7.82527 5.07111   2
  -2  -4   7 7.27259 4.70595   3
  -2   4   7 10.8809 4.74611   3
  -2   4   7 12.0733 5.26839   6
  -2   4   7 5.34982 3.73528   2
  -2   4   7 20.8085 6.86760   7
  -1  -4   7 2.96846 3.81787   2
  -1  -4   7 5.04921 4.41731   3
  -1  -4   7 7.88213 5.67342   5
  -1   4   7 -0.3640 3.36848   2
  -1   4   7 3.93248 3.71215   6
  -1   4   7 4.01794 3.87853   3
   0  -4   7 1.96328 4.32869   3
   0  -4  -7 3.68998 4.00838   1
   0  -4   7 5.42344 4.14993   1
   0  -4   7 4.44389 4.34325   5
   0  -4  -7 2.63952 4.33399   4
   0  -4   7 1.45113 3.88234   2
   0   4   7 6.45951 5.26084   2
   0   4  -7 2.75480 3.87194   1
   0   4  -7 6.12789 3.99912   2
   0   4   7 -1.8726 3.73935   3
   0   4  -7 4.11723 4.51691   3
   0   4   7 2.25321 4.20650   1
   0   4   7 0.80813 3.68350   6
   0   4  -7 2.40102 2.95321   7
  -1  -4  -7 4.33657 5.04746   3
  -1  -4  -7 -3.9095 4.78121   4
  -1  -4  -7 0.18090 5.29953   2
  -1  -4  -7 4.56581 5.02498   1
  -1   4  -7 3.30626 4.34636   1
  -1   4  -7 -4.3558 4.23706   7
  -1   4  -7 1.92205 4.58836   2
  -1   4  -7 4.15418 3.63009   3
  -2  -4  -7 44.5707 8.96752   2
  -2  -4  -7 26.8604 7.00607   3
  -2  -4  -7 38.2148 9.24918   4
  -2   4  -7 31.2839 6.48624   2
  -2   4  -7 34.5918 6.35503   3
  -2   4  -7 33.8388 7.55668   7
  -3  -4  -7 5.86610 1.78123   8
  -3  -4  -7 8.25765 6.47188   2
  -3  -4  -7 2.69553 8.17916   4
  -3  -4  -7 2.14274 3.33192  11
  -3  -4  -7 6.84845 2.28169   9
  -3  -4  -7 7.19136 2.86832  10
  -3  -4  -7 4.66290 5.68077   3
  -3   4  -7 0.52438 2.79695  18
  -3   4  -7 4.59601 1.93969  10
  -3   4  -7 1.20431 4.25191   3
  -3   4  -7 0.18002 2.39144  17
  -3   4  -7 -2.6873 5.69261   7
  -3   4  -7 4.03657 1.52774   9
  -3   4  -7 0.65584 2.17733  16
  -3   4  -7 5.61578 4.72701   2
  -3   4  -7 3.73314 1.20195   8
  -4  -4  -7 5.21192 3.46246  11
  -4  -4  -7 2.34029 9.44405   4
  -4  -4  -7 2.12414 6.33246   2
  -4  -4  -7 1.27687 3.93892  12
  -4  -4  -7 1.59025 3.15493  18
  -4  -4  -7 4.05052 2.78563  10
  -4  -4  -7 2.31791 5.59156   3
  -4  -4  -7 7.74278 2.41060   9
  -4   4  -7 1.55341 2.56369  16
  -4   4  -7 4.38542 1.57690   9
  -4   4  -7 -0.5428 5.06584   2
  -4   4  -7 3.19194 1.78724  10
  -4   4  -7 -0.7484 7.84523   7
  -4   4  -7 4.51799 3.71145  18
  -4   4  -7 1.15252 2.84078  17
  -5  -4  -7 -2.6063 3.94316  12
  -5  -4  -7 0.01989 13.6700   4
  -5  -4  -7 -2.5196 3.97492  11
  -5  -4  -7 1.06042 3.76224  18
  -5  -4  -7 -5.7277 2.95116  10
  -5   4  -7 -0.0983 1.79706  10
  -5   4  -7 2.32976 2.99053  16
  -5   4  -7 -1.6155 2.95485  17
  -5   4  -7 0.57268 4.38914  18
  -5   4  -7 -16.437 10.9481   7
  -6  -4  -7 2.76129 2.90084  12
  -6  -4  -7 0.96626 3.80011  18
  -6  -4  -7 0.72237 1.14463  10
  -6   4  -7 -1.9981 2.67277  16
  -6   4  -7 3.34741 3.34670  17
  -6   4  -7 -2.2452 3.00961  18
  -7  -4  -7 4.99662 2.63782  11
  -7  -4  -7 4.89963 2.06903  12
  -7   4  -7 -3.2289 3.02450  18
  -7   4  -7 3.79772 2.98566  17
  -7  -5   7 17.1328 4.04552  13
  -7  -5   7 16.3510 2.89383  12
  -7   5   7 18.2709 3.31700  16
  -7   5   7 17.1691 2.55298  15
  -6  -5   7 7.51018 2.80030  14
  -6  -5   7 16.1912 4.23897  13
  -6  -5   7 10.3798 2.92069  12
  -6   5   7 10.5655 2.51197  15
  -6   5   7 15.2193 4.13317  16
  -6   5   7 14.0980 3.90917  14
  -5  -5   7 15.7328 4.17902  12
  -5  -5   7 19.7898 5.55836  13
  -5  -5   7 16.5277 4.08684  14
  -5  -5   7 21.9529 3.19871  10
  -5   5   7 20.9971 2.44798  10
  -5   5   7 21.5678 4.09299  16
  -5   5   7 22.2861 4.54909  14
  -5   5   7 18.8607 3.43207  15
  -4  -5   7 28.3361 4.87689  12
  -4  -5   7 28.0906 3.70189   9
  -4  -5   7 19.7985 11.3173   5
  -4  -5   7 29.6593 4.33979  10
  -4  -5   7 26.5896 5.89811  13
  -4  -5   7 32.6744 6.10715  14
  -4  -5   7 10.0895 7.29218   2
  -4   5   7 27.8136 4.95711  14
  -4   5   7 20.4581 9.08617   6
  -4   5   7 41.8603 4.09643  10
  -4   5   7 35.9656 3.04474   9
  -4   5   7 33.8291 4.56012  15
  -4   5   7 27.5360 4.95205  16
  -3  -5   7 85.7508 10.9258  13
  -3  -5   7 68.5643 10.1237  12
  -3  -5   7 81.5780 10.8390  14
  -3  -5   7 97.5632 8.86500   9
  -3  -5   7 92.2529 16.1575   5
  -3  -5   7 104.992 13.5081   2
  -3  -5   7 82.5547 7.61855   8
  -3  -5   7 91.5239 12.5123   3
  -3  -5   7 90.1071 9.07758  10
  -3   5   7 83.2554 9.33306  15
  -3   5   7 91.7684 9.95008  16
  -3   5   7 96.5092 8.48484   9
  -3   5   7 84.6011 9.98129  14
  -3   5   7 110.354 14.7664   6
  -3   5   7 95.9504 8.92803  10
  -3   5   7 100.640 11.4336   2
  -3   5   7 105.997 12.6385   3
  -2  -5   7 211.333 23.7897  13
  -2  -5   7 239.280 24.9933   3
  -2  -5   7 227.293 23.6867   2
  -2  -5   7 209.317 20.7503  10
  -2  -5   7 225.624 18.7131   8
  -2  -5   7 225.727 20.1246   9
  -2  -5   7 225.663 26.4103   5
  -2   5   7 237.489 23.5605   2
  -2   5   7 216.466 20.6213  10
  -2   5   7 269.769 24.9612   3
  -2   5   7 232.382 24.4247   6
  -2   5   7 210.334 19.9033   9
  -2   5   7 216.170 26.6867   7
  -2   5   7 222.062 18.4639   8
  -1  -5   7 29.9251 6.87310   3
  -1  -5   7 38.8447 8.36190   5
  -1  -5   7 32.7142 7.00297   2
  -1   5   7 30.9095 6.85156   2
  -1   5   7 33.1914 6.64333   6
  -1   5   7 32.6439 7.70352   3
   0  -5   7 133.647 15.6043   5
   0   5   7 120.104 15.8665   2
   0   5   7 116.507 14.1397   6
   0   5   7 134.168 16.1845   3
   0   5  -7 129.216 15.6341   7
  -1  -5  -7 47.6664 11.3891   3
  -1  -5  -7 53.5275 10.4007   4
  -1   5  -7 65.9938 10.2281   3
  -1   5  -7 76.0444 10.4546   7
  -1   5  -7 58.7657 9.33295   2
  -2  -5  -7 98.9847 10.2776   9
  -2  -5  -7 89.5799 13.7507   2
  -2  -5  -7 116.420 15.1693   4
  -2  -5  -7 106.928 14.7424   3
  -2  -5  -7 104.446 9.54816   8
  -2   5  -7 100.069 8.88534   8
  -2   5  -7 147.625 16.9673   7
  -2   5  -7 98.2343 13.7713   2
  -2   5  -7 96.9450 9.77994   9
  -2   5  -7 112.965 14.1478   3
  -3  -5  -7 18.4594 8.58955   3
  -3  -5  -7 25.6861 8.21160   2
  -3  -5  -7 35.1490 4.76015  10
  -3  -5  -7 28.8050 4.09005   9
  -3  -5  -7 11.8289 8.77143   4
  -3  -5  -7 24.8840 5.00684  11
  -3  -5  -7 30.8965 3.49049   8
  -3   5  -7 28.0146 3.91031  10
  -3   5  -7 21.4424 5.87789   2
  -3   5  -7 33.1889 3.11752   8
  -3   5  -7 20.1271 5.94512   3
  -3   5  -7 34.5126 3.78309   9
  -3   5  -7 30.4883 4.45923  17
  -3   5  -7 30.6596 9.03779   7
  -4  -5  -7 127.014 14.7975  12
  -4  -5  -7 134.949 11.7623   9
  -4  -5  -7 116.841 13.1751  18
  -4  -5  -7 122.837 12.4341  10
  -4  -5  -7 89.1749 20.6617   4
  -4  -5  -7 110.107 16.4090   2
  -4   5  -7 122.373 11.8127  10
  -4   5  -7 71.8111 16.8204   7
  -4   5  -7 117.220 14.2617   2
  -4   5  -7 124.058 13.0165  16
  -4   5  -7 129.934 11.2751   9
  -4   5  -7 138.489 13.8778  18
  -4   5  -7 121.406 13.4090  17
  -5  -5  -7 45.4029 6.42915  18
  -5  -5  -7 59.3109 6.63035  10
  -5  -5  -7 37.0990 7.64555  12
  -5   5  -7 51.1499 6.78594  16
  -5   5  -7 51.6266 6.43400  17
  -5   5  -7 63.1709 7.25464  18
  -5   5  -7 48.9739 5.37338  10
  -6  -5  -7 22.5023 2.74292  10
  -6  -5  -7 22.4189 4.63933  12
  -6   5  -7 22.0245 4.17738  18
  -6   5  -7 19.1451 4.29811  17
  -6   5  -7 23.6215 3.50616  16
  -7  -5  -7 4.91180 1.96220  11
  -7  -5  -7 4.22157 2.07418  12
  -7   5  -7 3.06731 1.96237  17
  -7   5  -7 2.01096 1.93876  18
  -6  -6   7 24.0507 4.94620  13
  -6  -6   7 21.8023 3.81348  12
  -6   6   7 29.0644 4.24665  16
  -5  -6   7 5.57303 3.19078  12
  -5  -6   7 -2.1983 3.35621  13
  -5  -6   7 4.96655 4.25408  14
  -5  -6   7 2.61587 2.04142  10
  -5   6   7 4.35867 2.03447  15
  -5   6   7 4.35656 3.61563  16
  -5   6   7 4.95298 1.39099  10
  -4  -6   7 19.6667 3.92909  12
  -4  -6   7 22.0281 4.46083  13
  -4  -6   7 20.4169 3.31304  10
  -4  -6   7 6.17587 2.46008   9
  -4  -6   7 22.7722 5.35562  14
  -4  -6   7 5.69865 12.5136   5
  -4   6   7 20.6177 4.33562  14
  -4   6   7 18.1861 2.84330  10
  -4   6   7 16.7117 1.85466   9
  -4   6   7 14.9632 3.96181  16
  -4   6   7 13.8629 2.76104  15
  -4   6   7 6.46551 9.71741   6
  -3  -6   7 7.10762 2.29925   9
  -3  -6   7 6.38140 1.53401   8
  -3  -6   7 8.81891 7.41451   2
  -3  -6   7 4.98016 2.51891  10
  -3  -6   7 0.85576 3.67047  13
  -3  -6   7 -0.8960 9.28364   5
  -3  -6   7 0.35549 5.43974   3
  -3   6   7 0.85674 2.92830  14
  -3   6   7 3.36609 2.21150  15
  -3   6   7 2.50949 2.76547  16
  -3   6   7 4.50356 7.00419   6
  -3   6   7 1.16238 4.59596   2
  -3   6   7 3.70007 1.57919   9
  -3   6   7 3.21977 3.57266  17
  -3   6   7 -2.9425 5.70675   3
  -2  -6   7 53.2096 6.20732   9
  -2  -6   7 47.1711 5.34594   8
  -2  -6   7 51.3564 11.0908   3
  -2  -6   7 63.9815 6.60948  10
  -2  -6   7 48.3458 9.80586   2
  -2  -6   7 53.4887 7.57242  13
  -2  -6   7 65.3190 12.5772   5
  -2   6   7 53.7366 5.04517   8
  -2   6   7 53.0585 11.5140   7
  -2   6   7 48.9479 9.52617   6
  -2   6   7 49.7595 9.18004   3
  -2   6   7 53.5926 5.74888   9
  -2   6   7 61.3979 10.1478   2
  -2   6   7 47.6160 6.17875  10
  -1  -6   7 13.6979 7.15036   5
  -1  -6   7 19.2410 2.80870   8
  -1  -6   7 -2.4759 5.66845   2
  -1  -6   7 12.4274 6.60936   3
  -1   6   7 19.1259 2.44716   8
  -1   6   7 11.1322 6.08906   2
  -1   6   7 13.2989 6.17528   6
  -1   6   7 11.9149 2.76738   9
  -1   6   7 11.9878 6.08171   3
   0  -6   7 -0.4428 5.28389   5
   0   6  -7 4.92704 5.34543   7
  -1  -6  -7 2.15648 2.61172   8
  -1   6  -7 1.18347 5.44583   7
  -1   6  -7 4.42839 1.76089   8
  -1   6  -7 0.71632 5.70720   2
  -1   6  -7 2.18578 5.38034   3
  -2  -6  -7 21.8461 3.28647   8
  -2  -6  -7 22.3367 3.82143   9
  -2  -6  -7 22.8023 9.33301   4
  -2  -6  -7 27.1458 8.83410   3
  -2  -6  -7 10.8344 8.11674   2
  -2   6  -7 16.7977 3.40318  17
  -2   6  -7 13.4542 3.19742  10
  -2   6  -7 23.0019 8.52888   7
  -2   6  -7 13.2614 8.08809   2
  -2   6  -7 19.6895 2.45422   8
  -2   6  -7 21.3887 3.01908   9
  -2   6  -7 21.5537 6.66332   3
  -3  -6  -7 26.2756 10.5893   2
  -3  -6  -7 10.7073 9.23768   4
  -3  -6  -7 11.5587 4.87957  12
  -3  -6  -7 21.6410 2.97270   8
  -3  -6  -7 17.7314 4.03524  10
  -3  -6  -7 12.3959 3.32929   9
  -3  -6  -7 18.7687 9.74830   3
  -3   6  -7 18.6956 3.63907  17
  -3   6  -7 16.7636 1.92687   8
  -3   6  -7 15.3521 2.59997   9
  -3   6  -7 6.94332 8.98853   7
  -3   6  -7 14.2271 2.95858  10
  -3   6  -7 3.14055 7.60284   2
  -4  -6  -7 6.24317 5.10173  12
  -4  -6  -7 7.10856 3.43212  10
  -4  -6  -7 16.1576 12.4523   4
  -4  -6  -7 5.67169 2.60265   9
  -4   6  -7 1.86407 3.62613  18
  -4   6  -7 3.12372 1.48417   9
  -4   6  -7 2.66478 2.34545  17
  -4   6  -7 5.77901 2.84256  16
  -4   6  -7 0.58235 2.05029  10
  -4   6  -7 -10.689 10.5571   7
  -5  -6  -7 13.7630 3.48117  10
  -5  -6  -7 5.01597 4.90067  12
  -5   6  -7 5.35219 3.62837  17
  -5   6  -7 12.0992 2.42284  10
  -5   6  -7 10.6329 3.44250  18
  -5   6  -7 8.27227 3.01161  16
  -6  -6  -7 6.75872 1.35682  10
  -6  -6  -7 2.23002 2.95359  12
  -6  -6  -7 4.97370 3.21045  11
  -6   6  -7 6.68113 2.62985  18
  -6   6  -7 7.09915 2.51864  17
  -6   6  -7 3.29761 1.67509  16
  -6  -7   7 5.43042 2.69551  12
  -6  -7   7 6.69693 3.61528  13
  -6   7   7 6.51867 2.78209  16
  -6   7   7 3.46201 2.04512  15
  -5  -7   7 35.8409 5.41797  14
  -5  -7   7 48.6208 6.51605  13
  -5  -7   7 40.1290 4.60794  10
  -5   7   7 37.6166 5.39152  16
  -5   7   7 34.6599 3.68647  10
  -5   7   7 26.0652 4.40275  15
  -4  -7   7 91.4700 8.96740  10
  -4  -7   7 79.6967 11.2645  13
  -4  -7   7 76.6500 10.0217  14
  -4  -7   7 63.2162 7.99584   9
  -4   7   7 84.1246 8.67289  15
  -4   7   7 85.1466 7.43834   9
  -4   7   7 93.2517 9.92498  16
  -4   7   7 98.2075 8.61621  10
  -3  -7   7 155.072 15.0599  10
  -3  -7   7 162.380 14.4445   9
  -3  -7   7 143.654 17.0199  13
  -3  -7   7 142.095 12.8903   8
  -3  -7   7 174.740 25.0311   5
  -3   7   7 159.230 20.9646   6
  -3   7   7 147.493 16.3521  17
  -3   7   7 156.788 15.8161  16
  -3   7   7 160.928 14.0849   9
  -3   7   7 153.146 14.6190  10
  -2  -7   7 640.349 49.4923   8
  -2  -7   7 595.378 54.7339  10
  -2  -7   7 591.518 53.1052   9
  -2  -7   7 588.614 65.1844   5
  -2  -7   7 594.331 62.4578  13
  -2   7   7 570.867 61.6488   3
  -2   7   7 589.596 61.0778   6
  -2   7   7 578.995 54.4441  10
  -2   7   7 602.831 52.8584   9
  -2   7   7 607.709 64.4579   7
  -2   7   7 619.517 49.2044   8
  -2   7   7 603.081 58.6557  16
  -2   7   7 617.150 58.6750   2
  -1  -7   7 46.1886 4.72829   8
  -1  -7   7 20.9245 9.80524   5
  -1   7   7 24.7562 8.71188   3
  -1   7   7 42.2375 4.19293   8
  -1   7   7 22.5753 8.78757   2
  -1   7   7 38.4391 4.81298   9
   0  -7   7 528.508 56.8712   5
   0   7   7 503.474 43.3218   8
   0   7  -7 565.260 56.3363   7
  -1  -7  -7 79.3837 8.31991   8
  -1   7  -7 96.9862 14.3785   7
  -1   7  -7 81.2116 7.70142   8
  -2  -7  -7 335.757 28.0083   9
  -2  -7  -7 246.703 34.9580   3
  -2  -7  -7 256.233 34.2415   2
  -2  -7  -7 333.495 25.8023   8
  -2   7  -7 296.591 30.5336  17
  -2   7  -7 323.021 25.4172   8
  -2   7  -7 262.223 32.3821   2
  -2   7  -7 291.413 27.3787   9
  -2   7  -7 330.086 35.7427   7
  -2   7  -7 304.527 28.5710  10
  -3  -7  -7 35.5436 4.85522   9
  -3  -7  -7 44.3700 4.19069   8
  -3  -7  -7 36.3097 5.46904  10
  -3  -7  -7 26.9311 6.22074  12
  -3   7  -7 25.7276 4.30861  10
  -3   7  -7 30.0633 4.00234   9
  -3   7  -7 22.6665 11.5254   7
  -3   7  -7 34.1406 3.19034   8
  -3   7  -7 30.4944 4.91703  17
  -4  -7  -7 36.8004 5.78506  10
  -4  -7  -7 31.0481 7.00336  12
  -4  -7  -7 45.8073 5.47946   9
  -4   7  -7 45.7844 5.24245  10
  -4   7  -7 36.6201 4.39049   9
  -4   7  -7 41.1155 5.85671  17
  -4   7  -7 41.2565 5.95732  18
  -5  -7  -7 29.2591 4.25871  10
  -5  -7  -7 18.8289 5.53635  12
  -5   7  -7 23.4309 3.10767  10
  -5   7  -7 21.3166 4.67082  18
  -5   7  -7 27.1824 4.49883  17
  -6  -7  -7 19.5300 4.12168  12
  -6   7  -7 17.8406 3.47618  18
  -6   7  -7 20.1452 3.74789  17
  -6  -8   7 5.60339 3.18281  13
  -6   8   7 6.37458 2.23222  16
  -5  -8   7 10.5647 2.62803  10
  -5  -8   7 16.2996 5.34192  13
  -5   8   7 10.8372 3.29915  16
  -5   8   7 12.6047 1.74060  10
  -4  -8   7 48.2335 7.52112  14
  -4  -8   7 49.3454 6.13415  10
  -4  -8   7 62.4445 7.87600  13
  -4   8   7 47.4854 5.65671  10
  -4   8   7 52.8800 6.96710  16
  -4   8   7 51.2317 6.55758  17
  -3  -8   7 12.9405 6.04783  14
  -3  -8   7 30.6750 4.10848  10
  -3  -8   7 23.9119 5.57045  13
  -3  -8   7 25.8939 3.97489   9
  -3   8   7 25.0114 3.73272  10
  -3   8   7 31.1002 4.49632  16
  -3   8   7 20.2894 3.10555   9
  -3   8   7 17.2233 4.33714  17
  -2  -8   7 -5.4703 12.1393   5
  -2  -8   7 2.34890 3.06221   9
  -2  -8   7 10.6810 3.37004  13
  -2  -8   7 11.7050 2.60755   8
  -2   8   7 11.7726 2.62206   9
  -2   8   7 12.4699 3.04050  10
  -2   8   7 12.5897 2.04609   8
  -2   8   7 10.6316 2.66193  16
  -1  -8   7 134.689 16.1406  13
  -1  -8   7 156.621 23.2824   5
  -1  -8   7 145.871 12.8576   8
  -1   8   7 143.511 13.5948   9
  -1   8   7 141.961 12.3352   8
   0   8   7 48.5122 5.51148   8
  -1  -8  -7 43.5152 5.34850   8
  -1   8  -7 18.0903 11.1277   7
  -1   8  -7 49.5054 5.06694   8
  -2  -8  -7 46.6572 5.65168   8
  -2  -8  -7 48.4361 6.60946   9
  -2   8  -7 28.6312 13.5328   7
  -2   8  -7 51.4568 5.07523   8
  -2   8  -7 54.3476 5.95570   9
  -2   8  -7 54.0341 6.61997  17
  -3  -8  -7 22.1971 5.77705  12
  -3  -8  -7 21.5169 3.27578   8
  -3  -8  -7 25.5148 5.26066  10
  -3  -8  -7 19.6734 4.37992   9
  -3   8  -7 32.9309 4.73996  18
  -3   8  -7 29.6446 3.79966  10
  -3   8  -7 21.4258 3.42905   9
  -3   8  -7 26.4407 4.00919  17
  -4  -8  -7 3.86325 3.62203  12
  -4  -8  -7 14.2067 3.99242  10
  -4  -8  -7 8.72295 2.92176   9
  -4   8  -7 5.66930 3.66216  17
  -4   8  -7 13.8835 2.73697  10
  -4   8  -7 8.02386 3.75053  18
  -4   8  -7 10.9478 1.82553   9
  -5  -8  -7 39.0667 6.53496  12
  -5  -8  -7 37.7428 5.02176  10
  -5   8  -7 35.8614 4.98035  18
  -5   8  -7 44.5794 4.29306  10
  -5   8  -7 36.8795 5.07115  17
  -6  -8  -7 4.51730 3.37207  12
  -5  -9   7 -0.9886 2.32953  10
  -5  -9   7 0.28673 2.88353  13
  -5   9   7 5.97555 1.76490  16
  -4  -9   7 16.8897 2.60824   9
  -4  -9   7 22.2219 3.18138  10
  -4  -9   7 13.3766 4.23928  13
  -4   9   7 14.6017 3.42384  17
  -4   9   7 22.0541 2.77605  10
  -4   9   7 12.9322 2.83177  16
  -3  -9   7 33.2832 6.56352  13
  -3  -9   7 32.3044 5.39423  10
  -3  -9   7 30.1398 6.39485  14
  -3  -9   7 33.9322 4.78295   9
  -3   9   7 36.7334 4.23078   9
  -3   9   7 35.9079 4.57040  10
  -3   9   7 37.5829 4.79073  16
  -3   9   7 42.3447 5.40421  17
  -2  -9   7 2.87131 2.43113   8
  -2  -9   7 10.4918 4.34644  13
  -2  -9   7 5.92300 3.20968   9
  -2   9   7 8.58048 2.57486   9
  -2   9   7 3.60999 1.29296   8
  -2   9   7 6.94382 2.66045  16
  -2   9   7 8.68792 2.82495  10
  -1  -9   7 132.048 15.1598  13
  -1  -9   7 131.375 11.9680   8
  -1   9   7 121.678 13.6159  16
  -1   9   7 136.411 11.3910   8
  -1   9   7 127.302 12.5777   9
   0  -9   7 10.1520 3.78430   8
   0   9   7 18.5296 2.62705   8
   0   9  -7 8.25573 3.03051   8
  -1  -9  -7 113.455 10.7268   8
  -1   9  -7 110.752 10.0886   8
  -2  -9  -7 26.5850 4.81290   9
  -2  -9  -7 17.7111 3.63296   8
  -2  -9  -7 23.7333 5.09967  12
  -2   9  -7 18.9874 3.95406  17
  -2   9  -7 21.1895 2.64869   8
  -2   9  -7 21.7920 3.71898   9
  -3  -9  -7 67.6397 8.77536  13
  -3  -9  -7 60.5306 5.61756   8
  -3  -9  -7 56.1096 7.80684  10
  -3  -9  -7 61.0439 8.45975  12
  -3  -9  -7 66.5965 7.00132   9
  -3   9  -7 58.3034 7.13231  10
  -3   9  -7 59.2333 7.61005  18
  -3   9  -7 57.7599 7.33618  17
  -3   9  -7 73.8061 6.60423   9
  -4  -9  -7 69.0733 9.39267  12
  -4  -9  -7 82.4735 8.01596   9
  -4  -9  -7 84.3437 9.14138  10
  -4   9  -7 79.3637 9.01018  18
  -4   9  -7 82.8669 7.24445   9
  -4   9  -7 79.1204 7.94002  10
  -4   9  -7 85.9003 9.37969  17
  -5  -9  -7 -0.3635 1.43757  10
  -5  -9  -7 -0.6881 3.23867  12
  -5   9  -7 -0.5330 2.50239  17
  -5   9  -7 -0.1327 1.26289  10
  -4 -10   7 4.18349 2.82979  10
  -4 -10   7 4.98710 2.96879  13
  -4  10   7 6.24767 1.72592  10
  -4  10   7 6.41761 1.62086  16
  -3 -10   7 9.66186 3.62543  13
  -3 -10   7 8.82360 3.91185  10
  -3 -10   7 6.98699 3.02799   9
  -3  10   7 10.3895 2.70897  16
  -3  10   7 14.3253 2.06612   9
  -3  10   7 16.1206 2.95500  10
  -3  10   7 19.0664 2.88807  17
  -2 -10   7 31.3986 5.00746  13
  -2 -10   7 22.9227 3.26769   8
  -2 -10   7 32.3081 4.62075   9
  -2  10   7 18.8373 4.03500  17
  -2  10   7 28.1270 3.73303  16
  -2  10   7 24.1085 2.28309   8
  -2  10   7 27.1101 3.69516   9
  -1 -10   7 24.1324 3.80734   8
  -1  10   7 17.6714 3.57984   9
  -1  10   7 15.2056 2.50042   8
   0 -10   7 5.01927 3.51949   8
   0  10   7 3.89296 2.35126   8
   0  10  -7 5.38383 2.59059   8
  -1 -10  -7 18.6250 3.94730   8
   1  10   7 21.0700 3.66206   8
  -1  10  -7 21.4600 2.97446   8
  -2 -10  -7 8.70848 3.76449   9
  -2 -10  -7 7.98468 2.62615   8
  -2  10  -7 8.88267 2.72944   9
  -2  10  -7 2.93054 1.17372   8
  -2  10  -7 2.80340 2.78703  17
  -3 -10  -7 0.43504 3.48014  12
  -3 -10  -7 5.57136 3.71076  13
  -3 -10  -7 5.86483 2.36237   9
  -3  10  -7 2.08826 1.96482  18
  -3  10  -7 1.78876 2.40079  10
  -3  10  -7 2.08274 2.19569  17
  -3  10  -7 3.45761 1.89413   9
  -4 -10  -7 5.62933 1.51964   9
  -4 -10  -7 3.17293 3.09228  12
  -4 -10  -7 8.23519 2.40817  10
  -4  10  -7 4.25236 1.47940  10
  -4  10  -7 2.84255 2.66158  17
  -3 -11   7 1.06567 2.44352  10
  -3 -11   7 6.52490 2.56739  13
  -3 -11   7 10.6675 2.29700   9
  -3  11   7 10.2033 2.48246  17
  -3  11   7 6.74560 2.05637  10
  -2 -11   7 9.90158 3.04896  13
  -2 -11   7 11.6053 2.89758   9
  -2  11   7 20.2131 2.36788   9
  -2  11   7 13.8609 3.21418  17
  -1 -11   7 16.2573 3.30290   8
  -1  11   7 18.1065 2.11694   8
   1  11  -7 13.4824 3.23129   8
  -1  11   7 16.9827 3.29086   9
   0 -11  -7 3.58686 3.36224   8
   0 -11   7 1.33056 2.22161   8
   0  11  -7 2.68016 2.00245   8
   0  11   7 1.17478 1.31086   8
  -1 -11  -7 14.6577 2.55935   8
  -1  11  -7 14.3752 2.09733   8
  -1  11  -7 8.78165 3.37004   9
   1  11   7 11.2852 2.17410   8
  -2 -11  -7 42.6836 5.02095   9
  -2 -11  -7 46.1017 4.16552   8
  -2  11  -7 33.2577 4.36910   9
  -2  11  -7 41.1109 5.06746  18
  -3 -11  -7 2.37729 3.23258  13
  -3 -11  -7 3.55579 1.68439   9
  -3  11  -7 4.63187 1.62969  10
  -3  11  -7 0.97234 1.14630   9
  -2 -12   7 11.0411 2.44407   9
  -2  12   7 15.8695 1.89862   9
  -1 -12   7 11.9979 2.00042   8
  -1 -12   7 14.0607 3.11878   9
   1  12  -7 10.3539 1.97908   8
  -1  12   7 19.7304 2.70575  17
   0 -12   7 7.04846 2.17241   8
   0 -12  -7 11.8461 2.80386   8
   0  12   7 13.5754 1.61843   8
   0  12  -7 12.8167 1.98591   8
  -1 -12  -7 25.0552 2.57114   8
   1 -12   7 17.0236 3.92905   8
   1  12   7 25.5502 2.68608   8
  -1  12  -7 21.5640 2.15058   8
  -1  12  -7 26.4342 3.09758   9
  -2  12  -7 1.91790 1.08418   9
  -7   0   8 16.1067 4.11206  13
  -7   0   8 13.5665 2.98519  14
  -7   0   8 9.69918 2.73916  15
  -6   0   8 22.2878 4.59909  13
  -6   0   8 12.2288 3.37005  15
  -6   0   8 14.4099 3.50222  14
  -6   0   8 14.4797 3.97188  12
  -5   0   8 13.9636 4.96308  13
  -5   0   8 8.40679 3.05009  15
  -5   0   8 8.91480 10.1367   5
  -5   0   8 10.9465 2.99222  12
  -5   0   8 9.01839 3.89373  14
  -5   0   8 7.54336 1.07727  10
  -4   0   8 23.2473 9.15241   5
  -4   0   8 35.1279 4.56302  15
  -4   0   8 33.3419 4.88786  14
  -4   0   8 23.1276 7.62765   6
  -4   0   8 33.7672 4.89644  12
  -4   0   8 29.9495 5.72419  13
  -4   0   8 24.8281 3.46928  10
  -3   0   8 88.2190 10.7136   6
  -3   0   8 67.3592 8.41311   2
  -3   0   8 68.0078 12.3354   5
  -3   0   8 69.4399 9.16879   3
  -2   0   8 127.651 13.8503   3
  -2   0   8 120.140 15.3115   5
  -2   0   8 105.096 12.9546   2
  -2   0   8 110.482 13.6078   6
   1   0  -8 505.238 39.3302   1
  -1   0   8 523.481 49.1276   3
   1   0  -8 476.407 39.2187   1
  -1   0   8 430.443 39.2432   1
  -1   0   8 472.884 46.2244   2
  -1   0   8 465.981 39.3411   1
  -1   0   8 524.385 50.7294   5
   0   0   8 841.276 92.3418   5
   0   0   8 859.164 72.3842   1
   0   0   8 884.159 72.3524   1
   0   0  -8 901.422 72.2120   1
   0   0  -8 905.868 84.9625   2
   0   0   8 904.919 85.2312   2
   0   0   8 961.085 90.3827   3
   0   0  -8 962.857 72.2405   1
   0   0  -8 994.010 90.0978   3
   1   0   8 108.928 15.6160   2
  -1   0  -8 133.735 12.3594   1
  -1   0  -8 156.633 15.5064   2
   1   0   8 133.104 12.9460   1
   1   0   8 124.381 13.2297   1
   1   0   8 114.660 15.5822   3
  -1   0  -8 154.654 15.4532   3
  -1   0  -8 143.126 12.8666   1
  -1   0  -8 145.126 15.5089   7
  -2   0  -8 171.958 18.1603   3
  -2   0  -8 166.735 17.4699   2
  -2   0  -8 165.682 18.8636   7
  -2   0  -8 149.358 19.6788   4
  -3   0  -8 34.3729 6.81809   2
  -3   0  -8 37.2497 7.76045   7
  -3   0  -8 31.6724 5.89912   3
  -3   0  -8 33.7531 8.93459   4
  -4   0  -8 2.84294 8.88492   4
  -4   0  -8 6.79750 5.37643   2
  -4   0  -8 7.02561 2.09224  10
  -4   0  -8 5.60479 3.35887   3
  -4   0  -8 5.93359 1.92924   9
  -4   0  -8 -0.2270 6.28073   7
  -4   0  -8 7.63457 3.29071  18
  -4   0  -8 4.91818 3.40399  11
  -4   0  -8 1.95275 2.76639  17
  -5   0  -8 21.9096 4.39974  17
  -5   0  -8 24.6990 5.39736  11
  -5   0  -8 25.9096 4.81250  18
  -5   0  -8 30.3888 13.2049   4
  -5   0  -8 18.6360 3.47277  10
  -6   0  -8 62.1044 8.51632  11
  -6   0  -8 61.8930 8.30086  17
  -6   0  -8 64.6877 8.29470  18
  -7   0  -8 15.5342 3.34016  17
  -7   0  -8 19.3191 3.54467  18
  -7   0  -8 20.2133 4.10897  11
  -7  -1   8 16.2021 3.77008  14
  -7  -1   8 11.2345 3.82485  13
  -7   1   8 5.80393 5.07743  13
  -7   1   8 16.5979 2.72948  15
  -7   1   8 16.9932 3.15033  14
  -6  -1   8 7.69391 2.93030  14
  -6  -1   8 0.17820 3.43834  12
  -6  -1   8 8.62469 5.01011  13
  -6  -1   8 2.78331 2.65044  15
  -6   1   8 5.15695 3.72389  13
  -6   1   8 5.71358 3.15595  15
  -6   1   8 5.11450 3.51900  14
  -5  -1   8 5.67051 4.89647  13
  -5  -1   8 6.30213 3.58899  12
  -5  -1   8 1.81149 10.0499   5
  -5  -1   8 9.47801 3.95213  14
  -5  -1   8 8.64879 1.37876  10
  -5  -1   8 9.33351 2.99505  15
  -5   1   8 7.42190 3.16825  15
  -5   1   8 12.9612 5.39893  13
  -5   1   8 6.08172 3.76754  12
  -5   1   8 -0.0317 8.20031   6
  -5   1   8 9.65294 3.68709  14
  -4  -1   8 29.6156 4.61857  12
  -4  -1   8 29.4572 8.77242   6
  -4  -1   8 25.9486 9.44087   5
  -4  -1   8 22.1935 4.62761  14
  -4  -1   8 32.4025 3.59413  10
  -4  -1   8 26.0871 4.03861  15
  -4  -1   8 26.1449 5.51933  13
  -4   1   8 25.9697 3.25911  10
  -4   1   8 19.2191 4.16069  16
  -4   1   8 33.8331 5.83372  13
  -4   1   8 27.6253 4.56751  14
  -4   1   8 7.97489 7.18999   5
  -4   1   8 35.4850 4.38082  15
  -4   1   8 27.3294 7.77943   6
  -4   1   8 35.5123 4.88752  12
  -3  -1   8 11.2083 3.70651   3
  -3  -1   8 13.9369 6.08644   6
  -3  -1   8 10.2855 4.15873   2
  -3  -1   8 2.44443 5.99296   5
  -3   1   8 10.1029 4.97197   6
  -3   1   8 9.01016 4.07898   3
  -3   1   8 12.5817 3.44238   2
  -3   1   8 3.97848 6.06337   5
  -2  -1   8 9.80055 5.95473   5
  -2  -1   8 10.5988 5.28321   6
  -2  -1   8 7.11336 3.39396   3
  -2  -1   8 9.16221 4.25484   2
  -2   1   8 4.65294 3.75695   2
  -2   1   8 5.57019 3.82996   6
  -2   1   8 3.20781 4.93397   5
  -2   1   8 7.12224 3.48160   3
  -1  -1   8 42.6828 6.41166   1
  -1  -1   8 32.7081 5.76322   1
  -1  -1   8 69.5257 9.12042   5
  -1  -1   8 67.8853 8.44325   3
  -1  -1   8 55.4143 8.08810   2
   1  -1  -8 54.1299 6.73854   1
  -1   1   8 70.1397 10.0033   5
  -1   1   8 51.2199 6.40327   1
  -1   1   8 51.8967 6.67050   1
  -1   1   8 64.9288 8.42034   2
   1   1  -8 31.7161 5.59758   1
  -1   1   8 67.7234 8.94841   3
   0  -1   8 78.4514 10.1690   5
   0  -1  -8 91.8102 10.8863   2
   0  -1   8 76.0433 8.88467   1
   0  -1  -8 86.1253 8.99505   1
   0  -1   8 94.5512 10.8850   2
   0  -1   8 89.2230 9.24712   1
   0  -1  -8 95.0989 11.2964   3
   0  -1  -8 80.8032 9.01994   1
   0  -1   8 91.5274 10.9585   3
   0   1   8 92.0739 11.8272   3
   0   1  -8 92.0059 10.4702   3
   0   1  -8 69.3966 9.37653   7
   0   1  -8 74.2392 10.0568   2
   0   1   8 79.8397 9.09570   1
   0   1   8 82.6534 9.00791   1
   0   1  -8 82.4220 8.59879   1
   0   1  -8 78.2100 8.64591   1
   0   1   8 82.1544 10.6131   2
  -1  -1  -8 15.6432 4.83756   2
   1  -1   8 9.15316 4.46954   1
  -1  -1  -8 15.2343 4.41977   3
  -1  -1  -8 11.8804 3.74662   1
  -1  -1  -8 7.69397 3.15102   1
   1  -1   8 8.76415 4.21134   1
   1   1   8 11.3760 3.85189   1
  -1   1  -8 15.0621 4.29759   7
  -1   1  -8 10.2803 3.49611   1
   1   1   8 13.8672 5.10237   2
  -1   1  -8 10.9299 3.94234   1
  -1   1  -8 17.4120 4.36757   2
   1   1   8 11.9533 5.19794   3
   1   1   8 7.36726 3.58081   1
  -1   1  -8 12.3009 4.19218   3
  -2  -1  -8 1.53848 3.79868   7
  -2  -1  -8 1.41302 4.92368   4
  -2  -1  -8 3.07967 3.91498   2
  -2  -1  -8 0.25763 3.21656   3
  -2   1  -8 -0.3894 2.93842   3
  -2   1  -8 -0.0273 3.62674   7
  -2   1  -8 3.85904 4.30624   2
  -3  -1  -8 5.44702 6.96118   4
  -3  -1  -8 7.41615 3.88931   3
  -3  -1  -8 12.7116 4.50102   2
  -3  -1  -8 15.2296 5.91463   7
  -3   1  -8 6.61016 7.87650   4
  -3   1  -8 8.78012 3.94919   3
  -3   1  -8 7.27524 5.89830   7
  -3   1  -8 4.57533 4.50504   2
  -4  -1  -8 65.3380 9.24488  11
  -4  -1  -8 66.2954 7.09551   9
  -4  -1  -8 60.0698 10.0188   2
  -4  -1  -8 75.6392 8.59254  17
  -4  -1  -8 68.3664 8.64501  18
  -4  -1  -8 79.3023 14.9314   4
  -4  -1  -8 76.1858 7.53741  10
  -4  -1  -8 60.2365 8.48957  12
  -4  -1  -8 67.0898 9.31977   3
  -4   1  -8 64.0538 10.1290   2
  -4   1  -8 66.9869 9.05389   3
  -4   1  -8 69.2549 8.43288  17
  -4   1  -8 69.7464 12.4673   7
  -4   1  -8 82.9740 7.47456  10
  -4   1  -8 72.7526 8.86168  18
  -4   1  -8 72.7841 8.90559  11
  -4   1  -8 65.8801 13.3183   4
  -4   1  -8 67.0371 6.95381   9
  -4   1  -8 92.5939 8.50110  16
  -5  -1  -8 11.2222 2.53676  10
  -5  -1  -8 10.7407 4.59190  11
  -5  -1  -8 10.4725 3.95560  18
  -5  -1  -8 -1.3983 15.8079   4
  -5  -1  -8 7.35895 3.69086  17
  -5   1  -8 10.3709 9.76276   7
  -5   1  -8 4.88446 3.79300  11
  -5   1  -8 10.5268 3.60469  17
  -5   1  -8 14.0110 4.22159  18
  -5   1  -8 14.2478 2.77336  10
  -6  -1  -8 2.15227 2.85759  18
  -6  -1  -8 -1.7578 4.60890  11
  -6  -1  -8 7.56104 3.78406  17
  -6   1  -8 3.14882 2.96312  18
  -6   1  -8 4.91369 2.53410  17
  -6   1  -8 4.25286 3.70391  11
  -7  -1  -8 0.63620 3.65851  11
  -7  -1  -8 4.41173 2.50142  18
  -7   1  -8 5.84553 2.15163  11
  -7   1  -8 6.15968 2.42908  18
  -7   1  -8 2.80314 2.32598  17
  -7  -2   8 2.34004 3.32601  13
  -7  -2   8 1.87959 2.98339  14
  -7   2   8 2.30189 3.03106  14
  -7   2   8 2.87207 2.48602  15
  -6  -2   8 7.80321 4.94315  13
  -6  -2   8 14.8638 4.52501  14
  -6  -2   8 11.4052 3.79406  12
  -6   2   8 15.7915 4.33965  13
  -6   2   8 11.9566 3.19879  14
  -6   2   8 16.2535 3.52473  15
  -6   2   8 10.9008 4.14934  16
  -5  -2   8 83.5271 9.68154  14
  -5  -2   8 67.6253 7.14197  10
  -5  -2   8 65.0231 9.62660  13
  -5  -2   8 75.7774 9.31616  12
  -5  -2   8 48.0317 15.3527   5
  -5   2   8 74.2193 9.12896  16
  -5   2   8 83.7444 8.66954  15
  -5   2   8 92.1843 9.47387  14
  -5   2   8 70.2429 10.4074  13
  -5   2   8 84.9194 14.6520   6
  -4  -2   8 53.8621 5.54718  10
  -4  -2   8 47.3424 6.17231  15
  -4  -2   8 53.2235 12.1711   5
  -4  -2   8 47.8819 7.30509  13
  -4  -2   8 51.9152 6.58384  12
  -4  -2   8 46.1649 6.72942  14
  -4   2   8 52.2277 6.39840  15
  -4   2   8 53.1074 6.60235  14
  -4   2   8 43.0679 6.28913  16
  -4   2   8 54.2707 5.36643  10
  -4   2   8 56.1816 7.95357  13
  -4   2   8 42.2922 9.68959   6
  -3  -2   8 19.8397 4.11521  14
  -3  -2   8 23.2858 8.10801   5
  -3  -2   8 22.6010 6.04017   6
  -3  -2   8 25.4139 3.16136   9
  -3  -2   8 20.6158 4.71035   3
  -3  -2   8 32.3943 3.68522  10
  -3  -2   8 21.7974 5.33368   2
  -3   2   8 24.0613 2.91594   9
  -3   2   8 34.3084 5.43792  13
  -3   2   8 18.0464 6.04548   6
  -3   2   8 20.0652 4.67567   2
  -3   2   8 25.4625 3.63764  15
  -3   2   8 26.7612 5.63431   3
  -3   2   8 28.5511 3.29462  10
  -2  -2   8 88.2321 13.0710   5
  -2  -2   8 87.4889 12.0209   6
  -2  -2   8 70.0264 10.8393   2
  -2  -2   8 84.5786 10.4204   3
  -2   2   8 80.1321 10.2840   2
  -2   2   8 94.7313 11.5963   3
  -2   2   8 82.2302 10.9900   6
  -1  -2   8 293.524 31.1028   5
   1  -2  -8 245.905 24.0957   1
  -1  -2   8 300.729 30.1832   3
  -1  -2   8 308.209 28.8187   2
  -1  -2   8 268.566 24.4577   1
  -1   2   8 269.876 24.2402   1
   1   2  -8 274.880 24.1837   1
  -1   2   8 303.918 30.0843   3
  -1   2   8 300.327 29.6653   6
  -1   2   8 310.408 28.7447   2
   0  -2   8 42.1283 7.24581   2
   0  -2  -8 44.3553 7.95464   3
   0  -2   8 46.7239 6.95899   5
   0  -2  -8 39.9597 6.41860   1
   0  -2  -8 38.5695 7.17618   2
   0  -2   8 54.0538 8.14951   3
   0  -2   8 33.0298 5.90675   1
   0  -2  -8 31.0174 5.86957   1
   0  -2   8 31.7754 5.97407   1
   0   2  -8 39.6117 5.55276   1
   0   2   8 47.5205 6.40192   1
   0   2  -8 41.1461 5.85244   7
   0   2  -8 38.2651 5.81509   1
   0   2   8 51.9069 8.12987   3
   0   2  -8 34.8725 6.49882   2
   0   2   8 40.5400 7.08351   2
   0   2   8 49.3349 6.05807   1
   0   2  -8 48.4373 7.45662   3
   1  -2   8 48.8546 7.84466   1
  -1  -2  -8 94.1800 10.6142   4
  -1  -2  -8 59.3201 7.65199   1
  -1  -2  -8 71.7953 8.19524   1
  -1  -2  -8 88.9071 10.2254   3
  -1  -2  -8 97.3539 10.6483   2
  -1   2  -8 64.9166 8.96502   2
   1   2   8 48.7225 7.60084   1
  -1   2  -8 65.7851 8.04399   1
  -1   2  -8 68.7746 9.53113   3
  -1   2  -8 68.6915 9.13364   7
  -1   2  -8 55.8629 7.46429   1
  -2  -2  -8 18.0279 5.58127   2
  -2  -2  -8 18.9227 6.57728   4
  -2  -2  -8 23.9234 5.77882   3
  -2   2  -8 35.4328 6.36894   2
  -2   2  -8 28.0970 5.34160   3
  -2   2  -8 34.6913 6.42181   7
  -3  -2  -8 108.372 15.0996   4
  -3  -2  -8 81.7562 7.39157   8
  -3  -2  -8 77.5474 8.29768   9
  -3  -2  -8 103.128 12.7235   2
  -3  -2  -8 100.707 11.3607   3
  -3  -2  -8 81.2592 9.76250  11
  -3   2  -8 97.0442 10.5325   3
  -3   2  -8 89.7045 8.34393  10
  -3   2  -8 121.567 15.5429   4
  -3   2  -8 89.4747 12.8226   7
  -3   2  -8 84.0421 9.31656  18
  -3   2  -8 73.2228 7.25431   8
  -3   2  -8 79.8090 7.91933   9
  -3   2  -8 91.3900 11.0427   2
  -4  -2  -8 78.9898 9.53264  18
  -4  -2  -8 60.8178 14.6783   4
  -4  -2  -8 83.0006 10.7161   3
  -4  -2  -8 84.1891 8.59953  10
  -4  -2  -8 79.8866 10.3358  11
  -4  -2  -8 87.0241 9.69895  17
  -4  -2  -8 80.9854 10.2707  12
  -4   2  -8 80.3699 9.32960  17
  -4   2  -8 65.1974 13.4927   4
  -4   2  -8 81.2301 10.0014  11
  -4   2  -8 84.6287 7.81636   9
  -4   2  -8 83.9560 9.39918  16
  -4   2  -8 80.1904 10.1743   3
  -4   2  -8 84.0802 9.92890  18
  -4   2  -8 80.1699 11.1088   2
  -4   2  -8 81.2114 8.10884  10
  -4   2  -8 100.650 14.6063   7
  -5  -2  -8 11.0110 3.99364  12
  -5  -2  -8 21.7235 4.46531  17
  -5  -2  -8 19.0588 4.26114  18
  -5  -2  -8 22.4664 3.60528  10
  -5  -2  -8 13.5414 5.31880  11
  -5  -2  -8 19.0037 14.0159   4
  -5   2  -8 9.65196 3.82870  11
  -5   2  -8 12.4578 3.81093  16
  -5   2  -8 21.6937 4.82072  18
  -5   2  -8 12.2895 10.3742   7
  -5   2  -8 13.7173 3.85742  17
  -5   2  -8 21.3861 2.93460  10
  -6  -2  -8 31.9074 5.44694  12
  -6  -2  -8 37.8246 5.35103  18
  -6   2  -8 37.4763 5.47694  11
  -6   2  -8 41.2368 6.39839  18
  -6   2  -8 42.7749 5.29211  17
  -7  -2  -8 -0.6535 2.67843  11
  -7  -2  -8 5.04661 2.37418  18
  -7   2  -8 2.04042 2.28844  17
  -7   2  -8 3.91791 2.45746  18
  -7  -3   8 13.0167 2.70808  12
  -7  -3   8 7.93554 2.43107  14
  -7  -3   8 6.86093 4.70657  13
  -7   3   8 9.26301 2.24503  15
  -7   3   8 15.0213 2.81196  14
  -6  -3   8 1.48284 3.81813  14
  -6  -3   8 -6.4030 4.63467  13
  -6  -3   8 3.96753 3.37965  12
  -6   3   8 0.52528 2.48655  14
  -6   3   8 2.95539 2.78350  15
  -6   3   8 -3.2392 3.80816  16
  -5  -3   8 -0.9815 3.10316  13
  -5  -3   8 8.04842 4.28992  14
  -5  -3   8 5.49155 1.77030  10
  -5  -3   8 5.12091 3.43460  12
  -5  -3   8 1.56501 8.17552   5
  -5   3   8 2.67044 2.57283  14
  -5   3   8 3.70184 1.14012  10
  -5   3   8 5.16108 9.45254   6
  -5   3   8 -8.3914 3.53984  16
  -5   3   8 13.6089 5.62036  13
  -5   3   8 2.55022 2.85958  15
  -4  -3   8 1.66492 2.71949  12
  -4  -3   8 3.14312 3.24926   3
  -4  -3   8 -4.6709 3.85334   2
  -4  -3   8 4.66488 3.89257  13
  -4  -3   8 3.42084 3.67450  14
  -4  -3   8 3.95725 1.18150   9
  -4  -3   8 1.18860 2.16456  10
  -4  -3   8 3.13196 8.47939   5
  -4   3   8 3.05073 2.47750  15
  -4   3   8 -1.2422 6.71207   6
  -4   3   8 5.41762 4.70217  13
  -4   3   8 -1.9855 2.75180  14
  -4   3   8 13.1134 3.39583  16
  -4   3   8 2.95797 1.77449  10
  -3  -3   8 118.292 12.4007  14
  -3  -3   8 124.620 11.2467  10
  -3  -3   8 106.850 13.6289   2
  -3  -3   8 121.292 13.5671   3
  -3  -3   8 119.349 17.4571   5
  -3  -3   8 111.691 10.5971   9
  -3  -3   8 120.605 13.2413  13
  -3  -3   8 104.786 12.1950  12
  -3   3   8 107.564 10.4030   9
  -3   3   8 110.392 12.1747  16
  -3   3   8 107.135 11.9437  14
  -3   3   8 122.811 12.5812   2
  -3   3   8 119.722 10.9296  10
  -3   3   8 120.038 15.0514   6
  -3   3   8 117.544 14.6185   3
  -3   3   8 131.504 13.8948  13
  -3   3   8 102.658 11.4614  15
  -2  -3   8 32.5493 6.98737   2
  -2  -3   8 31.1759 8.11670   5
  -2  -3   8 24.6737 6.21571   3
  -2   3   8 31.7866 6.76950   6
  -2   3   8 28.3332 6.25675   2
  -2   3   8 34.6808 6.83641   3
  -1  -3   8 609.361 58.3310   2
  -1  -3   8 607.045 61.4130   3
  -1  -3   8 615.143 63.5633   5
  -1   3   8 589.296 60.3433   6
  -1   3   8 618.951 58.2209   2
  -1   3   8 639.625 61.5094   3
   0  -3  -8 7.68858 6.14823   3
   0  -3   8 2.28495 4.07524   2
   0  -3   8 2.74421 4.43905   1
   0  -3  -8 -7.1232 4.48594   2
   0  -3  -8 -6.6907 4.25227   1
   0  -3   8 1.58420 3.71866   1
   0  -3   8 3.26590 3.99464   5
   0  -3   8 3.47126 3.93259   3
   0   3  -8 0.35146 3.81539   2
   0   3  -8 0.11970 3.01285   7
   0   3   8 4.63397 4.27284   2
   0   3   8 3.42419 4.69218   3
   0   3  -8 5.93111 3.83224   1
   0   3   8 3.95064 3.96518   1
   0   3  -8 4.17204 3.67591   3
   0   3   8 -0.6315 3.47744   1
   0   3   8 1.17327 3.19412   6
  -1  -3  -8 289.769 27.6363   3
  -1  -3  -8 253.830 22.4169   1
  -1  -3  -8 261.615 25.8769   2
  -1  -3  -8 266.148 27.2607   4
  -1   3  -8 220.709 21.1846   1
   1   3   8 208.807 21.6613   1
  -1   3  -8 252.523 25.0347   2
  -1   3  -8 256.689 26.2814   3
  -1   3  -8 226.593 26.5286   7
  -2  -3  -8 3.24293 5.51699   4
  -2  -3  -8 8.81847 4.79051   3
  -2  -3  -8 5.95242 6.51607   2
  -2   3  -8 7.10071 4.47731   3
  -2   3  -8 4.31126 4.70612   7
  -2   3  -8 5.61294 4.70495   2
  -3  -3  -8 140.448 13.7380  10
  -3  -3  -8 142.606 15.0963  11
  -3  -3  -8 141.438 16.5336   3
  -3  -3  -8 160.098 20.2060   4
  -3  -3  -8 136.866 11.9986   8
  -3  -3  -8 140.535 13.2132   9
  -3  -3  -8 137.745 16.6527   2
  -3   3  -8 141.965 12.9005   9
  -3   3  -8 154.881 18.4708   7
  -3   3  -8 149.275 14.5941  18
  -3   3  -8 134.163 14.4706  16
  -3   3  -8 145.516 16.2544   3
  -3   3  -8 143.830 11.8293   8
  -3   3  -8 131.119 18.7036   4
  -3   3  -8 144.955 13.4689  10
  -3   3  -8 149.883 15.8283   2
  -3   3  -8 127.885 14.5837  17
  -4  -3  -8 7.82522 2.88340  10
  -4  -3  -8 13.1718 3.41260  18
  -4  -3  -8 7.34946 3.95010  11
  -4  -3  -8 8.84105 3.92123  12
  -4  -3  -8 -0.3849 7.30185   2
  -4  -3  -8 6.89402 5.40262   3
  -4  -3  -8 19.0311 10.6164   4
  -4  -3  -8 6.79500 2.13363   9
  -4   3  -8 6.16511 4.45021   3
  -4   3  -8 11.6839 3.12167  16
  -4   3  -8 0.39341 4.98840   2
  -4   3  -8 8.03940 2.14459  10
  -4   3  -8 12.1024 3.78780  18
  -4   3  -8 11.3747 2.00115   9
  -4   3  -8 7.35601 2.85135  11
  -4   3  -8 9.31477 3.01211  17
  -4   3  -8 4.24995 7.86422   7
  -5  -3  -8 3.06460 14.6148   4
  -5  -3  -8 23.4069 3.72822  10
  -5  -3  -8 23.2216 5.08677  12
  -5  -3  -8 16.2228 4.62433  11
  -5  -3  -8 20.7066 4.60956  18
  -5   3  -8 25.4318 5.19705  18
  -5   3  -8 16.2450 3.99257  17
  -5   3  -8 19.1611 3.06488  10
  -5   3  -8 19.5469 3.84857  11
  -5   3  -8 28.0945 4.38045  16
  -5   3  -8 16.6238 11.3548   7
  -6  -3  -8 1.44188 3.29281  12
  -6  -3  -8 -0.8020 3.55769  18
  -6   3  -8 -0.7015 3.09469  18
  -6   3  -8 -1.8522 2.39950  17
  -7  -3  -8 3.99255 2.59389  11
  -7  -3  -8 4.71233 2.19164  18
  -7   3  -8 1.23811 2.01941  17
  -7   3  -8 2.25713 2.37118  18
  -7  -4   8 1.03609 2.09141  12
  -7  -4   8 4.70106 4.46532  13
  -7   4   8 5.33375 1.60211  15
  -7   4   8 2.64812 2.76545  16
  -6  -4   8 6.82849 4.66852  13
  -6  -4   8 -4.3802 3.61522  14
  -6  -4   8 7.26706 3.36770  12
  -6   4   8 -1.8017 3.79912  16
  -6   4   8 0.11389 2.43772  15
  -6   4   8 1.78936 2.55166  14
  -5  -4   8 13.2450 4.88720  14
  -5  -4   8 19.0664 5.35623  13
  -5  -4   8 14.8192 2.57394  10
  -5  -4   8 13.7354 4.07216  12
  -5   4   8 18.4385 2.17549  10
  -5   4   8 17.4683 4.16972  14
  -5   4   8 23.2702 3.84842  15
  -5   4   8 14.2842 4.58000  16
  -4  -4   8 3.53519 4.06519  14
  -4  -4   8 7.27402 4.12577  13
  -4  -4   8 6.60475 9.89356   5
  -4  -4   8 6.13337 2.34777  10
  -4  -4   8 10.3409 3.33605  12
  -4  -4   8 -3.3092 5.37522   2
  -4  -4   8 3.07640 4.31229   3
  -4  -4   8 6.65582 1.80413   9
  -4   4   8 9.71882 2.83617  15
  -4   4   8 11.3245 1.99826  10
  -4   4   8 11.9880 3.61761  16
  -4   4   8 5.70486 3.11207  14
  -4   4   8 8.69806 8.10335   6
  -3  -4   8 51.0947 6.41511  13
  -3  -4   8 32.1534 10.0780   5
  -3  -4   8 43.1302 7.64794   3
  -3  -4   8 30.6651 5.22490  12
  -3  -4   8 45.3752 4.85259   9
  -3  -4   8 37.4202 3.68457   8
  -3  -4   8 40.2563 6.18109  14
  -3  -4   8 41.5835 8.43287   2
  -3  -4   8 43.7739 4.99521  10
  -3   4   8 66.0348 11.1486   6
  -3   4   8 40.9234 5.41586  14
  -3   4   8 49.9657 5.89386  16
  -3   4   8 32.8196 4.26112   9
  -3   4   8 47.6350 7.05160   2
  -3   4   8 40.9878 5.10997  15
  -3   4   8 43.2843 8.05524   3
  -3   4   8 54.0995 5.14346  10
  -2  -4   8 9.55805 2.23345   8
  -2  -4   8 12.8356 5.60472   3
  -2  -4   8 14.7739 7.53169   5
  -2  -4   8 10.4940 5.87152   2
  -2   4   8 9.70036 2.22144   9
  -2   4   8 17.5649 5.71487   3
  -2   4   8 9.33821 4.95314   2
  -2   4   8 11.5479 1.71855   8
  -2   4   8 13.2098 5.37260   6
  -1  -4   8 86.5760 11.8332   3
  -1  -4   8 61.4812 10.4638   2
  -1  -4   8 83.7667 12.6104   5
  -1   4   8 96.3815 11.0812   2
  -1   4   8 84.7260 10.8371   6
  -1   4   8 80.2195 11.3115   3
   0  -4  -8 -2.2165 4.00900   4
   0  -4   8 -2.4953 4.89974   3
   0  -4   8 -2.4677 4.32248   5
   0  -4   8 3.21685 4.50857   2
   0   4   8 2.97599 3.23470   6
   0   4   8 -2.7442 5.39082   2
   0   4  -8 -0.0271 3.66700   7
   0   4   8 -0.4634 3.98121   3
  -1  -4  -8 302.938 33.1918   2
  -1  -4  -8 290.457 34.4954   3
  -1  -4  -8 316.212 35.0491   4
  -1   4  -8 339.311 34.7762   7
  -1   4  -8 346.690 33.9152   3
  -1   4  -8 338.646 32.4028   2
  -2  -4  -8 21.2594 3.13703   8
  -2  -4  -8 22.7303 8.06484   3
  -2  -4  -8 16.3800 7.00024   4
  -2  -4  -8 20.9835 7.29812   2
  -2   4  -8 20.6064 2.64422   8
  -2   4  -8 22.6195 5.51135   3
  -2   4  -8 29.9954 8.18196   7
  -2   4  -8 23.7539 6.80064   2
  -3  -4  -8 10.8129 3.37417  11
  -3  -4  -8 16.9403 9.68762   4
  -3  -4  -8 6.33944 1.81034   8
  -3  -4  -8 16.1625 3.37185  10
  -3  -4  -8 10.3486 5.52284   3
  -3   4  -8 7.30779 6.48098   7
  -3   4  -8 9.18450 1.54822   8
  -3   4  -8 6.53312 2.50551  16
  -3   4  -8 6.06460 5.40928   2
  -3   4  -8 12.0929 3.23286  18
  -3   4  -8 7.45187 4.98534   3
  -3   4  -8 10.3774 2.87389  17
  -3   4  -8 5.47630 2.11229  10
  -3   4  -8 5.78055 1.79690   9
  -4  -4  -8 37.3482 9.50480   2
  -4  -4  -8 40.0345 4.69374   9
  -4  -4  -8 51.5201 7.05974  12
  -4  -4  -8 32.3624 6.01253  11
  -4  -4  -8 23.5649 12.0477   4
  -4  -4  -8 33.7791 5.44772  18
  -4  -4  -8 41.9242 5.35976  10
  -4  -4  -8 32.5038 7.58417   3
  -4   4  -8 43.5773 4.43010   9
  -4   4  -8 41.6481 6.00753  18
  -4   4  -8 39.7557 5.59031  17
  -4   4  -8 35.9676 7.98969   2
  -4   4  -8 43.2792 4.83921  10
  -4   4  -8 35.1035 5.29786  16
  -4   4  -8 35.7697 10.3919   7
  -5  -4  -8 73.2865 8.32291  10
  -5  -4  -8 76.6732 10.3154  11
  -5  -4  -8 83.4438 10.4533  12
  -5  -4  -8 69.6573 9.27986  18
  -5   4  -8 71.2764 7.53835  10
  -5   4  -8 79.1554 9.19846  17
  -5   4  -8 78.8535 8.99750  16
  -5   4  -8 88.0160 10.3553  18
  -6  -4  -8 21.4269 2.51784  10
  -6  -4  -8 7.70604 4.90376  11
  -6  -4  -8 20.2315 4.80646  12
  -6  -4  -8 22.5460 3.65450  18
  -6   4  -8 20.0915 4.15276  18
  -6   4  -8 19.2525 3.48117  17
  -7  -4  -8 1.33707 2.16995  11
  -7  -4  -8 -0.7758 1.67365  12
  -7   4  -8 1.39686 3.01668  18
  -7   4  -8 -0.3870 1.80319  17
  -7  -5   8 2.55437 2.95981  13
  -7   5   8 0.55328 1.31694  15
  -6  -5   8 1.10140 2.28271  12
  -6  -5   8 -0.3637 4.66362  13
  -6  -5   8 5.56128 3.69247  14
  -6   5   8 4.95229 2.46659  14
  -6   5   8 0.95156 3.55988  16
  -6   5   8 0.09421 2.39039  15
  -5  -5   8 0.45429 3.30493  13
  -5  -5   8 0.06238 3.28180  12
  -5  -5   8 -3.0708 2.98608  14
  -5  -5   8 0.84822 1.85249  10
  -5   5   8 -0.6065 3.72579  16
  -5   5   8 1.81792 1.45228  10
  -5   5   8 -0.2879 3.52827  14
  -5   5   8 -2.7127 2.39913  15
  -4  -5   8 3.41096 1.76619   9
  -4  -5   8 -0.2237 10.8326   5
  -4  -5   8 3.34931 3.18374  12
  -4  -5   8 10.6832 2.91225  10
  -4  -5   8 4.38396 3.26612  14
  -4  -5   8 2.66682 4.06133  13
  -4   5   8 6.33379 9.05347   6
  -4   5   8 0.94187 3.28101  14
  -4   5   8 6.56758 2.60836  15
  -4   5   8 4.16414 0.91464   9
  -4   5   8 2.41404 3.32845  16
  -3  -5   8 5.01199 1.41470   8
  -3  -5   8 -2.7702 5.45880   3
  -3  -5   8 9.22894 7.05417   2
  -3  -5   8 6.85987 2.46018  10
  -3  -5   8 5.51169 4.10316  14
  -3  -5   8 10.4895 8.77533   5
  -3  -5   8 4.67438 2.06628   9
  -3  -5   8 6.03009 3.56736  13
  -3   5   8 2.18775 2.78847  14
  -3   5   8 4.58659 1.58566   9
  -3   5   8 0.43984 5.34663   3
  -3   5   8 5.29698 5.21285   2
  -3   5   8 -2.3198 2.56838  16
  -3   5   8 8.21802 2.57796  10
  -3   5   8 4.42094 2.31527  15
  -3   5   8 11.0046 7.03869   6
  -2  -5   8 13.3746 7.48638   5
  -2  -5   8 15.9544 7.01177   2
  -2  -5   8 11.1683 2.13444   8
  -2  -5   8 12.4774 3.45985  13
  -2  -5   8 8.67694 2.63648   9
  -2  -5   8 6.11021 2.68752  10
  -2  -5   8 11.1390 6.26279   3
  -2   5   8 11.8689 6.34425   3
  -2   5   8 10.1489 2.49277  15
  -2   5   8 4.95467 5.86622   2
  -2   5   8 12.0197 2.32260   9
  -2   5   8 14.5671 1.91797   8
  -2   5   8 16.1265 6.00489   6
  -2   5   8 13.7355 2.82305  10
  -1  -5   8 -3.8842 4.42836   3
  -1  -5   8 -1.0099 4.80891   5
  -1  -5   8 -5.5640 6.22587   2
  -1   5   8 0.36478 1.41319   8
  -1   5   8 -2.7205 3.99513   6
  -1   5   8 4.10351 5.03164   2
  -1   5   8 4.52665 5.72884   3
   0  -5   8 0.68787 5.62245   5
   0   5   8 -5.7330 4.89937   2
   0   5  -8 -0.7215 3.85013   7
   0   5   8 1.14006 5.99004   3
   0   5   8 -1.7843 4.57869   6
  -1  -5  -8 -7.8800 4.68423   4
  -1  -5  -8 -3.4247 6.22489   3
  -1  -5  -8 -1.0928 8.71360   2
  -1   5  -8 -3.8713 4.41425   7
  -1   5  -8 4.21420 6.20240   2
  -1   5  -8 -5.7814 5.25299   3
  -2  -5  -8 43.6719 11.0656   4
  -2  -5  -8 33.7976 10.6885   3
  -2  -5  -8 43.0446 4.68264   8
  -2   5  -8 45.6403 5.41514  10
  -2   5  -8 45.8143 9.85462   7
  -2   5  -8 40.1610 8.92630   3
  -2   5  -8 43.5701 4.57941   8
  -2   5  -8 41.2008 5.12170   9
  -2   5  -8 40.0536 8.44902   2
  -3  -5  -8 13.0413 3.17498   9
  -3  -5  -8 7.63033 8.57830   4
  -3  -5  -8 22.9540 3.95062  10
  -3  -5  -8 18.2704 4.48572  11
  -3  -5  -8 13.2360 8.78990   2
  -3  -5  -8 9.40297 6.64331   3
  -3  -5  -8 11.9457 2.59504   8
  -3   5  -8 7.68825 5.42345   2
  -3   5  -8 15.5929 3.74773  18
  -3   5  -8 16.4496 8.47657   7
  -3   5  -8 15.2011 3.33537  17
  -3   5  -8 11.6233 6.46704   3
  -3   5  -8 16.7105 2.92870  10
  -3   5  -8 11.4688 2.38377   9
  -3   5  -8 15.1400 1.86124   8
  -4  -5  -8 4.96185 2.92131   9
  -4  -5  -8 3.73529 3.83854  11
  -4  -5  -8 6.97789 3.33618  10
  -4  -5  -8 8.61387 11.4057   4
  -4  -5  -8 0.11432 4.61864  12
  -4   5  -8 6.88358 2.30080  10
  -4   5  -8 3.27732 1.78834   9
  -4   5  -8 2.58306 6.86824   7
  -4   5  -8 9.22191 3.79059  18
  -4   5  -8 7.16609 3.16152  17
  -4   5  -8 1.64564 2.74788  16
  -5  -5  -8 -0.5555 3.34541  18
  -5  -5  -8 2.15808 3.30721  12
  -5  -5  -8 1.76763 3.05689  10
  -5   5  -8 2.01943 2.82986  16
  -5   5  -8 0.46323 2.92659  18
  -5   5  -8 4.52515 1.76341  10
  -5   5  -8 1.23486 3.22451  17
  -6  -5  -8 0.26625 3.70426  11
  -6  -5  -8 1.52637 1.50198  10
  -6  -5  -8 -0.2557 2.67853  12
  -6   5  -8 2.55251 2.71977  18
  -6   5  -8 0.95865 2.28455  17
  -7  -5  -8 0.05705 1.60600  11
  -7   5  -8 3.17089 1.85981  18
  -7   5  -8 2.72162 1.62699  17
  -6  -6   8 5.43778 2.93992  12
  -6  -6   8 5.25201 3.56492  13
  -6   6   8 8.30338 2.61100  16
  -6   6   8 5.34019 2.33649  15
  -5  -6   8 21.0273 3.09152  10
  -5  -6   8 18.2984 5.47002  13
  -5  -6   8 12.9481 3.26530  12
  -5  -6   8 24.8504 4.55577  14
  -5   6   8 18.7045 2.40852  10
  -5   6   8 30.8737 4.73384  16
  -5   6   8 14.2982 3.35579  15
  -4  -6   8 52.1544 8.31157  13
  -4  -6   8 57.0604 6.74950  10
  -4  -6   8 54.0938 8.42712  14
  -4  -6   8 62.4745 6.16535   9
  -4   6   8 55.7430 5.21632   9
  -4   6   8 60.6308 7.33236  14
  -4   6   8 61.0406 6.49195  10
  -4   6   8 56.7125 6.85095  15
  -4   6   8 56.0186 7.10366  16
  -3  -6   8 51.3563 5.22485   8
  -3  -6   8 69.7845 8.64422  14
  -3  -6   8 59.6996 6.75622  10
  -3  -6   8 25.7564 8.79870   3
  -3  -6   8 62.8825 7.94937  13
  -3  -6   8 42.5747 13.3821   5
  -3  -6   8 60.6863 6.39906   9
  -3  -6   8 40.9320 9.99527   2
  -3   6   8 46.3152 8.90135   3
  -3   6   8 65.3640 10.2619   2
  -3   6   8 52.4619 6.48232  15
  -3   6   8 19.9414 10.0677   6
  -3   6   8 59.8313 5.92715   9
  -3   6   8 63.1351 7.25898  16
  -3   6   8 68.5832 7.27076  14
  -2  -6   8 9.23083 7.83304   3
  -2  -6   8 17.3432 7.58842   2
  -2  -6   8 16.1269 3.43792  10
  -2  -6   8 -1.7879 8.08128   5
  -2  -6   8 11.2789 3.97449  13
  -2  -6   8 14.4884 2.46247   8
  -2  -6   8 11.4800 2.90308   9
  -2   6   8 16.5928 2.65522   9
  -2   6   8 9.05128 7.23188   3
  -2   6   8 1.03326 6.84473   2
  -2   6   8 10.2478 1.97771   8
  -2   6   8 13.2044 6.68030   6
  -2   6   8 17.1927 3.21792  10
  -1  -6   8 74.0207 7.04649   8
  -1  -6   8 87.3797 13.4748   5
  -1  -6   8 59.0000 11.5600   3
  -1  -6   8 60.5915 11.5076   2
  -1   6   8 66.7011 7.35753   9
  -1   6   8 85.6211 13.1562   3
  -1   6   8 41.4951 9.67993   6
  -1   6   8 63.5652 10.9867   2
  -1   6   8 80.9947 6.60775   8
   0   6   8 22.9896 3.18304   8
  -1   6  -8 116.835 15.9994   2
  -1   6  -8 124.066 10.8561   8
  -1   6  -8 144.944 16.9557   7
  -1   6  -8 96.9359 15.5054   3
  -2  -6  -8 7.13067 9.15634   4
  -2  -6  -8 -1.2656 7.94227   2
  -2  -6  -8 6.05608 2.56131   8
  -2  -6  -8 3.23586 3.01215   9
  -2  -6  -8 15.0875 10.7743   3
  -2   6  -8 1.69377 6.28920   3
  -2   6  -8 2.21058 2.39893  10
  -2   6  -8 6.22631 1.87333   8
  -2   6  -8 0.75245 6.68225   2
  -2   6  -8 -1.3404 7.47439   7
  -2   6  -8 2.19285 2.15483   9
  -3  -6  -8 23.9213 2.90962   8
  -3  -6  -8 15.1614 4.15415  10
  -3  -6  -8 18.1757 11.7173   2
  -3  -6  -8 22.3653 5.36482  12
  -3  -6  -8 5.10089 9.77353   4
  -3  -6  -8 19.6265 3.78617   9
  -3  -6  -8 -0.6808 7.76490   3
  -3   6  -8 13.0145 9.48991   7
  -3   6  -8 22.1636 2.95200   9
  -3   6  -8 16.5432 2.04350   8
  -3   6  -8 7.74094 6.78328   2
  -3   6  -8 18.9383 3.30399  10
  -3   6  -8 18.0450 3.74223  17
  -4  -6  -8 162.391 15.5620  10
  -4  -6  -8 136.637 14.6556   9
  -4  -6  -8 137.918 17.8862  12
  -4   6  -8 159.428 14.2047   9
  -4   6  -8 180.087 16.7804  18
  -4   6  -8 155.720 16.5680  17
  -4   6  -8 164.585 14.9772  10
  -5  -6  -8 21.9816 3.99258  11
  -5  -6  -8 17.4399 4.49847  12
  -5  -6  -8 21.6778 4.12230  10
  -5   6  -8 27.8096 3.91379  17
  -5   6  -8 23.4589 3.29160  10
  -5   6  -8 14.1325 3.61466  16
  -5   6  -8 28.4973 4.46318  18
  -6  -6  -8 34.3018 3.25606  10
  -6  -6  -8 23.7547 4.17174  11
  -6  -6  -8 28.9899 5.41886  12
  -6   6  -8 32.1963 4.31116  17
  -6   6  -8 41.5215 4.81625  18
  -6  -7   8 12.5661 4.60608  13
  -6   7   8 10.2722 2.98836  16
  -6   7   8 10.5317 1.95827  15
  -5  -7   8 4.29003 4.71462  13
  -5  -7   8 4.59919 2.16607  10
  -5  -7   8 -2.0123 2.65989  14
  -5   7   8 2.04877 1.22334  10
  -5   7   8 2.08910 1.73121  15
  -5   7   8 2.30668 3.21881  16
  -4  -7   8 41.7518 7.75386  14
  -4  -7   8 54.5795 5.48435   9
  -4  -7   8 38.7814 7.41694  13
  -4  -7   8 50.4705 5.88796  10
  -4   7   8 38.6090 5.36374  15
  -4   7   8 44.6853 5.20409  10
  -4   7   8 49.7268 6.61956  16
  -3  -7   8 0.74575 2.48314   9
  -3  -7   8 3.67164 2.85450  13
  -3  -7   8 3.04123 1.48635   8
  -3  -7   8 -0.6899 2.83320  10
  -3  -7   8 6.38443 5.31888  14
  -3  -7   8 22.5829 13.6781   5
  -3   7   8 -1.1059 2.16967  10
  -3   7   8 2.26074 2.95002  16
  -3   7   8 2.01935 8.67027   6
  -3   7   8 0.46525 1.74354   9
  -2  -7   8 39.3998 6.35279  13
  -2  -7   8 44.3494 5.28814   9
  -2  -7   8 28.7508 10.2861   3
  -2  -7   8 16.9722 11.9220   2
  -2  -7   8 33.2338 4.62728   8
  -2  -7   8 29.1744 12.4453   5
  -2   7   8 21.5501 8.72981   3
  -2   7   8 48.6574 4.89831   9
  -2   7   8 30.7153 10.1092   2
  -2   7   8 37.4401 4.15606   8
  -2   7   8 28.4928 11.0065   6
  -2   7   8 46.3944 5.73574  16
  -2   7   8 41.8803 5.21956  10
  -1  -7   8 1.43527 2.42295   8
  -1  -7   8 1.34233 8.56060   5
  -1   7   8 -2.3715 1.58652   8
  -1   7   8 4.84128 7.70080   2
  -1   7   8 -2.4085 2.23398   9
  -1   7   8 -1.8439 8.97545   3
   0   7   8 0.22293 2.14451   8
  -1  -7  -8 -0.4123 2.87606   8
  -1   7  -8 2.94070 1.86353   8
  -1   7  -8 2.76955 8.37441   7
  -2  -7  -8 55.3880 5.98284   8
  -2  -7  -8 46.4075 6.49790   9
  -2  -7  -8 13.5670 14.5554   3
  -2  -7  -8 33.9372 13.7338   2
  -2   7  -8 34.4730 12.5045   2
  -2   7  -8 49.3724 5.00545   8
  -2   7  -8 63.4457 13.4903   7
  -2   7  -8 52.8551 5.55143   9
  -3  -7  -8 -1.5942 2.87996   9
  -3  -7  -8 -0.1759 1.90322   8
  -3  -7  -8 -3.6977 3.67404  10
  -3  -7  -8 -3.2404 4.53824  12
  -3   7  -8 -14.945 10.6804   7
  -3   7  -8 1.12586 1.03023   8
  -3   7  -8 -0.9093 2.23634  10
  -3   7  -8 4.08364 2.95454  17
  -3   7  -8 2.25747 2.11319   9
  -3   7  -8 -1.4124 3.05847  18
  -4  -7  -8 2.94294 4.74905  12
  -4  -7  -8 9.46995 3.86669  10
  -4  -7  -8 13.2568 3.10301   9
  -4   7  -8 5.84529 2.01369   9
  -4   7  -8 14.4157 4.02410  18
  -4   7  -8 6.22388 3.49355  17
  -4   7  -8 12.0045 2.65745  10
  -5  -7  -8 6.83712 3.47333  12
  -5  -7  -8 4.74517 3.00275  10
  -5   7  -8 4.62169 3.55120  18
  -5   7  -8 3.38475 1.79906  10
  -5   7  -8 -0.4418 2.24353  17
  -6  -7  -8 4.83873 2.68663  12
  -6   7  -8 2.40306 2.56664  18
  -6   7  -8 4.33965 2.04683  17
  -5  -8   8 10.2088 2.54493  10
  -5  -8   8 10.6390 3.71139  13
  -5   8   8 15.4662 1.74155  10
  -5   8   8 6.48701 2.50862  16
  -4  -8   8 62.5281 6.72188   9
  -4  -8   8 56.9546 8.72764  14
  -4  -8   8 76.1965 7.60133  10
  -4  -8   8 61.4985 8.53354  13
  -4   8   8 70.4421 6.77341  10
  -4   8   8 59.0946 7.46710  16
  -3  -8   8 37.9416 5.61108  10
  -3  -8   8 33.8551 6.56162  13
  -3  -8   8 47.1311 7.73334  14
  -3  -8   8 36.4253 4.96670   9
  -3   8   8 52.3689 5.40038  10
  -3   8   8 36.5411 5.45146  16
  -3   8   8 41.8338 4.57147   9
  -3   8   8 36.1728 5.16242  17
  -2  -8   8 235.842 20.6353   8
  -2  -8   8 225.830 26.3451  13
  -2  -8   8 256.407 22.5170   9
  -2   8   8 236.160 22.0203   9
  -2   8   8 237.523 22.6583  10
  -2   8   8 259.518 20.2709   8
  -2   8   8 251.292 24.5218  16
  -1  -8   8 67.7106 7.01492   8
  -1  -8   8 54.1409 15.7301   5
  -1   8   8 59.4772 6.14361   8
  -1   8   8 65.9757 7.24425   9
   0  -8   8 131.913 12.4412   8
   0   8  -8 131.874 11.9829   8
   0   8   8 129.176 11.7159   8
  -1  -8  -8 83.7435 9.05419   8
  -1   8  -8 93.4680 8.41377   8
  -2  -8  -8 276.556 22.5341   8
  -2  -8  -8 241.147 24.1665   9
  -2   8  -8 269.120 22.0632   8
  -2   8  -8 268.682 23.9659   9
  -3  -8  -8 175.959 19.6279  12
  -3  -8  -8 180.913 18.2524  10
  -3  -8  -8 193.063 17.5034   9
  -3  -8  -8 176.040 15.5700   8
  -3   8  -8 189.589 18.5691  18
  -3   8  -8 205.913 16.8588   9
  -3   8  -8 168.403 18.7323  17
  -4  -8  -8 83.3904 9.98681  10
  -4  -8  -8 90.4809 11.5369  12
  -4  -8  -8 83.4724 9.00591   9
  -4   8  -8 83.6197 9.77657  17
  -4   8  -8 88.9734 8.24202   9
  -4   8  -8 99.0974 9.13518  10
  -4   8  -8 99.6245 10.2995  18
  -5  -8  -8 46.2932 5.62570  10
  -5  -8  -8 44.9069 6.23656  12
  -5   8  -8 42.0496 4.71443  10
  -5   8  -8 47.5836 5.47033  18
  -5   8  -8 50.1935 6.04233  17
  -5  -9   8 7.53954 2.60109  13
  -5  -9   8 -0.1811 2.04795  10
  -5   9   8 3.66511 1.61715  16
  -4  -9   8 1.00213 1.90386   9
  -4  -9   8 2.23230 2.89075  10
  -4  -9   8 3.37581 3.03102  13
  -4   9   8 2.01655 1.65326  10
  -4   9   8 0.31824 1.71331  16
  -3  -9   8 11.3121 3.09772   9
  -3  -9   8 5.15139 3.58571  14
  -3  -9   8 14.3407 3.98352  10
  -3  -9   8 9.78768 4.43675  13
  -3   9   8 6.26910 2.77592  16
  -3   9   8 6.02666 2.59209  10
  -3   9   8 6.82866 1.96393   9
  -3   9   8 8.29004 2.80844  17
  -2  -9   8 5.95603 3.42559   9
  -2  -9   8 4.93144 4.27585  13
  -2  -9   8 1.07152 2.17624   8
  -2   9   8 0.23268 2.61832  16
  -2   9   8 3.38986 1.24008   8
  -2   9   8 3.04237 1.97119  10
  -2   9   8 2.77167 2.34836   9
  -1  -9   8 -3.1628 2.74249   8
  -1   9   8 5.40424 1.95114   8
  -1   9   8 3.26453 2.58244  16
  -1   9   8 2.77945 2.70224   9
   0  -9   8 2.40751 3.42523   8
   0   9   8 4.85051 2.35564   8
   0   9  -8 2.45823 2.65751   8
  -1  -9  -8 2.28785 3.13851   8
  -1   9  -8 -1.2928 2.07611   8
  -2  -9  -8 3.02231 2.74735   8
  -2  -9  -8 3.23931 4.20654  12
  -2  -9  -8 0.93736 3.63373   9
  -2   9  -8 0.15596 1.43965   8
  -2   9  -8 6.58738 2.80671   9
  -3  -9  -8 -0.0880 3.16366   9
  -3  -9  -8 4.16204 4.01176  13
  -3  -9  -8 7.30783 3.03958  12
  -3  -9  -8 -2.2376 1.28600   8
  -3   9  -8 -2.2472 2.96663  18
  -3   9  -8 3.31850 2.08730   9
  -3   9  -8 4.43584 2.66459  10
  -3   9  -8 1.93667 2.21472  17
  -4  -9  -8 11.7804 2.93971  10
  -4  -9  -8 5.38081 3.01795  12
  -4  -9  -8 10.2355 2.33306   9
  -4   9  -8 8.03711 3.12246  18
  -4   9  -8 15.5293 3.31016  17
  -4   9  -8 9.15090 2.03354  10
  -5  -9  -8 1.41703 2.24214  12
  -5  -9  -8 2.02808 1.89163  10
  -5   9  -8 3.15141 1.12938  10
  -4 -10   8 15.6350 3.84607  13
  -4 -10   8 17.3756 2.69749  10
  -4  10   8 10.5606 2.46372  16
  -4  10   8 15.7778 2.15370  10
  -3 -10   8 46.4683 6.43219  13
  -3 -10   8 23.2682 5.67414  14
  -3 -10   8 40.9512 5.31834  10
  -3 -10   8 42.6595 4.77596   9
  -3  10   8 46.0850 4.95114  16
  -3  10   8 42.3606 4.60956  10
  -3  10   8 40.2821 4.12309   9
  -2 -10   8 0.45325 3.25390   9
  -2 -10   8 4.87588 1.90097   8
  -2  10   8 1.97419 2.30199  16
  -2  10   8 3.61204 2.73031  17
  -2  10   8 8.50771 1.90254   9
  -1 -10   8 105.693 9.81418   8
  -1  10   8 108.725 9.02325   8
  -1  10   8 90.8518 10.3083   9
   0 -10  -8 13.6338 4.32451   8
   0 -10   8 13.3855 3.93269   8
   0  10  -8 18.7701 3.04240   8
   0  10   8 11.9153 2.76176   8
  -1 -10  -8 25.7717 4.22547   8
   1  10   8 23.8755 3.75920   8
  -1  10  -8 29.7226 3.36159   8
  -2 -10  -8 15.5186 4.22075  12
  -2 -10  -8 14.3651 3.29868   9
  -2 -10  -8 14.9366 2.71190   8
  -2  10  -8 11.4843 3.05151   9
  -2  10  -8 14.7322 1.84581   8
  -3 -10  -8 9.73049 2.72194  12
  -3 -10  -8 12.8100 3.21981   9
  -3  10  -8 6.72971 2.57243  10
  -3  10  -8 7.16885 1.99427   9
  -3  10  -8 7.36156 2.70900  18
  -4 -10  -8 3.82068 2.79157  12
  -4 -10  -8 0.34529 1.94773  10
  -4 -10  -8 6.79947 1.39818   9
  -4  10  -8 9.15427 1.99659  10
  -4  10  -8 15.9825 2.03599  18
  -3 -11   8 -4.4620 1.96591   9
  -3  11   8 -0.0779 1.23436  10
  -2 -11   8 4.29664 2.33093   9
  -2 -11   8 4.20570 3.23268  14
  -2  11   8 5.60973 1.84945  17
  -2  11   8 5.76116 1.51649   9
  -1 -11   8 2.95443 2.30622   8
   1  11  -8 -1.9823 2.28419   8
  -1  11   8 5.26943 1.91218   9
  -1  11   8 2.50396 1.07435   8
   0 -11   8 -1.1651 2.16880   8
   0 -11  -8 2.96218 2.24539   8
   0  11   8 3.22448 1.80889   8
   0  11  -8 -0.1126 1.92566   8
  -1 -11  -8 -2.7041 2.44125   8
   1  11   8 2.95035 2.12519   8
  -1  11  -8 -1.7693 2.80824   9
  -1  11  -8 0.84019 1.43506   8
  -2 -11  -8 19.9423 2.22315   8
  -2 -11  -8 17.5775 3.62792   9
  -2  11  -8 18.1352 2.61256   9
  -2  11  -8 15.9914 3.06891  18
  -3 -11  -8 4.89244 1.50814   9
  -3  11  -8 0.20121 1.49445  10
  -3  11  -8 2.12587 0.91172   9
  -1 -12   8 7.65020 1.45213   8
  -1  12   8 12.5131 1.89401   9
   0 -12   8 14.6736 2.34236   8
   0 -12  -8 14.4561 2.67618   8
   0  12   8 16.2033 1.77166   8
   0  12  -8 12.7108 1.71430   8
  -1 -12  -8 14.2872 1.88915   8
   1  12   8 13.8712 1.86048   8
  -7   0   9 1.45274 3.19535  13
  -7   0   9 -1.4130 2.19103  14
  -6   0   9 -0.7345 2.73630  15
  -6   0   9 -1.4606 2.54981  14
  -6   0   9 -0.0915 3.51451  13
  -5   0   9 11.9708 11.1087   5
  -5   0   9 -0.8788 0.99977  10
  -5   0   9 1.62777 3.46016  12
  -5   0   9 -2.5136 3.65688  14
  -5   0   9 1.15968 2.90463  15
  -5   0   9 0.16834 4.78543  13
  -4   0   9 -3.1921 1.34793  10
  -4   0   9 -0.1033 2.50748  15
  -4   0   9 -0.4270 6.59699   6
  -4   0   9 -5.8385 3.71679  13
  -4   0   9 1.60057 3.03818  14
  -4   0   9 4.77875 7.67670   5
  -4   0   9 3.36570 3.11767  12
  -3   0   9 0.81525 2.66565  12
  -3   0   9 -0.1919 3.24942   2
  -3   0   9 -0.4262 6.43560   5
  -3   0   9 1.58494 1.85534  10
  -3   0   9 -0.5593 4.50315   6
  -3   0   9 -1.5713 1.37947   9
  -3   0   9 -1.2992 2.05487  15
  -3   0   9 -3.5437 3.40923   3
  -3   0   9 2.26903 2.67361  14
  -2   0   9 6.14189 3.76647   3
  -2   0   9 0.94990 3.37907   2
  -2   0   9 -2.6132 5.97578   5
  -2   0   9 -1.0506 4.78756   6
  -1   0   9 0.65475 4.76159   2
  -1   0   9 -0.9856 3.96861   1
  -1   0   9 2.30210 4.38791   5
  -1   0   9 -1.4618 4.50289   3
   0   0  -9 3.74720 4.84093   2
   0   0  -9 -3.6995 3.75644   1
   0   0   9 3.22347 3.74266   1
   0   0  -9 -5.8100 3.42069   1
   0   0   9 0.15718 3.83651   3
   0   0  -9 1.04713 3.69414   3
   0   0   9 6.62589 4.43012   1
   0   0   9 0.30360 5.20960   2
   1   0   9 -0.8381 3.36452   1
  -1   0  -9 0.96781 2.96696   7
  -1   0  -9 3.58259 3.61918   3
  -1   0  -9 5.10195 4.81320   2
  -1   0  -9 -2.1290 3.98780   1
  -2   0  -9 -0.3806 4.00771   3
  -2   0  -9 -6.7015 3.35486   7
  -2   0  -9 -7.7842 3.49428   2
  -2   0  -9 -2.7957 4.68125   4
  -3   0  -9 1.20739 5.24084   7
  -3   0  -9 0.15095 1.89613  10
  -3   0  -9 -0.3709 1.58328   8
  -3   0  -9 -3.7980 4.89217   2
  -3   0  -9 -0.4762 3.97387   3
  -3   0  -9 1.34325 7.11119   4
  -3   0  -9 0.97978 2.15604   9
  -4   0  -9 -1.0477 2.35208  10
  -4   0  -9 2.84270 2.07613   9
  -4   0  -9 1.55935 3.07375  18
  -4   0  -9 4.06212 7.05043   7
  -4   0  -9 -2.7784 3.88505   3
  -4   0  -9 3.13202 10.0160   4
  -4   0  -9 4.29761 6.32659   2
  -4   0  -9 -1.2350 3.16256  11
  -4   0  -9 -2.4384 2.49304  17
  -5   0  -9 -1.2604 2.55298  10
  -5   0  -9 -4.4562 3.42148  18
  -5   0  -9 -14.975 12.9224   4
  -5   0  -9 -0.2677 3.06524  17
  -5   0  -9 -1.0175 4.18586  11
  -6   0  -9 0.27033 4.28438  11
  -6   0  -9 1.25420 3.78541  18
  -6   0  -9 -0.4770 2.40734  17
  -7   0  -9 2.02882 2.22496  11
  -7   0  -9 1.24184 2.35065  18
  -7  -1   9 -0.9027 3.01484  13
  -7  -1   9 1.37721 3.19543  14
  -7   1   9 6.60244 1.90453  15
  -7   1   9 5.22192 2.36770  14
  -6  -1   9 33.6365 4.77249  14
  -6  -1   9 23.6517 6.34140  13
  -6  -1   9 23.1397 4.81303  12
  -6  -1   9 23.4370 4.11968  15
  -6   1   9 31.6292 4.70453  15
  -6   1   9 23.7987 4.90264  14
  -6   1   9 35.5348 5.72107  13
  -5  -1   9 13.5135 3.50056  15
  -5  -1   9 23.4148 5.61054  13
  -5  -1   9 12.6822 2.04782  10
  -5  -1   9 6.55729 12.3265   5
  -5  -1   9 14.7591 4.41191  14
  -5  -1   9 21.6556 4.27495  12
  -5   1   9 14.6749 5.76087  13
  -5   1   9 0.92149 9.07501   6
  -5   1   9 15.4867 4.13482  14
  -5   1   9 14.1555 1.79816  10
  -5   1   9 11.0875 3.48839  15
  -4  -1   9 10.3680 2.57036  10
  -4  -1   9 10.6477 4.44709  13
  -4  -1   9 6.99539 8.39862   5
  -4  -1   9 6.54279 3.36621  12
  -4  -1   9 9.66848 3.64222  14
  -4  -1   9 20.1786 3.38237  15
  -4  -1   9 0.57718 8.28017   6
  -4   1   9 7.97641 6.75897   6
  -4   1   9 8.97634 3.40993  14
  -4   1   9 6.81033 8.08339   5
  -4   1   9 10.2973 3.05480  15
  -4   1   9 14.2309 2.36688  10
  -4   1   9 16.1818 5.03628  13
  -3  -1   9 295.446 32.6238  13
  -3  -1   9 307.252 29.2874  15
  -3  -1   9 299.711 30.2250  14
  -3  -1   9 303.325 31.0626  12
  -3  -1   9 315.875 35.3232   5
  -3  -1   9 350.931 31.9800   3
  -3  -1   9 333.632 32.7283   6
  -3  -1   9 332.006 30.3642   2
  -3  -1   9 289.561 28.1358  10
  -3  -1   9 299.394 27.1849   9
  -3   1   9 289.698 30.1292  14
  -3   1   9 313.980 27.1445   9
  -3   1   9 296.782 29.2262  15
  -3   1   9 340.086 30.0238   2
  -3   1   9 296.096 28.0579  10
  -3   1   9 291.467 32.6292  13
  -3   1   9 334.338 32.0871   3
  -3   1   9 336.971 32.8467   6
  -3   1   9 310.275 35.1763   5
  -2  -1   9 96.9916 12.1521   3
  -2  -1   9 97.7083 14.3993   5
  -2  -1   9 93.8980 11.8347   2
  -2  -1   9 88.2293 12.3945   6
  -2   1   9 88.8153 12.2348   6
  -2   1   9 108.044 11.9501   2
  -2   1   9 101.129 12.9949   3
  -2   1   9 108.211 15.5798   5
  -1  -1   9 13.1438 4.19604   1
  -1  -1   9 12.7926 4.97739   5
  -1  -1   9 8.17392 4.78173   2
  -1  -1   9 17.4812 5.60718   3
  -1   1   9 -0.8742 4.24492   1
  -1   1   9 17.9729 5.68488   2
  -1   1   9 16.9581 5.30909   3
   0  -1   9 53.4509 8.23582   2
   0  -1  -9 32.7020 6.11768   1
   0  -1   9 50.6338 8.75280   3
   0  -1  -9 45.9211 7.66393   2
   0  -1   9 28.8583 6.08674   1
   0  -1  -9 58.2381 8.42559   3
   0  -1   9 47.4533 7.13571   5
   0  -1  -9 37.2656 6.37583   1
   0  -1   9 40.0562 6.45640   1
   0   1   9 43.8010 6.78741   1
   0   1   9 23.7434 6.17701   1
   0   1   9 62.6605 9.10693   3
   0   1  -9 42.1950 6.27226   1
   0   1  -9 45.9795 7.34008   2
   0   1   9 39.3132 7.66485   2
   0   1  -9 53.4588 8.13821   3
   0   1  -9 46.8428 6.13711   1
  -1  -1  -9 50.3374 7.40049   3
  -1  -1  -9 47.7366 7.82824   2
   1  -1   9 19.6174 5.63958   1
  -1  -1  -9 32.4459 6.44092   1
  -1   1  -9 59.0458 8.12609   2
  -1   1  -9 36.3980 6.25526   1
  -1   1  -9 53.0437 7.52530   3
  -1   1  -9 51.2534 7.25703   7
   1   1   9 35.5369 6.20148   1
  -2  -1  -9 18.6201 7.55179   4
  -2  -1  -9 22.0750 6.80335   2
  -2  -1  -9 20.1042 6.17635   3
  -2   1  -9 21.0249 5.06703   3
  -2   1  -9 23.4750 5.61855   2
  -2   1  -9 33.5107 6.32855   7
  -3  -1  -9 109.610 9.53971   8
  -3  -1  -9 112.437 13.6577   3
  -3  -1  -9 100.470 16.5923   4
  -3  -1  -9 116.145 10.7214   9
  -3  -1  -9 126.706 14.3324   2
  -3  -1  -9 114.451 10.8504  10
  -3  -1  -9 106.248 12.4086  11
  -3   1  -9 131.937 15.5033   7
  -3   1  -9 95.0740 12.9797   3
  -3   1  -9 106.802 11.9221  18
  -3   1  -9 116.656 10.4588   9
  -3   1  -9 108.484 13.4741   2
  -3   1  -9 110.171 9.50480   8
  -3   1  -9 107.102 17.0317   4
  -3   1  -9 106.848 10.7060  10
  -4  -1  -9 6.68011 2.30185   9
  -4  -1  -9 -1.4562 3.60969  11
  -4  -1  -9 3.67316 2.84943  17
  -4  -1  -9 1.72686 5.93939   2
  -4  -1  -9 1.21895 2.20513  10
  -4  -1  -9 3.92625 3.04395  18
  -4  -1  -9 2.77817 4.02559   3
  -4  -1  -9 -20.445 11.5348   4
  -4  -1  -9 2.78815 2.72003  12
  -4   1  -9 -7.6395 9.33272   4
  -4   1  -9 1.58783 2.65914  17
  -4   1  -9 1.47384 3.18794  11
  -4   1  -9 6.70441 7.11334   7
  -4   1  -9 2.47642 1.91341  10
  -4   1  -9 -2.5235 3.56015   3
  -4   1  -9 -1.8583 5.97271   2
  -4   1  -9 5.13815 3.17123  18
  -4   1  -9 3.13525 1.90116   9
  -5  -1  -9 15.5650 4.83132  11
  -5  -1  -9 6.85099 3.60021  17
  -5  -1  -9 9.28082 3.06488  10
  -5  -1  -9 6.71657 15.0478   4
  -5  -1  -9 8.28115 3.79799  18
  -5   1  -9 3.98384 2.11900  10
  -5   1  -9 13.8173 4.22732  11
  -5   1  -9 4.51493 3.84587  18
  -5   1  -9 3.48605 10.2907   7
  -5   1  -9 6.18834 3.25785  17
  -6  -1  -9 24.4979 5.94417  11
  -6  -1  -9 27.3508 4.54191  18
  -6  -1  -9 28.4368 5.04924  17
  -6   1  -9 30.7069 5.37225  18
  -6   1  -9 38.4958 5.54994  11
  -6   1  -9 21.0174 4.69289  17
  -7  -1  -9 8.06451 2.74992  11
  -7  -1  -9 3.65830 2.06855  18
  -7   1  -9 4.06068 2.75460  11
  -7   1  -9 2.83420 2.97852  18
  -7  -2   9 0.69237 3.05001  14
  -7  -2   9 2.39792 3.21135  13
  -7   2   9 2.89643 3.09732  14
  -7   2   9 4.66917 1.85193  15
  -6  -2   9 13.0517 4.81318  14
  -6  -2   9 11.9338 4.08734  12
  -6  -2   9 24.7289 5.79062  13
  -6   2   9 20.8404 3.54466  15
  -6   2   9 27.3627 5.25865  13
  -6   2   9 26.3775 3.98010  14
  -5  -2   9 13.0017 5.27931  13
  -5  -2   9 19.5281 4.94554  14
  -5  -2   9 23.3204 4.50860  12
  -5  -2   9 -4.0625 11.9886   5
  -5  -2   9 20.4048 4.48742  15
  -5  -2   9 20.3355 2.67247  10
  -5   2   9 3.04107 9.66529   6
  -5   2   9 20.3599 5.99992  13
  -5   2   9 15.6305 4.34753  14
  -5   2   9 12.4549 4.34499  16
  -5   2   9 16.0749 3.82514  15
  -4  -2   9 2.46423 0.90508   9
  -4  -2   9 -1.6755 3.75981  13
  -4  -2   9 1.01606 2.82193  12
  -4  -2   9 4.90846 3.01806   2
  -4  -2   9 4.51827 2.57477  15
  -4  -2   9 2.26186 2.91819   3
  -4  -2   9 -0.7964 3.25243  14
  -4  -2   9 -0.4521 2.18353  10
  -4  -2   9 -1.2914 8.07208   5
  -4   2   9 1.43366 2.54111  15
  -4   2   9 0.74828 2.79283  14
  -4   2   9 -0.3069 4.29699  13
  -4   2   9 5.89559 3.76707  16
  -4   2   9 11.4293 9.27864   6
  -4   2   9 -0.1247 1.41760  10
  -3  -2   9 16.2267 5.52363   3
  -3  -2   9 29.1857 4.68060  13
  -3  -2   9 26.6329 4.11172  15
  -3  -2   9 21.8760 7.03601   6
  -3  -2   9 11.3338 5.38682   2
  -3  -2   9 29.5866 3.58063  10
  -3  -2   9 17.7779 8.07105   5
  -3  -2   9 29.2282 4.07855  12
  -3  -2   9 24.9733 4.27823  14
  -3  -2   9 23.2044 3.00626   9
  -3   2   9 30.7340 4.22043  16
  -3   2   9 26.3219 3.45493  10
  -3   2   9 20.4331 6.22206   6
  -3   2   9 31.5898 5.37191  13
  -3   2   9 20.5050 3.59040  15
  -3   2   9 19.9299 2.84669   9
  -3   2   9 22.1769 4.84113   2
  -3   2   9 18.4731 6.31731   3
  -3   2   9 19.4651 3.86940  14
  -2  -2   9 -3.6373 5.26762   5
  -2  -2   9 1.63238 5.40348   6
  -2  -2   9 8.78425 4.35511   2
  -2  -2   9 6.10791 4.47014   3
  -2   2   9 4.41297 4.29162   6
  -2   2   9 5.42166 5.01128   3
  -2   2   9 0.30577 4.09256   2
  -1  -2   9 252.905 28.0112   5
  -1  -2   9 253.454 26.1175   2
  -1  -2   9 254.730 27.1003   3
  -1   2   9 241.031 26.4880   6
  -1   2   9 251.687 25.9310   2
  -1   2   9 270.115 27.3424   3
   0  -2  -9 4.06689 4.52916   3
   0  -2  -9 -4.6871 3.46815   1
   0  -2   9 -5.5381 3.78083   1
   0  -2   9 4.81436 4.67736   1
   0  -2   9 -0.6051 5.73057   2
   0  -2   9 5.70273 5.21200   3
   0  -2   9 2.76002 3.79408   5
   0  -2  -9 -5.4683 4.54301   2
   0   2   9 4.51301 4.40554   2
   0   2  -9 0.54954 4.45785   3
   0   2  -9 -0.7195 4.61836   2
   0   2   9 5.22595 3.77258   1
   0   2   9 -4.3413 3.44309   1
   0   2  -9 3.75173 3.92707   1
   0   2   9 2.88465 4.16106   3
  -1  -2  -9 318.314 29.7686   2
  -1  -2  -9 247.337 24.9279   1
  -1  -2  -9 294.942 31.1443   3
  -1  -2  -9 337.753 32.0658   4
  -1   2  -9 302.556 30.6867   3
  -1   2  -9 309.557 29.1109   2
  -1   2  -9 277.484 24.7443   1
  -1   2  -9 280.413 30.9005   7
   1   2   9 254.689 25.3842   1
  -2  -2  -9 14.7894 5.33504   3
  -2  -2  -9 18.6673 6.76991   4
  -2  -2  -9 21.4784 7.24096   2
  -2   2  -9 21.3639 5.91220   2
  -2   2  -9 23.7564 5.22409   3
  -2   2  -9 14.1388 6.32791   7
  -3  -2  -9 125.222 14.7768   2
  -3  -2  -9 98.4362 10.3711   9
  -3  -2  -9 90.3115 11.7255  11
  -3  -2  -9 132.595 18.8653   4
  -3  -2  -9 103.918 11.4024  17
  -3  -2  -9 96.4383 9.09820   8
  -3  -2  -9 100.435 10.4719  10
  -3  -2  -9 113.589 13.6954   3
  -3   2  -9 114.991 12.6489   2
  -3   2  -9 115.233 11.1794  16
  -3   2  -9 114.163 13.0825   3
  -3   2  -9 107.286 9.75765   9
  -3   2  -9 100.422 11.1273  18
  -3   2  -9 105.612 8.93225   8
  -3   2  -9 117.924 15.4439   7
  -3   2  -9 85.4484 15.2734   4
  -3   2  -9 104.824 10.1950  10
  -4  -2  -9 0.83999 2.45774  10
  -4  -2  -9 7.05318 10.9922   4
  -4  -2  -9 -1.3269 3.05285  12
  -4  -2  -9 -0.9024 3.06900  17
  -4  -2  -9 4.60845 2.95190  18
  -4  -2  -9 0.37415 4.32744   3
  -4  -2  -9 -3.3475 3.46608  11
  -4   2  -9 -0.0958 1.68774   9
  -4   2  -9 -1.5929 2.13660  10
  -4   2  -9 0.23507 3.69193   3
  -4   2  -9 -8.3166 8.41309   4
  -4   2  -9 -1.8807 7.56064   7
  -4   2  -9 -1.4289 5.22407   2
  -4   2  -9 -0.9486 2.45130  17
  -4   2  -9 5.24341 2.88923  11
  -4   2  -9 1.89745 3.24277  18
  -4   2  -9 2.65370 2.68851  16
  -5  -2  -9 4.87604 2.41874  12
  -5  -2  -9 6.96132 2.80006  17
  -5  -2  -9 3.47960 2.61913  18
  -5  -2  -9 3.02932 4.76768  11
  -5  -2  -9 20.8745 15.9687   4
  -5  -2  -9 3.46280 2.43658  10
  -5   2  -9 10.2979 10.2591   7
  -5   2  -9 4.51277 3.15909  17
  -5   2  -9 4.97903 2.36365  10
  -5   2  -9 1.84984 3.98860  18
  -5   2  -9 2.51782 3.24451  11
  -6  -2  -9 4.06272 4.66269  11
  -6  -2  -9 6.21658 3.69855  18
  -6   2  -9 5.67436 4.04782  18
  -6   2  -9 3.12314 3.11808  11
  -6   2  -9 2.78336 3.33670  17
  -7  -2  -9 5.72952 2.84050  18
  -7  -2  -9 -0.3678 2.46899  11
  -7   2  -9 4.77444 2.32268  18
  -7  -3   9 4.22081 2.12896  14
  -7  -3   9 5.47569 3.18900  13
  -7   3   9 0.62502 2.15282  14
  -7   3   9 6.53988 1.79219  15
  -6  -3   9 8.30582 3.87960  13
  -6  -3   9 6.78389 2.78164  12
  -6  -3   9 10.8128 4.34410  14
  -6   3   9 12.6979 3.09784  14
  -6   3   9 5.82002 4.29390  16
  -6   3   9 15.0187 2.90741  15
  -5  -3   9 34.5153 6.62557  13
  -5  -3   9 32.9317 4.11467  10
  -5  -3   9 32.0635 6.31390  14
  -5  -3   9 30.7416 5.01353  12
  -5   3   9 29.6447 7.21540  13
  -5   3   9 38.7872 5.17514  15
  -5   3   9 36.2970 3.70147  10
  -5   3   9 38.9792 5.26745  14
  -5   3   9 46.2328 6.43323  16
  -4  -3   9 50.1387 13.2901   5
  -4  -3   9 48.0112 6.07991  12
  -4  -3   9 37.3088 4.21672   9
  -4  -3   9 48.0913 6.93790  13
  -4  -3   9 30.9145 6.55504   2
  -4  -3   9 44.3030 5.23078  10
  -4  -3   9 48.1436 6.57909  14
  -4  -3   9 25.7595 6.29621   3
  -4   3   9 56.2022 6.61941  16
  -4   3   9 43.9239 5.96686  14
  -4   3   9 48.9599 5.69574  15
  -4   3   9 44.0173 7.47068  13
  -4   3   9 32.3633 10.0761   6
  -4   3   9 41.6359 4.93456  10
  -3  -3   9 27.8217 4.82571  14
  -3  -3   9 28.5624 3.74180   9
  -3  -3   9 29.7879 5.18842  13
  -3  -3   9 22.0050 9.07533   5
  -3  -3   9 24.8446 6.09625   3
  -3  -3   9 19.0717 6.70773   2
  -3  -3   9 33.2727 4.01131  10
  -3  -3   9 28.4421 4.35897  12
  -3   3   9 26.2656 3.96358  15
  -3   3   9 29.8118 3.91172  10
  -3   3   9 22.4603 4.15690  14
  -3   3   9 48.5378 6.32680  13
  -3   3   9 32.8384 4.62206  16
  -3   3   9 25.1213 5.51537   2
  -3   3   9 24.4915 7.26811   6
  -3   3   9 29.3963 7.48893   3
  -3   3   9 29.0076 3.38691   9
  -2  -3   9 22.4546 6.08363   2
  -2  -3   9 29.5693 9.09841   5
  -2  -3   9 33.5450 6.71863   3
  -2   3   9 22.6177 2.54248   8
  -2   3   9 20.1989 7.01870   6
  -2   3   9 23.9458 5.92194   2
  -2   3   9 22.0928 6.13737   3
  -1  -3   9 2.86095 4.67443   5
  -1  -3   9 7.39274 5.20695   3
  -1  -3   9 7.75891 5.65482   2
  -1   3   9 -1.0438 3.83906   2
  -1   3   9 3.72209 4.50911   6
  -1   3   9 14.3918 5.66188   3
   0  -3  -9 5.23405 4.74362   1
   0  -3   9 -3.4253 4.20347   3
   0  -3   9 3.54197 4.77211   2
   0  -3   9 4.88158 4.30632   5
   0   3   9 0.89690 4.39497   2
   0   3   9 5.43985 4.48614   3
   0   3   9 -0.9225 3.98332   6
  -1  -3  -9 17.5052 6.50625   2
  -1  -3  -9 22.9920 6.37637   4
  -1  -3  -9 11.4913 5.82878   3
  -1   3  -9 24.1257 5.49564   3
  -1   3  -9 24.1715 5.97371   2
  -1   3  -9 23.4566 5.95646   7
  -2  -3  -9 104.080 14.9844   2
  -2  -3  -9 114.816 15.9931   4
  -2  -3  -9 110.550 14.6755   3
  -2   3  -9 97.9522 12.9850   3
  -2   3  -9 101.453 14.4211   7
  -2   3  -9 109.262 13.5391   2
  -3  -3  -9 141.476 16.1376   3
  -3  -3  -9 125.764 12.9645  10
  -3  -3  -9 118.583 16.7755   2
  -3  -3  -9 95.8188 19.7718   4
  -3  -3  -9 124.902 12.4943   9
  -3  -3  -9 126.841 14.2611  11
  -3   3  -9 132.151 15.7953   3
  -3   3  -9 141.484 12.5959  10
  -3   3  -9 130.612 13.6583  18
  -3   3  -9 140.911 11.0646   8
  -3   3  -9 125.877 15.5123   2
  -3   3  -9 138.476 13.6340  16
  -3   3  -9 117.723 13.6711  17
  -3   3  -9 128.654 12.0274   9
  -3   3  -9 160.959 19.6636   4
  -3   3  -9 131.228 17.5192   7
  -4  -3  -9 31.3709 6.13127  11
  -4  -3  -9 35.7625 4.54900   9
  -4  -3  -9 37.0771 9.25910   2
  -4  -3  -9 50.4337 5.55350  10
  -4  -3  -9 52.7841 15.5181   4
  -4  -3  -9 23.2672 6.96936   3
  -4  -3  -9 36.7131 5.11556  18
  -4  -3  -9 36.1799 5.92648  12
  -4   3  -9 35.9389 4.24857   9
  -4   3  -9 34.3079 5.05316  17
  -4   3  -9 28.7300 4.96526  11
  -4   3  -9 38.8032 5.08986  16
  -4   3  -9 45.0169 11.0849   7
  -4   3  -9 35.1919 4.30289  10
  -4   3  -9 28.9028 7.28100   2
  -4   3  -9 44.4486 5.84708  18
  -4   3  -9 26.3808 6.31452   3
  -5  -3  -9 71.7641 8.31425  12
  -5  -3  -9 49.2687 8.10209  11
  -5  -3  -9 60.6284 6.68277  10
  -5  -3  -9 55.9154 7.23804  18
  -5   3  -9 61.7120 7.45370  18
  -5   3  -9 44.9349 6.77868  11
  -5   3  -9 57.3384 6.88987  17
  -5   3  -9 53.7302 5.87651  10
  -5   3  -9 55.2409 6.74029  16
  -6  -3  -9 1.99321 3.43578  18
  -6  -3  -9 -1.2506 3.11505  12
  -6  -3  -9 10.0725 3.58530  11
  -6   3  -9 -0.4041 2.89671  18
  -6   3  -9 2.67115 3.16452  17
  -7  -3  -9 6.24683 1.96672  18
  -7  -3  -9 8.63524 3.42169  11
  -7   3  -9 9.63959 2.47589  18
  -7   3  -9 5.30206 2.83093  17
  -7  -4   9 1.02957 2.82227  13
  -7   4   9 2.17451 2.01131  15
  -6  -4   9 4.43223 2.41711  12
  -6  -4   9 4.76604 4.10959  14
  -6  -4   9 4.16834 4.67273  13
  -6   4   9 5.17508 2.04898  15
  -6   4   9 5.30147 4.09369  16
  -6   4   9 2.68541 3.42063  14
  -5  -4   9 22.7598 3.37827  10
  -5  -4   9 22.7951 5.63397  14
  -5  -4   9 20.1720 5.77946  13
  -5  -4   9 23.7670 4.63900  12
  -5   4   9 21.0111 3.96291  15
  -5   4   9 24.8419 2.75670  10
  -5   4   9 22.7791 5.15469  16
  -5   4   9 20.0554 4.73442  14
  -4  -4   9 11.4682 1.97803   9
  -4  -4   9 9.64912 3.48064  12
  -4  -4   9 8.11185 10.5905   5
  -4  -4   9 -1.1212 6.43252   2
  -4  -4   9 12.5440 4.43378  13
  -4  -4   9 9.62672 4.68834  14
  -4  -4   9 10.6796 2.70118  10
  -4   4   9 10.9804 3.83710  16
  -4   4   9 12.3659 9.13779   6
  -4   4   9 15.2091 2.66584  10
  -4   4   9 12.1962 3.05051  15
  -4   4   9 11.3442 3.62015  14
  -3  -4   9 3.61717 8.24191   5
  -3  -4   9 7.04618 5.33801   3
  -3  -4   9 0.88046 5.15821   2
  -3  -4   9 5.98775 2.71055  12
  -3  -4   9 2.08802 1.79871   9
  -3  -4   9 7.47132 2.51266  10
  -3  -4   9 4.14826 0.95670   8
  -3  -4   9 4.72742 3.60020  13
  -3  -4   9 -1.5680 3.44239  14
  -3   4   9 1.09121 2.77454  14
  -3   4   9 4.96130 2.13158  10
  -3   4   9 5.24080 6.48569   6
  -3   4   9 5.03569 1.84834   9
  -3   4   9 3.77897 5.86153   3
  -3   4   9 4.45818 4.48799   2
  -3   4   9 10.7681 3.11034  16
  -3   4   9 2.46977 2.21511  15
  -2  -4   9 131.133 15.4526   2
  -2  -4   9 126.306 11.7098   9
  -2  -4   9 141.017 16.2847   3
  -2  -4   9 134.606 18.1218   5
  -2  -4   9 118.884 10.6610   8
  -2  -4   9 111.911 12.0027  10
  -2   4   9 121.060 10.3633   8
  -2   4   9 123.986 11.4270   9
  -2   4   9 118.710 11.9483  10
  -2   4   9 147.931 15.4800   3
  -2   4   9 145.154 14.6986   2
  -2   4   9 135.110 15.8029   6
  -2   4   9 109.331 12.1439  15
  -1  -4   9 62.3603 10.6915   3
  -1  -4   9 82.9457 11.7635   5
  -1  -4   9 53.0859 9.94461   2
  -1   4   9 72.3517 10.2023   2
  -1   4   9 62.1317 9.86974   6
  -1   4   9 64.7793 10.4027   3
   0  -4  -9 2.13572 4.95805   4
   0   4   9 -2.5931 4.39316   6
   0   4   9 3.28673 5.12967   2
   0   4   9 -3.1960 5.70195   3
  -1  -4  -9 16.8972 7.89250   2
  -1  -4  -9 38.4241 8.25810   4
  -1  -4  -9 31.5667 7.87234   3
  -1   4  -9 17.3831 5.72637   7
  -1   4  -9 19.1250 5.76809   3
  -1   4  -9 21.9150 6.23023   2
  -2  -4  -9 32.8773 10.1563   4
  -2  -4  -9 49.3436 11.1628   2
  -2  -4  -9 43.8645 4.47481   8
  -2  -4  -9 41.5235 4.99589   9
  -2  -4  -9 35.5344 9.51469   3
  -2   4  -9 21.4218 6.42032   3
  -2   4  -9 28.8911 7.01450   2
  -2   4  -9 36.4858 3.97361   8
  -2   4  -9 30.4412 4.08596   9
  -2   4  -9 36.3451 8.05861   7
  -3  -4  -9 2.46433 2.96270  10
  -3  -4  -9 10.4502 3.97292  11
  -3  -4  -9 1.19336 2.11055   8
  -3  -4  -9 -1.5628 10.0757   4
  -3  -4  -9 -1.7101 5.56832   3
  -3   4  -9 1.81235 2.66836  18
  -3   4  -9 -2.2996 8.49558   7
  -3   4  -9 1.69216 1.69486   9
  -3   4  -9 0.54202 1.11943   8
  -3   4  -9 2.54770 2.06330  10
  -3   4  -9 -2.3060 5.26815   3
  -3   4  -9 -3.2923 2.94654  17
  -3   4  -9 4.36537 6.05249   2
  -4  -4  -9 32.9334 11.0613   2
  -4  -4  -9 55.6989 7.71036  11
  -4  -4  -9 27.6302 13.4935   4
  -4  -4  -9 54.8811 7.88920  12
  -4  -4  -9 57.7119 6.51919  10
  -4  -4  -9 64.0023 6.62392   9
  -4   4  -9 32.9842 9.11434   2
  -4   4  -9 56.1813 6.00965  10
  -4   4  -9 49.5965 10.9119   7
  -4   4  -9 54.3553 7.06979  18
  -4   4  -9 48.4390 5.32837   9
  -4   4  -9 50.1608 6.54670  16
  -4   4  -9 55.6809 6.74774  17
  -5  -4  -9 28.5914 4.14203  10
  -5  -4  -9 32.0867 5.84023  11
  -5  -4  -9 12.7403 4.94446  12
  -5  -4  -9 20.5727 4.48622  18
  -5   4  -9 19.2109 4.05344  17
  -5   4  -9 18.5889 3.96727  16
  -5   4  -9 18.2722 5.01818  18
  -5   4  -9 22.3631 3.01271  10
  -6  -4  -9 -2.6403 2.81022  11
  -6  -4  -9 -4.7351 3.38086  12
  -6  -4  -9 -1.0751 3.07506  18
  -6   4  -9 -2.4857 3.59447  18
  -6   4  -9 2.98967 3.17751  17
  -7  -4  -9 3.58745 1.86774  11
  -7   4  -9 -0.6177 1.82444  18
  -7   4  -9 5.17649 2.47105  17
  -6  -5   9 0.64108 3.66308  14
  -6  -5   9 1.89257 2.99677  12
  -6  -5   9 2.82501 3.19437  13
  -6   5   9 8.34739 2.07781  15
  -6   5   9 6.46601 3.70310  16
  -6   5   9 1.39810 2.31834  14
  -5  -5   9 127.401 13.9555  12
  -5  -5   9 126.409 15.2666  13
  -5  -5   9 116.654 12.1298  10
  -5  -5   9 134.348 14.0532  14
  -5   5   9 126.973 13.0423  15
  -5   5   9 124.742 13.7566  14
  -5   5   9 127.989 11.7708  10
  -5   5   9 146.372 14.2678  16
  -4  -5   9 46.6559 5.39055   9
  -4  -5   9 58.4012 5.99567  10
  -4  -5   9 45.4798 7.57280  14
  -4  -5   9 24.0936 13.8606   5
  -4  -5   9 46.1610 7.36345  13
  -4  -5   9 47.6263 6.46575  12
  -4   5   9 47.1548 5.92550  15
  -4   5   9 57.5153 6.96459  16
  -4   5   9 46.6796 6.32934  14
  -4   5   9 45.7009 4.29249   9
  -4   5   9 18.3409 11.2815   6
  -3  -5   9 29.1774 4.36264   9
  -3  -5   9 24.1044 11.7002   5
  -3  -5   9 33.2066 9.61164   2
  -3  -5   9 36.0119 5.86427  13
  -3  -5   9 47.9201 6.74580  14
  -3  -5   9 37.3205 4.80597  10
  -3  -5   9 33.5792 8.55903   3
  -3  -5   9 31.0154 3.51965   8
  -3   5   9 29.3076 8.07444   3
  -3   5   9 23.8426 7.10625   2
  -3   5   9 39.9848 4.21454   9
  -3   5   9 43.7298 4.68461  10
  -3   5   9 40.0625 4.95771  15
  -3   5   9 39.7922 5.47500  16
  -3   5   9 37.1489 5.62828  14
  -3   5   9 24.1876 9.07129   6
  -2  -5   9 11.9869 7.34528   3
  -2  -5   9 11.0921 3.64110  13
  -2  -5   9 10.8561 3.08992  10
  -2  -5   9 8.64014 7.81877   5
  -2  -5   9 12.1986 2.38744   8
  -2  -5   9 11.8061 2.88899   9
  -2  -5   9 17.0818 6.91968   2
  -2   5   9 18.6594 6.98907   2
  -2   5   9 13.8433 1.99423   8
  -2   5   9 16.9736 6.62267   6
  -2   5   9 14.3814 2.71656  15
  -2   5   9 12.9250 2.49886   9
  -2   5   9 6.39024 5.60912   3
  -2   5   9 14.6917 2.97852  10
  -1  -5   9 113.147 15.3828   2
  -1  -5   9 118.400 16.1699   5
  -1  -5   9 104.190 15.3673   3
  -1  -5   9 127.062 10.4143   8
  -1   5   9 120.733 15.0846   2
  -1   5   9 99.4775 10.9527   9
  -1   5   9 118.855 15.4530   3
  -1   5   9 114.677 9.98293   8
  -1   5   9 125.540 14.7585   6
   0   5   9 25.7377 6.74840   6
  -1  -5  -9 25.7044 7.47156   4
  -1  -5  -9 40.1217 4.30220   8
  -1   5  -9 21.2933 7.08689   2
  -1   5  -9 23.2384 7.07068   3
  -1   5  -9 34.1308 7.51482   7
  -1   5  -9 29.2735 3.52380   8
  -2  -5  -9 4.67367 2.13922   8
  -2  -5  -9 4.40683 7.52778   3
  -2  -5  -9 6.99897 7.29154   4
  -2   5  -9 10.0269 6.24260   2
  -2   5  -9 -6.4737 6.22037   7
  -2   5  -9 4.70638 6.65257   3
  -2   5  -9 8.22601 1.85778   8
  -2   5  -9 3.14611 2.30679  10
  -2   5  -9 3.09431 2.18283   9
  -3  -5  -9 17.1480 3.30338   9
  -3  -5  -9 5.37929 3.65156  10
  -3  -5  -9 8.66738 9.20709   4
  -3  -5  -9 15.3693 2.70954   8
  -3  -5  -9 15.3615 3.84257  11
  -3  -5  -9 10.1119 10.1470   2
  -3  -5  -9 8.71345 7.24195   3
  -3   5  -9 8.53794 8.43625   7
  -3   5  -9 12.2879 3.26261  17
  -3   5  -9 10.3149 7.01090   3
  -3   5  -9 12.7772 1.74815   8
  -3   5  -9 11.8894 6.55600   2
  -3   5  -9 11.6376 3.41836  18
  -3   5  -9 12.1650 2.41555   9
  -3   5  -9 12.4433 2.85394  10
  -4  -5  -9 17.0967 3.39500   9
  -4  -5  -9 17.0877 4.17423  10
  -4  -5  -9 15.3671 12.4480   4
  -4  -5  -9 10.1875 5.32347  12
  -4  -5  -9 20.6286 4.73650  11
  -4   5  -9 19.8384 2.79337   9
  -4   5  -9 25.5648 3.37337  10
  -4   5  -9 16.4998 11.4907   7
  -4   5  -9 25.5649 4.72911  18
  -4   5  -9 14.7495 3.48001  16
  -4   5  -9 13.6042 3.85529  17
  -5  -5  -9 43.9059 7.62570  12
  -5  -5  -9 56.0729 6.37639  10
  -5  -5  -9 45.9005 7.35524  11
  -5   5  -9 54.6605 7.22243  18
  -5   5  -9 51.1308 5.48237  10
  -5   5  -9 52.1237 6.99846  17
  -6  -5  -9 3.79580 1.53868  10
  -6  -5  -9 0.24207 2.64994  12
  -6  -5  -9 2.50967 2.58301  11
  -6   5  -9 3.77573 3.16975  17
  -6   5  -9 10.0086 2.85315  18
  -6  -6   9 2.72392 1.95383  12
  -6  -6   9 7.73931 3.17613  14
  -6  -6   9 3.49188 2.95052  13
  -6   6   9 4.56979 2.31065  16
  -6   6   9 3.81581 1.67263  15
  -5  -6   9 6.38505 2.53967  10
  -5  -6   9 2.53765 3.16018  12
  -5  -6   9 8.81487 3.56056  13
  -5  -6   9 -1.6177 4.52283  14
  -5   6   9 4.91808 1.88062  15
  -5   6   9 5.54724 1.43759  10
  -5   6   9 9.11801 2.89180  16
  -4  -6   9 21.5973 5.62164  13
  -4  -6   9 27.8054 3.55821   9
  -4  -6   9 25.4193 6.60315  14
  -4  -6   9 29.6776 4.26024  10
  -4   6   9 28.9376 4.84173  14
  -4   6   9 31.9241 5.03726  16
  -4   6   9 38.2583 4.20713  10
  -4   6   9 18.5478 3.88040  15
  -3  -6   9 8.20543 1.71338   8
  -3  -6   9 10.2819 5.17150  14
  -3  -6   9 10.4365 10.2443   2
  -3  -6   9 6.45999 2.58621   9
  -3  -6   9 9.82487 11.4964   5
  -3  -6   9 8.50113 3.90019  13
  -3  -6   9 10.8830 3.23524  10
  -3   6   9 9.45610 3.35549  16
  -3   6   9 8.54442 8.94000   6
  -3   6   9 13.7060 2.47921   9
  -3   6   9 9.27408 2.61498  15
  -3   6   9 8.88112 7.30124   2
  -2  -6   9 -0.2038 3.23974  13
  -2  -6   9 -13.812 7.99561   3
  -2  -6   9 3.17468 8.92216   5
  -2  -6   9 -0.5599 2.89668  10
  -2  -6   9 -0.9042 2.31260   8
  -2  -6   9 -1.1516 2.38735   9
  -2  -6   9 7.70638 7.85423   2
  -2   6   9 1.71906 2.50345  10
  -2   6   9 -0.7542 6.63831   6
  -2   6   9 1.32560 7.04257   2
  -2   6   9 2.07873 1.50541   8
  -2   6   9 -0.8234 5.86174   3
  -2   6   9 1.00428 1.94172   9
  -1  -6   9 10.2260 2.62185   8
  -1  -6   9 2.97023 7.60738   2
  -1  -6   9 -0.8213 8.88144   3
  -1  -6   9 10.7121 8.13271   5
  -1   6   9 7.86265 1.97570   8
  -1   6   9 6.23707 5.93059   6
  -1   6   9 1.22268 6.78755   3
  -1   6   9 5.45791 2.50504   9
  -1   6   9 15.1103 7.21475   2
   0   6   9 23.8500 3.29899   8
  -1  -6  -9 18.8577 3.18944   8
  -1   6  -9 16.6975 2.68203   8
  -1   6  -9 19.2142 9.45588   7
  -2  -6  -9 0.26558 3.08542   9
  -2  -6  -9 -9.6914 8.82206   3
  -2  -6  -9 11.7899 9.59767   2
  -2  -6  -9 0.66196 2.41238   8
  -2   6  -9 -3.7705 7.39989   2
  -2   6  -9 7.45144 6.71019   3
  -2   6  -9 -5.3037 7.84508   7
  -2   6  -9 0.91337 1.87346   8
  -2   6  -9 5.20201 2.37502   9
  -3  -6  -9 6.77076 2.97154   9
  -3  -6  -9 0.67498 1.90242   8
  -3  -6  -9 0.06297 10.3583   4
  -3  -6  -9 -4.3390 3.45085  10
  -3  -6  -9 3.78284 12.2156   2
  -3   6  -9 -0.2512 7.18921   2
  -3   6  -9 2.43779 2.84704  17
  -3   6  -9 2.01821 2.36112  10
  -3   6  -9 -0.3161 1.96570   9
  -3   6  -9 -7.8573 10.2205   7
  -3   6  -9 0.46516 1.04754   8
  -3   6  -9 2.13006 3.11372  18
  -4  -6  -9 5.32322 4.88989  12
  -4  -6  -9 9.82920 3.59268  10
  -4  -6  -9 7.97017 2.82583   9
  -4   6  -9 5.96606 2.54104  10
  -4   6  -9 8.13805 2.13722   9
  -4   6  -9 5.91303 3.28803  17
  -4   6  -9 10.3593 3.98341  18
  -5  -6  -9 28.8828 4.25948  10
  -5  -6  -9 11.7648 5.07361  12
  -5  -6  -9 10.5205 4.32629  11
  -5   6  -9 24.7137 4.09973  18
  -5   6  -9 20.4035 4.08238  17
  -5   6  -9 23.0183 2.97060  10
  -6  -6  -9 15.4524 4.05412  12
  -6  -6  -9 11.3243 2.43091  11
  -6   6  -9 14.1627 3.26795  17
  -6   6  -9 17.0796 3.44920  18
  -6  -7   9 12.8110 3.28158  13
  -6   7   9 9.38152 2.84665  16
  -5  -7   9 2.90856 3.03002  14
  -5  -7   9 4.19489 3.13684  13
  -5  -7   9 6.19414 2.30243  10
  -5   7   9 4.47582 2.51266  16
  -5   7   9 -0.6517 2.24209  15
  -5   7   9 6.90259 1.38117  10
  -4  -7   9 20.0204 6.47358  14
  -4  -7   9 28.2115 3.69819   9
  -4  -7   9 26.2728 4.36478  10
  -4  -7   9 38.0245 6.14674  13
  -4   7   9 35.2489 4.71915  16
  -4   7   9 38.9909 4.09321  10
  -4   7   9 20.0861 3.86370  15
  -3  -7   9 31.0502 4.86955   9
  -3  -7   9 53.0551 7.99695  14
  -3  -7   9 39.6142 5.67142  10
  -3  -7   9 43.0812 6.74870  13
  -3   7   9 38.0099 5.71039  16
  -3   7   9 43.3887 4.72742   9
  -3   7   9 45.4228 5.24987  10
  -2  -7   9 97.6334 13.6470  13
  -2  -7   9 116.331 11.7285   9
  -2  -7   9 52.4758 17.5935   5
  -2  -7   9 119.303 10.5701   8
  -2   7   9 123.077 10.0366   8
  -2   7   9 130.105 11.2353   9
  -2   7   9 123.623 12.7111  16
  -2   7   9 129.675 17.4607   2
  -1  -7   9 30.0322 4.18066   8
  -1  -7   9 25.3471 13.8246   5
  -1   7   9 31.2485 4.09777   9
  -1   7   9 35.8764 3.69210   8
  -1   7   9 19.0857 11.8024   2
  -1   7   9 2.54472 8.84382   3
   0   7   9 243.194 20.6083   8
  -1  -7  -9 38.9089 4.95139   8
  -1   7  -9 34.2928 4.10159   8
  -2  -7  -9 373.863 34.6435   9
  -2  -7  -9 372.635 32.0301   8
  -2   7  -9 377.832 43.5108   7
  -2   7  -9 398.278 34.2015   9
  -2   7  -9 389.768 31.7477   8
  -3  -7  -9 60.4502 8.97508  12
  -3  -7  -9 61.8932 6.39570   8
  -3  -7  -9 68.3866 7.90236   9
  -3  -7  -9 58.0328 7.48058  10
  -3   7  -9 81.5191 8.39087  18
  -3   7  -9 64.1850 6.94167  10
  -3   7  -9 60.0690 8.07920  17
  -3   7  -9 63.0309 5.56642   8
  -3   7  -9 68.7603 6.87207   9
  -4  -7  -9 101.278 10.7233  10
  -4  -7  -9 88.2751 9.83682   9
  -4  -7  -9 103.160 11.7126  12
  -4   7  -9 103.344 9.20915   9
  -4   7  -9 102.641 9.97877  10
  -4   7  -9 92.9578 11.0597  17
  -4   7  -9 99.8593 10.8185  18
  -5  -7  -9 12.6602 3.38949  10
  -5  -7  -9 8.79765 3.66608  12
  -5   7  -9 8.76372 2.84134  18
  -5   7  -9 13.3574 2.63250  17
  -5   7  -9 10.7554 1.76607  10
  -6  -7  -9 20.6163 3.34325  12
  -6   7  -9 14.6169 2.45493  18
  -5  -8   9 11.6686 3.24141  13
  -5  -8   9 12.8657 2.41790  10
  -5   8   9 10.6284 1.38776  10
  -5   8   9 10.2884 2.54912  16
  -4  -8   9 7.85009 3.00104  10
  -4  -8   9 9.00683 4.95578  14
  -4  -8   9 3.14049 2.11630   9
  -4  -8   9 3.89900 3.00679  13
  -4   8   9 5.17921 1.97814  10
  -4   8   9 2.96328 2.12894  16
  -3  -8   9 7.53339 4.25127  13
  -3  -8   9 11.4101 3.08687   9
  -3  -8   9 11.6867 3.81537  10
  -3  -8   9 7.16905 5.75809  14
  -3   8   9 10.3792 2.22851  10
  -3   8   9 7.97241 2.03576   9
  -3   8   9 5.89919 3.34596  16
  -2  -8   9 4.86800 2.44988   8
  -2  -8   9 9.12083 4.52976  13
  -2  -8   9 10.8010 3.48187   9
  -2   8   9 9.32265 1.79297   8
  -2   8   9 9.48833 3.02070  10
  -2   8   9 10.1297 2.62764   9
  -2   8   9 7.79997 3.06269  16
  -1  -8   9 20.9761 3.66488   8
  -1   8   9 16.4704 2.65367   8
  -1   8   9 18.0882 3.07695   9
   0  -8   9 7.43052 3.40229   8
   0   8   9 3.86255 2.31633   8
   0   8  -9 2.04276 2.59712   8
  -1  -8  -9 80.8020 8.43112   8
  -1   8  -9 80.7354 7.76175   8
  -2  -8  -9 18.8443 3.63919   8
  -2  -8  -9 18.6441 4.56856   9
  -2   8  -9 19.4827 2.55366   8
  -2   8  -9 14.0116 3.32700   9
  -3  -8  -9 9.33836 1.94132   8
  -3  -8  -9 11.7563 3.61492   9
  -3  -8  -9 11.4522 4.37929  10
  -3  -8  -9 6.55964 4.60949  12
  -3   8  -9 7.97788 3.43504  18
  -3   8  -9 13.8731 2.67134   9
  -3   8  -9 11.4871 3.06476  10
  -4  -8  -9 18.7704 4.20858  12
  -4  -8  -9 15.6417 4.15490  10
  -4  -8  -9 14.1650 2.99159   9
  -4   8  -9 12.4398 2.93149  17
  -4   8  -9 23.9404 3.54678  18
  -4   8  -9 15.0787 2.64739  10
  -4   8  -9 17.4232 2.19687   9
  -5  -8  -9 9.47504 2.54551  10
  -5  -8  -9 6.01949 2.98329  12
  -5   8  -9 8.27393 2.05859  17
  -5   8  -9 4.55406 1.43534  10
  -5   8  -9 2.88112 2.09102  18
  -5   9   9 7.65092 1.79870  16
  -4  -9   9 4.47022 2.73242  13
  -4  -9   9 -1.1495 1.84988  10
  -4  -9   9 2.56732 2.39386  14
  -4   9   9 3.23848 1.74490  10
  -4   9   9 -0.4290 2.44636  16
  -3  -9   9 22.3596 5.88325  14
  -3  -9   9 14.1051 4.94283  13
  -3  -9   9 23.4016 4.03756   9
  -3  -9   9 19.6086 3.96534  10
  -3   9   9 30.8984 3.33605   9
  -3   9   9 27.3497 3.64340  10
  -3   9   9 30.7108 3.93314  16
  -2  -9   9 36.3069 4.48444   9
  -2  -9   9 30.1029 3.85853   8
  -2   9   9 22.6963 3.95909  10
  -2   9   9 14.0811 3.74771  17
  -2   9   9 26.2382 2.63575   8
  -2   9   9 26.0747 4.25879  16
  -2   9   9 35.5508 3.96243   9
  -1  -9   9 12.2195 3.52197   8
  -1   9   9 20.1761 2.76835   8
  -1   9   9 21.5210 3.22622   9
  -1   9   9 14.5314 3.58696  16
   0  -9   9 9.86306 2.80047   8
   0   9  -9 6.58893 2.75905   8
   0   9   9 4.16028 2.47362   8
  -1  -9  -9 27.6093 4.37005   8
  -1   9  -9 23.5091 3.34108   8
  -2  -9  -9 10.5257 2.80866   8
  -2  -9  -9 8.67380 3.80391   9
  -2  -9  -9 9.59997 3.36353  12
  -2   9  -9 8.88184 2.87768   9
  -2   9  -9 5.77566 1.61847   8
  -3  -9  -9 108.474 10.8614   9
  -3  -9  -9 106.591 12.4842  12
  -3   9  -9 121.215 10.1272   9
  -3   9  -9 93.9523 11.0558  18
  -3   9  -9 102.716 10.7041  10
  -4  -9  -9 2.56058 2.64218  12
  -4  -9  -9 4.30309 3.14122  10
  -4  -9  -9 0.83441 1.64496   9
  -4   9  -9 3.03968 1.98999  10
  -4   9  -9 3.41484 2.00556  18
  -5  -9  -9 50.5527 4.94173  10
  -5   9  -9 45.7078 4.50105  10
  -4 -10   9 7.60451 2.80250  10
  -4  10   9 8.19461 2.08310  16
  -4  10   9 10.6744 1.66726  10
  -3 -10   9 -1.2705 2.49391  10
  -3 -10   9 0.73925 2.25260   9
  -3 -10   9 0.32502 2.60416  14
  -3  10   9 2.52772 1.07817   9
  -3  10   9 -0.1434 1.30080  16
  -3  10   9 0.40518 1.41405  10
  -2 -10   9 1.72836 1.74167   8
  -2 -10   9 -2.0586 3.26896   9
  -2  10   9 0.20212 1.83497  17
  -2  10   9 1.45801 2.12400   9
  -2  10   9 2.32397 1.51609  16
  -1 -10   9 3.55329 2.79843   8
  -1  10   9 8.16637 1.76097   8
  -1  10   9 5.71679 1.87569  16
  -1  10   9 7.86048 2.37081   9
   0 -10  -9 53.5767 6.07772   8
   0 -10   9 57.4895 6.51191   8
   0  10   9 61.2275 5.75503   8
   0  10  -9 50.5142 5.95827   8
  -1 -10  -9 11.3456 3.25138   8
   1  10   9 10.1668 2.83465   8
  -1  10  -9 11.7601 2.28238   8
  -2 -10  -9 3.92838 2.02964   8
  -2 -10  -9 2.13173 3.47010   9
  -2 -10  -9 2.36327 3.31140  12
  -2  10  -9 6.92051 2.53394   9
  -2  10  -9 3.00123 0.97766   8
  -3 -10  -9 4.21215 3.38229  12
  -3 -10  -9 4.23293 2.73041   9
  -3  10  -9 6.77106 1.47596   9
  -3  10  -9 7.84796 2.49621  10
  -3  10  -9 6.43429 1.98873  18
  -4 -10  -9 0.52197 2.39411  10
  -4  10  -9 -0.4436 1.05662  10
  -3 -11   9 13.5258 2.25834   9
  -3  11   9 15.9791 2.15161  10
  -2 -11   9 11.8928 2.89802  14
  -2 -11   9 8.19667 3.16402   9
  -2  11   9 13.9701 1.92122   9
  -1 -11   9 3.59066 2.71907   9
  -1 -11   9 2.85047 1.63848   8
  -1  11   9 3.32237 2.55372   9
  -1  11   9 4.96294 1.15889   8
   1  11  -9 4.59358 1.69362   8
  -1  11   9 7.41409 2.52010  17
   0 -11  -9 4.33088 3.00593   8
   0 -11   9 5.33877 3.03628   8
   0  11  -9 1.04578 1.97195   8
   0  11   9 5.91784 1.72230   8
  -1 -11  -9 26.2873 3.33360   8
   1 -11   9 21.7359 4.44188   8
   1  11   9 24.1399 3.11961   8
  -1  11  -9 19.8389 3.16198   9
  -1  11  -9 23.8114 2.65340   8
  -2 -11  -9 4.74248 2.15675   9
  -2 -11  -9 3.37654 0.91530   8
  -2  11  -9 1.73121 1.61428  18
  -2  11  -9 2.55294 1.45901   9
  -3 -11  -9 20.5540 2.48387   9
   0 -12   9 1.60183 1.38445   8
   0  12  -9 2.53239 1.13749   8
   0  12   9 2.08280 0.94839   8
  -7   0  10 76.7307 10.0504  13
  -7   0  10 91.6294 9.42881  14
  -6   0  10 189.520 17.6334  15
  -6   0  10 168.091 20.1680  13
  -6   0  10 169.797 17.9802  14
  -5   0  10 5.34150 3.31832  15
  -5   0  10 8.81531 3.94091  13
  -5   0  10 7.00324 1.59457  10
  -5   0  10 12.5086 4.13787  14
  -4   0  10 74.6427 15.3462   5
  -4   0  10 45.5317 11.8951   6
  -4   0  10 70.5048 8.45227  15
  -4   0  10 69.8538 10.1713  13
  -4   0  10 63.5567 9.01074  14
  -4   0  10 85.3871 9.33907  12
  -4   0  10 79.7249 7.63567  10
  -3   0  10 19.2824 5.85021   3
  -3   0  10 23.9866 3.46250  10
  -3   0  10 28.4945 9.07775   5
  -3   0  10 25.1884 4.85509  13
  -3   0  10 25.7558 3.81686  15
  -3   0  10 20.8082 3.96487  14
  -3   0  10 22.3297 2.98993   9
  -3   0  10 18.2637 5.34985   2
  -3   0  10 19.8724 6.97520   6
  -2   0  10 143.762 17.1805   2
  -2   0  10 156.493 18.7527   6
  -2   0  10 167.805 20.2406   5
  -2   0  10 164.161 18.8329   3
  -1   0  10 197.713 22.6400   5
  -1   0  10 185.348 21.3460   2
  -1   0  10 204.610 22.6846   3
   0   0  10 196.964 21.5359   2
   0   0  10 181.494 18.7730   1
   0   0  10 213.848 22.6944   3
   0   0 -10 198.602 17.8058   1
  -1   0 -10 482.456 45.0055   1
  -1   0 -10 596.942 55.8184   3
  -1   0 -10 572.584 52.9815   2
  -2   0 -10 470.293 45.1502   2
  -2   0 -10 456.432 47.3191   3
  -2   0 -10 467.378 49.1332   4
  -2   0 -10 461.340 48.7105   7
  -3   0 -10 35.4719 10.1514   4
  -3   0 -10 41.1104 4.39958   9
  -3   0 -10 33.4387 8.73495   7
  -3   0 -10 39.7000 5.03212  18
  -3   0 -10 37.0921 4.62032  10
  -3   0 -10 34.8338 7.20667   2
  -3   0 -10 37.1960 3.97816   8
  -3   0 -10 28.8576 6.40204   3
  -4   0 -10 12.5820 6.85760   2
  -4   0 -10 24.1386 3.18260   9
  -4   0 -10 19.9450 14.5030   4
  -4   0 -10 27.0018 3.58975  10
  -4   0 -10 14.0316 4.72526  11
  -4   0 -10 25.7997 4.16183  17
  -4   0 -10 19.7784 5.60614   3
  -4   0 -10 32.8698 9.63214   7
  -4   0 -10 27.0286 4.53622  18
  -5   0 -10 14.0872 5.37149  11
  -5   0 -10 27.0420 3.97573  10
  -5   0 -10 27.2216 4.79259  18
  -5   0 -10 22.8276 4.47477  17
  -6   0 -10 25.8028 5.78038  11
  -6   0 -10 34.9345 5.25135  17
  -6   0 -10 35.1890 4.72218  18
  -7   0 -10 23.0653 3.63549  18
  -7   0 -10 31.8725 4.00014  11
  -7  -1  10 1.40523 2.09173  14
  -7  -1  10 2.67001 3.16972  13
  -7   1  10 4.26634 2.48781  15
  -7   1  10 -0.0116 2.89645  14
  -6  -1  10 9.84926 3.93214  13
  -6  -1  10 9.76289 3.19443  14
  -6  -1  10 8.20870 2.99217  15
  -6   1  10 2.45222 3.65788  14
  -6   1  10 17.5544 4.40935  13
  -6   1  10 8.63606 3.44067  15
  -5  -1  10 0.43529 4.50745  13
  -5  -1  10 -0.1783 3.02342  15
  -5  -1  10 1.69735 1.31608  10
  -5  -1  10 7.36420 3.63473  12
  -5  -1  10 6.51968 4.01134  14
  -5   1  10 -0.9546 2.95276  15
  -5   1  10 4.78424 3.77861  13
  -5   1  10 3.88545 1.25638  10
  -5   1  10 4.57359 3.68791  14
  -4  -1  10 46.6252 5.30520  10
  -4  -1  10 58.0471 6.71968  12
  -4  -1  10 36.6123 5.60594   3
  -4  -1  10 45.0510 10.5697   6
  -4  -1  10 47.2260 6.41705  14
  -4  -1  10 44.4029 4.20469   9
  -4  -1  10 40.3549 5.34480   2
  -4  -1  10 45.1776 7.21640  13
  -4  -1  10 6.92324 10.4586   5
  -4  -1  10 56.6602 6.21211  15
  -4   1  10 42.3492 10.6163   6
  -4   1  10 55.1402 7.80981  13
  -4   1  10 54.9028 5.39814  10
  -4   1  10 50.8875 6.29770  15
  -4   1  10 44.7870 6.28140  14
  -3  -1  10 82.0465 8.76676  10
  -3  -1  10 78.5176 11.1268   2
  -3  -1  10 86.1879 9.77561  14
  -3  -1  10 90.8371 11.7068   3
  -3  -1  10 89.7038 9.98772  12
  -3  -1  10 84.6065 10.7522  13
  -3  -1  10 87.1093 8.15917   9
  -3  -1  10 115.852 15.1216   6
  -3  -1  10 79.3369 9.26465  15
  -3  -1  10 76.8182 14.5018   5
  -3   1  10 76.2809 11.8967   3
  -3   1  10 108.406 14.3441   6
  -3   1  10 91.1035 11.0563  13
  -3   1  10 80.3289 8.12250   9
  -3   1  10 94.7256 15.4605   5
  -3   1  10 81.1785 9.12287  15
  -3   1  10 80.3764 9.62167  14
  -3   1  10 92.6324 8.66590  10
  -3   1  10 92.6013 10.8517   2
  -2  -1  10 15.3378 6.23625   2
  -2  -1  10 12.4731 5.20310   3
  -2  -1  10 15.1596 6.90801   6
  -2  -1  10 18.5000 7.08710   5
  -2   1  10 18.7594 5.84096   6
  -2   1  10 7.90321 6.06853   3
  -2   1  10 21.0445 7.30866   5
  -2   1  10 18.7470 5.71012   2
  -1  -1  10 21.0027 7.28263   5
  -1  -1  10 20.1312 6.92667   2
  -1  -1  10 26.0018 6.56921   3
  -1   1  10 27.9589 6.46605   2
  -1   1  10 37.9946 7.16547   6
  -1   1  10 17.1152 6.01635   3
   0  -1  10 14.2764 5.57031   3
   0  -1  10 13.0483 5.64048   2
   0  -1 -10 9.11514 3.93538   1
   0   1 -10 10.0339 3.94169   1
   0   1  10 11.7204 5.34311   3
   0   1  10 10.5506 5.19877   2
  -1  -1 -10 0.56585 5.22357   3
  -1  -1 -10 17.5362 5.59260   2
  -1  -1 -10 13.0306 5.26682   1
  -1   1 -10 14.6828 5.06197   2
  -1   1 -10 10.4769 4.51453   1
  -1   1 -10 8.94690 4.46037   7
  -1   1 -10 13.3226 5.39525   3
  -2  -1 -10 3.26302 5.70269   4
  -2  -1 -10 8.71498 4.81073   3
  -2  -1 -10 12.3042 6.48437   2
  -2   1 -10 12.0246 4.98041   2
  -2   1 -10 9.55321 5.22990   3
  -2   1 -10 10.0738 4.93598   7
  -3  -1 -10 99.6324 8.89577   8
  -3  -1 -10 110.275 13.6060   3
  -3  -1 -10 101.695 10.9868  17
  -3  -1 -10 113.165 10.2243  10
  -3  -1 -10 101.916 11.7248  11
  -3  -1 -10 97.7377 16.7770   4
  -3  -1 -10 115.721 14.2053   2
  -3  -1 -10 83.2810 10.8246  18
  -3  -1 -10 109.553 10.1469   9
  -3   1 -10 95.5930 10.8840  18
  -3   1 -10 97.8259 12.7176   3
  -3   1 -10 119.724 17.9651   4
  -3   1 -10 98.6197 8.77670   8
  -3   1 -10 98.2236 9.58974   9
  -3   1 -10 111.911 15.1419   7
  -3   1 -10 104.525 10.0495  10
  -3   1 -10 111.221 13.5820   2
  -4  -1 -10 21.7540 8.41907   2
  -4  -1 -10 26.5160 4.28375  17
  -4  -1 -10 25.9792 3.80991  10
  -4  -1 -10 24.9018 3.62868   9
  -4  -1 -10 24.7351 5.18946  11
  -4  -1 -10 25.9750 12.3734   4
  -4  -1 -10 22.5118 4.32766  18
  -4  -1 -10 19.4894 6.46948   3
  -4   1 -10 25.7871 4.50606  18
  -4   1 -10 28.9512 4.96628  11
  -4   1 -10 15.5684 11.6276   4
  -4   1 -10 12.1557 7.52515   2
  -4   1 -10 13.5473 5.46595   3
  -4   1 -10 22.1741 4.06727  17
  -4   1 -10 28.7584 3.57315  10
  -4   1 -10 21.0513 9.34264   7
  -4   1 -10 24.5161 3.13942   9
  -5  -1 -10 8.03962 3.75996  18
  -5  -1 -10 4.88593 2.60900  10
  -5  -1 -10 8.85195 4.94822  11
  -5  -1 -10 6.35887 3.64491  17
  -5   1 -10 8.69223 3.37795  17
  -5   1 -10 14.1089 3.01950  10
  -5   1 -10 5.59111 4.11042  11
  -5   1 -10 10.5526 3.21238  18
  -6  -1 -10 40.6849 5.71743  11
  -6  -1 -10 30.8805 3.26364  10
  -6  -1 -10 20.6810 4.60807  18
  -6   1 -10 25.8302 5.19514  11
  -6   1 -10 29.0077 5.10136  18
  -6   1 -10 36.7768 4.58429  17
  -7  -1 -10 6.28397 2.48336  11
  -7  -1 -10 6.21541 2.67948  18
  -7   1 -10 3.07429 2.15329  18
  -7   1 -10 3.46548 2.53285  11
  -7  -2  10 -0.1672 3.08281  13
  -7  -2  10 0.59980 2.01199  14
  -7   2  10 1.40721 1.60214  15
  -7   2  10 1.37631 2.10760  14
  -6  -2  10 31.6802 5.59789  14
  -6  -2  10 36.4114 5.76504  13
  -6   2  10 33.4104 4.66566  14
  -6   2  10 37.7270 6.05589  13
  -6   2  10 22.8910 4.56109  15
  -5  -2  10 3.83526 2.61248  12
  -5  -2  10 -0.5962 3.32507  13
  -5  -2  10 4.36156 4.22129  14
  -5  -2  10 2.25930 1.59426  10
  -5  -2  10 0.67291 2.83162  15
  -5   2  10 6.36768 5.37901  13
  -5   2  10 -1.4833 3.43721  14
  -5   2  10 4.92234 2.96942  15
  -5   2  10 1.94706 1.28869  10
  -5   2  10 6.97726 3.95462  16
  -4  -2  10 92.5909 12.7033   3
  -4  -2  10 116.085 20.1311   5
  -4  -2  10 112.112 14.0244  13
  -4  -2  10 120.213 10.3683   9
  -4  -2  10 111.199 12.1310  15
  -4  -2  10 122.072 13.0214  12
  -4  -2  10 106.755 12.4712   2
  -4  -2  10 112.181 11.3193  10
  -4  -2  10 123.529 13.1734  14
  -4   2  10 107.240 12.7611  16
  -4   2  10 125.270 12.7300  14
  -4   2  10 96.9593 16.6500   6
  -4   2  10 116.247 14.4900  13
  -4   2  10 125.663 12.2268  15
  -4   2  10 128.991 11.2000  10
  -3  -2  10 40.2326 9.29335   6
  -3  -2  10 35.3247 4.33858   9
  -3  -2  10 37.7744 5.59193  14
  -3  -2  10 32.0880 5.79367  13
  -3  -2  10 37.8879 5.14055  15
  -3  -2  10 31.7304 7.54573   2
  -3  -2  10 20.7630 9.90767   5
  -3  -2  10 37.8099 7.21791   3
  -3  -2  10 35.3826 4.78446  10
  -3  -2  10 39.2805 5.39271  12
  -3   2  10 42.5026 5.08778  15
  -3   2  10 49.9990 5.85491  16
  -3   2  10 37.8420 7.97865   3
  -3   2  10 42.9794 7.05148   2
  -3   2  10 44.0141 5.39830  14
  -3   2  10 39.4096 9.07017   6
  -3   2  10 40.4015 6.61799  13
  -3   2  10 33.7726 4.15267   9
  -3   2  10 42.4314 4.88679  10
  -2  -2  10 17.2007 7.66295   5
  -2  -2  10 20.2220 2.55091   8
  -2  -2  10 15.4636 6.05255   2
  -2  -2  10 37.4823 7.41660   3
  -2  -2  10 18.0940 6.76930   6
  -2   2  10 20.0862 5.35555   2
  -2   2  10 16.1484 5.96604   6
  -2   2  10 18.5979 5.82791   3
  -2   2  10 22.5564 2.41089   8
  -1  -2  10 187.218 19.3756   2
  -1  -2  10 175.165 20.1191   5
  -1  -2  10 165.679 20.0388   3
  -1   2  10 155.721 20.0237   3
  -1   2  10 167.849 18.9217   6
  -1   2  10 161.476 18.9688   2
   0  -2  10 46.2798 10.3205   2
   0  -2  10 56.8076 10.3075   3
   0   2  10 50.0273 9.03841   2
   0   2  10 59.8719 9.49292   3
  -1  -2 -10 384.960 40.0141   2
  -1  -2 -10 438.363 43.1793   4
  -1  -2 -10 406.209 42.2613   3
  -1   2 -10 373.588 42.2272   7
  -1   2 -10 432.564 39.8062   2
  -1   2 -10 405.842 41.7231   3
  -2  -2 -10 75.2825 12.5389   4
  -2  -2 -10 68.0479 11.1577   2
  -2  -2 -10 54.3422 9.11610   3
  -2   2 -10 56.9992 9.02129   2
  -2   2 -10 55.8158 9.76252   7
  -2   2 -10 55.5501 8.97872   3
  -3  -2 -10 -1.6879 7.93629   4
  -3  -2 -10 13.0590 2.87186   9
  -3  -2 -10 14.4431 3.10205  10
  -3  -2 -10 8.31086 3.46461  11
  -3  -2 -10 13.5528 2.29974   8
  -3  -2 -10 15.5184 5.51734   3
  -3  -2 -10 12.3708 6.50948   2
  -3   2 -10 13.4261 2.64941  10
  -3   2 -10 13.7566 10.1038   4
  -3   2 -10 1.91638 4.20380   3
  -3   2 -10 10.9877 2.27671   9
  -3   2 -10 10.1061 2.94340  18
  -3   2 -10 9.74723 1.80436   8
  -3   2 -10 9.45767 6.25080   2
  -3   2 -10 9.20063 6.94596   7
  -4  -2 -10 22.5667 6.82920   3
  -4  -2 -10 30.2033 9.26470   2
  -4  -2 -10 37.6621 5.56834  12
  -4  -2 -10 22.4305 12.5679   4
  -4  -2 -10 38.7449 6.12728  11
  -4  -2 -10 42.5904 4.63326   9
  -4  -2 -10 36.5058 5.15718  18
  -4  -2 -10 45.2511 4.98406  10
  -4   2 -10 26.8748 5.22012  11
  -4   2 -10 31.6141 10.6718   7
  -4   2 -10 39.0371 4.64818  10
  -4   2 -10 32.5139 4.95329  17
  -4   2 -10 43.9345 4.48339   9
  -4   2 -10 31.2418 14.3774   4
  -4   2 -10 13.2716 6.14484   3
  -4   2 -10 21.8441 8.41934   2
  -4   2 -10 32.4525 5.24031  18
  -5  -2 -10 7.29945 3.44001  18
  -5  -2 -10 0.01304 3.12886  12
  -5  -2 -10 5.16540 3.25898  10
  -5  -2 -10 5.79910 3.55483  11
  -5   2 -10 0.28392 2.45492  10
  -5   2 -10 8.35185 2.96983  18
  -5   2 -10 -1.0587 3.09130  17
  -5   2 -10 3.44764 3.49738  11
  -6  -2 -10 20.6804 4.45822  11
  -6  -2 -10 17.8817 4.14028  18
  -6   2 -10 15.3110 3.47760  18
  -6   2 -10 24.7131 3.60455  17
  -6   2 -10 19.0672 3.50436  11
  -7  -2 -10 0.32597 2.26103  18
  -7  -2 -10 -0.2351 2.17999  11
  -7   2 -10 0.47167 2.57130  17
  -7   2 -10 3.09653 2.60498  18
  -7  -3  10 -1.2001 2.64738  14
  -7  -3  10 3.00060 2.87054  13
  -7   3  10 5.62408 1.94642  14
  -7   3  10 -0.7786 1.37891  15
  -6  -3  10 4.36438 4.19097  14
  -6  -3  10 4.86267 2.53229  12
  -6  -3  10 5.34236 4.53224  13
  -6   3  10 4.32788 2.20791  15
  -6   3  10 5.10642 3.21072  16
  -6   3  10 -0.8886 2.40405  14
  -5  -3  10 0.02308 3.27362  14
  -5  -3  10 9.73651 3.76206  13
  -5  -3  10 2.70684 2.08279  10
  -5  -3  10 3.23530 3.45800  12
  -5   3  10 14.2164 4.54317  16
  -5   3  10 5.43404 3.05835  15
  -5   3  10 8.76320 3.72292  14
  -4  -3  10 29.7768 5.12140  12
  -4  -3  10 7.10037 11.2648   5
  -4  -3  10 44.8154 5.59318  14
  -4  -3  10 16.7827 6.04768   2
  -4  -3  10 37.3552 4.60735  10
  -4  -3  10 31.8541 3.60902   9
  -4  -3  10 32.3199 5.85683  13
  -4   3  10 23.1468 9.83722   6
  -4   3  10 35.3998 5.59264  16
  -4   3  10 28.8179 5.10950  14
  -4   3  10 26.6244 6.68251  13
  -4   3  10 37.2052 4.12738  10
  -4   3  10 27.7483 4.71992  15
  -3  -3  10 37.2325 5.56148  14
  -3  -3  10 38.5995 5.02757  12
  -3  -3  10 36.7087 4.43129   9
  -3  -3  10 31.2018 5.54278  13
  -3  -3  10 30.0973 7.35325   3
  -3  -3  10 10.8633 9.10305   5
  -3  -3  10 22.9100 8.08264   2
  -3  -3  10 39.6250 4.67509  10
  -3  -3  10 31.0151 5.13750  15
  -3   3  10 30.6924 8.99159   6
  -3   3  10 51.6930 6.95914  13
  -3   3  10 37.1877 5.26765  16
  -3   3  10 20.8144 8.12620   3
  -3   3  10 31.0797 3.92303   9
  -3   3  10 40.1303 4.40368  10
  -3   3  10 29.2639 4.79192  14
  -3   3  10 27.1233 6.62775   2
  -3   3  10 37.9063 4.74580  15
  -2  -3  10 8.29849 6.85257   2
  -2  -3  10 6.75155 2.66139  10
  -2  -3  10 8.48956 2.40232   9
  -2  -3  10 5.75440 2.08263   8
  -2  -3  10 2.70657 6.68183   5
  -2  -3  10 3.77785 4.82697   3
  -2   3  10 4.72440 2.47012  10
  -2   3  10 8.10319 6.11994   3
  -2   3  10 14.0671 5.73689   2
  -2   3  10 8.03674 2.20798   9
  -2   3  10 8.90159 1.60770   8
  -2   3  10 9.41051 2.38279  15
  -2   3  10 8.68638 5.72258   6
  -1  -3  10 91.3285 13.7334   5
  -1  -3  10 74.2354 12.7168   2
  -1  -3  10 98.3324 13.9365   3
  -1   3  10 101.068 12.8777   2
  -1   3  10 104.140 12.6202   6
  -1   3  10 101.381 13.2781   3
   0  -3  10 29.7589 7.61107   2
   0  -3  10 13.1578 6.39084   3
   0   3  10 36.3947 7.41740   6
   0   3  10 31.5971 8.36348   3
   0   3  10 30.6572 8.14220   2
  -1  -3 -10 150.682 20.7185   2
  -1  -3 -10 220.261 22.2009   4
  -1  -3 -10 168.454 21.4964   3
  -1   3 -10 203.046 20.9862   2
  -1   3 -10 189.941 20.9228   3
  -1   3 -10 179.585 21.0436   7
  -2  -3 -10 22.6067 3.11753   8
  -2  -3 -10 5.54766 8.31200   2
  -2  -3 -10 12.2588 7.35255   4
  -2  -3 -10 23.8390 8.27595   3
  -2   3 -10 18.7383 3.03800   9
  -2   3 -10 23.8731 2.56641   8
  -2   3 -10 18.3777 6.49127   7
  -2   3 -10 20.6865 7.03110   2
  -2   3 -10 11.9310 5.21825   3
  -3  -3 -10 74.8114 9.63008  11
  -3  -3 -10 59.1848 13.8952   4
  -3  -3 -10 65.0708 7.21483   8
  -3  -3 -10 71.0049 11.9478   3
  -3  -3 -10 77.9612 13.8651   2
  -3  -3 -10 87.5609 8.78443   9
  -3  -3 -10 80.4160 8.81724  10
  -3   3 -10 84.3185 7.78016   9
  -3   3 -10 98.0428 15.1695   4
  -3   3 -10 83.6902 6.92770   8
  -3   3 -10 81.1320 8.18143  10
  -3   3 -10 87.1098 9.03221  18
  -3   3 -10 60.1825 10.3934   3
  -3   3 -10 74.1167 13.0253   7
  -3   3 -10 84.5524 11.6218   2
  -4  -3 -10 45.9363 5.40294  10
  -4  -3 -10 40.9267 6.29520  12
  -4  -3 -10 11.1234 12.0932   4
  -4  -3 -10 33.2548 6.26648  11
  -4  -3 -10 42.4067 5.07658   9
  -4   3 -10 38.5321 5.58932  11
  -4   3 -10 42.4210 5.09399  10
  -4   3 -10 33.0702 11.5860   7
  -4   3 -10 42.3475 4.70056   9
  -4   3 -10 37.8240 5.37868  17
  -4   3 -10 41.8292 5.84151  18
  -4   3 -10 26.5937 7.89390   2
  -5  -3 -10 38.5741 6.13720  11
  -5  -3 -10 32.1234 5.49072  18
  -5  -3 -10 47.8036 5.69580  10
  -5  -3 -10 35.1604 6.05879  12
  -5   3 -10 32.5155 5.42123  11
  -5   3 -10 38.7892 5.62489  17
  -5   3 -10 39.3559 4.55992  10
  -5   3 -10 43.6829 6.13832  18
  -6  -3 -10 0.51061 4.38424  11
  -6  -3 -10 5.29426 3.16694  18
  -6  -3 -10 -0.1698 2.83104  12
  -6   3 -10 2.06758 3.60829  18
  -6   3 -10 1.41907 3.12324  17
  -7  -3 -10 4.87225 2.92241  11
  -7  -3 -10 -0.4931 1.49628  18
  -7   3 -10 2.14011 1.85324  17
  -7   3 -10 -2.7955 2.42869  18
  -7   4  10 2.15849 1.28290  15
  -6  -4  10 60.2877 7.47504  14
  -6  -4  10 52.2992 7.08940  12
  -6  -4  10 65.8970 8.11177  13
  -6   4  10 78.3433 7.75597  14
  -6   4  10 52.3027 7.19388  16
  -5  -4  10 -3.7066 3.22378  14
  -5  -4  10 0.39134 2.17874  10
  -5  -4  10 2.51405 3.24187  12
  -5  -4  10 3.80034 4.73827  13
  -5   4  10 2.30008 2.84017  15
  -5   4  10 3.08997 4.15195  16
  -5   4  10 1.87099 2.58443  14
  -5   4  10 0.60772 1.21330  10
  -4  -4  10 68.6193 6.46364   9
  -4  -4  10 59.5326 8.35746  12
  -4  -4  10 71.3924 9.52283  13
  -4  -4  10 53.5298 15.4506   5
  -4  -4  10 68.7281 7.76573  10
  -4  -4  10 75.1843 9.23723  14
  -4   4  10 64.5725 8.36479  14
  -4   4  10 20.5949 11.6678   6
  -4   4  10 75.9876 8.78378  16
  -4   4  10 64.8051 6.82811  10
  -4   4  10 64.9834 7.75858  15
  -3  -4  10 37.5811 5.37585  12
  -3  -4  10 37.4034 4.66437   9
  -3  -4  10 43.3648 6.19761  13
  -3  -4  10 25.7534 7.89532   3
  -3  -4  10 21.4601 10.7542   5
  -3  -4  10 39.8308 5.05226  10
  -3  -4  10 25.7211 9.06590   2
  -3  -4  10 36.6028 6.01743  14
  -3  -4  10 35.2070 3.49326   8
  -3   4  10 35.9110 5.63052  14
  -3   4  10 56.1209 6.31141  16
  -3   4  10 35.4627 7.56768   2
  -3   4  10 48.2682 4.70562   9
  -3   4  10 45.3301 5.46170  15
  -3   4  10 28.8897 9.36524   6
  -3   4  10 51.6480 5.20368  10
  -3   4  10 38.3478 8.79875   3
  -2  -4  10 1.71668 2.44794   9
  -2  -4  10 -0.3609 2.49174  10
  -2  -4  10 3.38978 6.96375   5
  -2  -4  10 6.33981 2.20092   8
  -2  -4  10 10.6180 7.57796   2
  -2  -4  10 -4.3172 6.02008   3
  -2   4  10 2.17661 5.65892   6
  -2   4  10 4.01052 2.50645  10
  -2   4  10 2.81927 6.17743   3
  -2   4  10 3.36735 4.73532   2
  -2   4  10 2.51374 1.43372   8
  -2   4  10 1.60214 1.92741   9
  -2   4  10 7.17468 2.30694  15
  -1  -4  10 113.434 15.3155   5
  -1  -4  10 111.368 15.1532   3
  -1  -4  10 106.772 9.97369   8
  -1  -4  10 98.4332 14.8269   2
  -1   4  10 139.939 15.3409   6
  -1   4  10 100.731 9.55135   8
  -1   4  10 113.780 15.0494   3
  -1   4  10 140.777 15.1044   2
   0  -4 -10 22.7405 6.71914   4
   0   4  10 16.3604 5.34440   6
  -1  -4 -10 22.6589 8.08493   4
  -1  -4 -10 16.5529 8.41739   2
  -1  -4 -10 27.4314 8.02622   3
  -1   4 -10 19.2414 6.28102   2
  -1   4 -10 12.8422 6.18537   3
  -2  -4 -10 1.00687 2.72416   8
  -2  -4 -10 1.36542 2.48059  11
  -2  -4 -10 -1.0231 7.67771   2
  -2  -4 -10 9.31503 6.99923   4
  -2  -4 -10 6.19691 6.74165   3
  -2  -4 -10 4.27055 3.08647   9
  -2   4 -10 1.84446 1.79534   8
  -2   4 -10 4.50654 5.55440   2
  -2   4 -10 0.39459 2.20462  10
  -2   4 -10 2.50139 5.93027   3
  -2   4 -10 1.92264 2.08658   9
  -2   4 -10 -1.3277 7.07898   7
  -3  -4 -10 78.0565 15.2301   3
  -3  -4 -10 131.551 12.1592   9
  -3  -4 -10 125.450 12.5586  10
  -3  -4 -10 110.123 13.5719  11
  -3  -4 -10 125.892 10.9123   8
  -3   4 -10 128.734 12.1258  10
  -3   4 -10 122.506 15.2387   2
  -3   4 -10 129.994 11.5788   9
  -3   4 -10 129.772 13.1652  18
  -3   4 -10 127.195 10.4825   8
  -3   4 -10 131.502 18.3869   7
  -3   4 -10 111.031 16.0091   3
  -4  -4 -10 19.3196 5.07829  11
  -4  -4 -10 29.3962 4.06871   9
  -4  -4 -10 19.1558 12.7506   4
  -4  -4 -10 17.9176 5.17370  12
  -4  -4 -10 26.2589 4.28219  10
  -4   4 -10 24.7169 4.15167  18
  -4   4 -10 5.87827 10.7814   7
  -4   4 -10 26.1011 3.14452   9
  -4   4 -10 22.5758 3.44647  10
  -4   4 -10 15.2433 3.80067  17
  -5  -4 -10 -2.4136 3.86054  12
  -5  -4 -10 6.25824 2.95998  10
  -5  -4 -10 0.99151 4.46043  11
  -5   4 -10 3.16234 3.10260  17
  -5   4 -10 3.54042 2.80596  18
  -5   4 -10 5.85541 2.36947  10
  -6  -4 -10 10.8714 2.90462  12
  -6  -4 -10 15.8784 3.37669  11
  -6  -4 -10 14.5254 3.29526  18
  -6   4 -10 8.50352 2.66011  17
  -6   4 -10 17.8090 4.00957  18
  -6  -5  10 4.89065 4.24123  13
  -6  -5  10 1.83559 2.54916  14
  -6   5  10 6.87221 1.83902  15
  -6   5  10 1.10582 2.40953  16
  -5  -5  10 3.34851 4.81893  14
  -5  -5  10 9.58502 3.60670  12
  -5  -5  10 8.30155 2.61543  10
  -5  -5  10 8.19671 4.75738  13
  -5   5  10 6.88468 2.84953  15
  -5   5  10 7.76493 2.79852  14
  -5   5  10 7.21358 1.58055  10
  -5   5  10 2.03534 3.90833  16
  -4  -5  10 1.06790 4.19304  13
  -4  -5  10 2.52946 1.83847   9
  -4  -5  10 3.37876 5.10917  14
  -4  -5  10 1.27471 2.51055  10
  -4  -5  10 1.56637 3.23434  12
  -4   5  10 6.44026 3.79786  16
  -4   5  10 0.99211 2.50178  15
  -4   5  10 2.44368 3.46979  14
  -3  -5  10 28.2963 8.85269   3
  -3  -5  10 29.1799 5.78562  14
  -3  -5  10 20.6545 3.57743   9
  -3  -5  10 25.1425 4.26302  10
  -3  -5  10 20.7128 5.09809  13
  -3  -5  10 28.0912 2.62233   8
  -3  -5  10 5.54759 9.53617   2
  -3  -5  10 27.6704 11.6078   5
  -3   5  10 37.0463 10.1004   6
  -3   5  10 23.8301 3.92998  15
  -3   5  10 16.1313 7.36550   2
  -3   5  10 23.8516 3.85185  10
  -3   5  10 25.8866 8.33002   3
  -3   5  10 29.0226 3.34431   9
  -3   5  10 40.4576 5.17510  16
  -2  -5  10 11.6315 8.98271   5
  -2  -5  10 5.70678 6.20314   3
  -2  -5  10 10.5069 7.43257   2
  -2  -5  10 6.26805 2.08056   8
  -2  -5  10 8.28071 2.89368  10
  -2  -5  10 4.05424 2.59502   9
  -2   5  10 7.04221 6.90103   3
  -2   5  10 6.81194 2.14295   9
  -2   5  10 7.46577 2.41215  15
  -2   5  10 3.06882 8.13422   6
  -2   5  10 8.02854 1.71290   8
  -2   5  10 3.68808 2.64280  10
  -2   5  10 -11.722 6.63049   2
  -1  -5  10 -0.5656 6.17179   3
  -1  -5  10 -6.4743 5.94811   5
  -1  -5  10 -12.354 8.01545   2
  -1  -5  10 1.03375 2.22454   8
  -1   5  10 3.29221 7.73811   2
  -1   5  10 1.39703 5.22002   6
  -1   5  10 0.47026 1.91328   8
  -1   5  10 -3.8203 7.50315   3
  -1   5  10 1.21265 2.23635   9
   0   5  10 5.12167 2.10312   8
  -1  -5 -10 0.42915 2.56291   8
  -1   5 -10 0.58600 1.71510   8
  -2  -5 -10 24.7865 3.33036   8
  -2  -5 -10 6.08569 8.61809   4
  -2  -5 -10 7.98446 8.56187   3
  -2   5 -10 23.9788 2.78050   8
  -2   5 -10 24.3194 8.08151   2
  -2   5 -10 23.2562 8.56151   7
  -2   5 -10 22.4838 3.48236   9
  -2   5 -10 17.6476 7.02138   3
  -3  -5 -10 13.1660 8.71820   2
  -3  -5 -10 22.8406 4.24381  10
  -3  -5 -10 16.5725 4.30197  11
  -3  -5 -10 23.1917 12.9361   4
  -3  -5 -10 5.36203 7.91913   3
  -3  -5 -10 18.5046 3.60572   9
  -3  -5 -10 20.0884 3.07878   8
  -3   5 -10 13.9693 7.33612   2
  -3   5 -10 15.8344 2.85066   9
  -3   5 -10 23.5721 3.50618  18
  -3   5 -10 7.62083 9.11803   7
  -3   5 -10 17.4436 3.28896  10
  -3   5 -10 17.2239 2.24995   8
  -3   5 -10 13.5370 6.50277   3
  -4  -5 -10 -0.6421 3.24568  10
  -4  -5 -10 7.49430 2.76276   9
  -4  -5 -10 7.14818 3.55235  12
  -4  -5 -10 0.21521 4.05114  11
  -4   5 -10 9.26785 2.55176  10
  -4   5 -10 9.55546 3.11157  17
  -4   5 -10 1.47555 3.62009  18
  -4   5 -10 6.84583 2.12699   9
  -5  -5 -10 3.36059 4.21238  12
  -5  -5 -10 8.46056 3.26136  10
  -5  -5 -10 4.72248 4.09369  11
  -5   5 -10 3.62415 2.98772  17
  -5   5 -10 5.41522 1.98767  10
  -5   5 -10 5.50151 3.89300  18
  -6  -5 -10 4.84900 2.60784  12
  -6  -5 -10 2.24348 2.14345  11
  -6  -5 -10 3.95944 1.35143  10
  -6   5 -10 6.44973 3.27194  18
  -6   5 -10 1.00786 2.72799  17
  -6  -6  10 20.1873 4.43313  14
  -6  -6  10 28.9193 5.18252  13
  -6   6  10 29.7389 4.41759  16
  -6   6  10 32.4148 3.60505  15
  -5  -6  10 8.18521 2.29187  10
  -5  -6  10 1.63510 4.81093  14
  -5  -6  10 3.71982 3.10501  13
  -5   6  10 5.21411 1.41187  10
  -5   6  10 1.60537 2.51131  15
  -5   6  10 9.55896 2.93978  16
  -4  -6  10 50.8893 7.66781  13
  -4  -6  10 46.8096 6.07686  10
  -4  -6  10 51.2848 5.64678   9
  -4  -6  10 50.9100 8.35683  14
  -4   6  10 54.1357 5.71834  10
  -4   6  10 47.1390 5.87780  15
  -4   6  10 55.2009 6.64889  14
  -4   6  10 55.9080 7.08292  16
  -3  -6  10 19.8998 12.7414   5
  -3  -6  10 23.5757 3.62819   9
  -3  -6  10 19.2213 5.95361  14
  -3  -6  10 21.3598 4.22942  10
  -3  -6  10 20.4536 4.95399  13
  -3   6  10 25.8076 3.13564   9
  -3   6  10 28.1236 10.3944   6
  -3   6  10 33.9732 4.36620  10
  -3   6  10 19.0825 3.58863  15
  -3   6  10 26.0100 4.53250  16
  -2  -6  10 -9.1788 9.43661   5
  -2  -6  10 3.28622 2.06039   8
  -2  -6  10 -0.6984 9.14120   2
  -2  -6  10 4.52793 8.06298   3
  -2  -6  10 4.13389 3.19712  10
  -2  -6  10 -0.7032 2.63328   9
  -2   6  10 0.60750 8.79651   6
  -2   6  10 1.93816 1.28044   8
  -2   6  10 -0.7256 2.54874  10
  -2   6  10 3.37639 8.23169   3
  -2   6  10 4.79544 2.11954   9
  -2   6  10 -0.9937 6.41171   2
  -1  -6  10 135.733 11.8819   8
  -1   6  10 132.669 19.0802   3
  -1   6  10 132.262 11.3829   8
  -1   6  10 131.530 17.8657   2
  -1   6  10 123.625 12.5219   9
   0   6  10 46.0034 5.21024   8
  -1  -6 -10 118.714 11.8199   8
  -1   6 -10 137.120 11.4187   8
  -2  -6 -10 0.29319 10.1509   2
  -2  -6 -10 2.25964 3.18942   9
  -2  -6 -10 3.59034 2.71146   8
  -2  -6 -10 2.40107 10.1418   3
  -2   6 -10 0.03324 10.8702   7
  -2   6 -10 1.82641 2.36751   9
  -2   6 -10 -9.3333 7.60932   2
  -2   6 -10 0.31447 1.47882   8
  -2   6 -10 3.67603 9.22313   3
  -3  -6 -10 48.2026 16.7488   4
  -3  -6 -10 97.1777 10.7702  10
  -3  -6 -10 84.1705 8.87509   8
  -3  -6 -10 114.741 10.4628   9
  -3   6 -10 106.931 11.1106  18
  -3   6 -10 101.879 10.1156  10
  -3   6 -10 98.4178 8.35109   8
  -3   6 -10 77.2749 16.7362   7
  -3   6 -10 107.039 9.60330   9
  -4  -6 -10 11.3360 3.79882  10
  -4  -6 -10 15.4611 3.05134   9
  -4  -6 -10 9.63399 3.78285  12
  -4   6 -10 10.2972 3.19309  18
  -4   6 -10 10.5680 2.31465   9
  -4   6 -10 14.7277 3.02389  10
  -4   6 -10 10.4700 2.63213  17
  -5  -6 -10 12.9590 3.68576  11
  -5  -6 -10 10.7399 3.39094  10
  -5  -6 -10 8.28781 4.34317  12
  -5   6 -10 13.6910 2.40526  10
  -5   6 -10 15.2948 3.93118  18
  -5   6 -10 13.8343 2.71382  17
  -6  -6 -10 48.4588 6.34739  11
  -6  -6 -10 67.4060 6.81633  12
  -6   6 -10 58.7341 6.44202  18
  -6   6 -10 58.2970 6.56903  17
  -5  -7  10 0.23386 3.94912  14
  -5  -7  10 3.91713 2.19407  10
  -5  -7  10 2.41835 2.81871  13
  -5   7  10 0.89744 2.29746  16
  -5   7  10 0.60887 2.04553  15
  -5   7  10 2.42428 1.13257  10
  -4  -7  10 17.5621 4.83697  14
  -4  -7  10 16.0053 4.81095  13
  -4  -7  10 15.3134 2.59829   9
  -4  -7  10 18.1938 3.57172  10
  -4   7  10 16.3905 3.34543  16
  -4   7  10 8.18797 2.68278  15
  -4   7  10 16.1259 2.65400  10
  -3  -7  10 -0.9956 2.58088   9
  -3  -7  10 -1.1928 5.45495  14
  -3  -7  10 5.88871 3.44943  10
  -3  -7  10 5.07216 4.08742  13
  -3   7  10 1.97414 2.41600  10
  -3   7  10 3.60022 2.43204  16
  -3   7  10 1.49261 1.71202   9
  -2  -7  10 28.2331 4.24023   8
  -2  -7  10 28.7667 14.2021   5
  -2  -7  10 49.6945 5.58233   9
  -2   7  10 35.4261 5.42889  16
  -2   7  10 40.2572 4.03090   8
  -2   7  10 41.4578 4.68523   9
  -1  -7  10 7.88391 2.91883   8
  -1   7  10 5.85193 2.97489   9
  -1   7  10 10.3471 2.10564   8
   0  -7  10 42.9294 5.80698   8
   0   7  10 52.5643 5.38933   8
  -1  -7 -10 8.40924 3.33309   8
  -1   7 -10 7.85846 2.33618   8
  -2  -7 -10 16.7282 4.05038   9
  -2  -7 -10 15.4744 3.11795   8
  -2   7 -10 9.36022 2.07189   8
  -2   7 -10 1.37086 2.70495   9
  -3  -7 -10 1.54886 2.14069   8
  -3  -7 -10 -1.0636 3.00754   9
  -3  -7 -10 10.1571 3.49595  12
  -3  -7 -10 -1.2547 3.65330  10
  -3   7 -10 -0.6338 2.52311  10
  -3   7 -10 5.37362 3.22971  18
  -3   7 -10 4.94123 2.23785   9
  -3   7 -10 0.69858 0.82764   8
  -4  -7 -10 33.2264 5.14795  10
  -4  -7 -10 27.9071 4.08079   9
  -4  -7 -10 30.8580 6.19725  12
  -4   7 -10 33.4631 3.66235   9
  -4   7 -10 25.8988 4.99829  18
  -4   7 -10 27.6598 4.11983  10
  -5  -7 -10 4.15300 2.93150  12
  -5  -7 -10 4.17955 2.62591  10
  -5   7 -10 2.11582 1.57798  10
  -5   7 -10 3.34690 1.96278  17
  -5   7 -10 4.49372 2.42334  18
  -5  -8  10 13.8556 2.20230  10
  -5  -8  10 7.65706 3.34827  14
  -5  -8  10 6.67087 2.77814  13
  -5   8  10 11.7200 2.46092  16
  -4  -8  10 44.6503 6.78053  13
  -4  -8  10 52.8167 5.17989   9
  -4  -8  10 47.8621 5.79353  10
  -4  -8  10 52.2171 7.22760  14
  -4   8  10 53.6691 6.26736  16
  -4   8  10 55.1649 5.54270  10
  -3  -8  10 8.89181 3.69133  10
  -3  -8  10 8.24053 5.77764  14
  -3  -8  10 8.20720 2.76323   9
  -3  -8  10 6.55910 2.93417  13
  -3   8  10 8.20633 3.39722  16
  -3   8  10 6.85468 1.93881   9
  -3   8  10 6.78059 2.49971  10
  -2  -8  10 9.27879 3.18187   8
  -2  -8  10 19.2705 3.87436   9
  -2   8  10 14.3501 3.47592  10
  -2   8  10 14.0785 1.98176   8
  -2   8  10 14.6987 3.10470  16
  -2   8  10 14.2572 2.89888   9
  -1  -8  10 3.47592 2.95794   8
  -1   8  10 3.58572 2.96791   9
  -1   8  10 9.09929 2.06862   8
   0  -8  10 151.849 14.4724   8
   0   8 -10 145.433 13.9934   8
   0   8  10 176.750 13.9684   8
  -1  -8 -10 27.8065 4.30279   8
  -1   8 -10 26.2920 3.53759   8
  -2  -8 -10 63.9961 7.47764   9
  -2  -8 -10 54.7627 6.44016   8
  -2   8 -10 58.8816 5.90228   8
  -2   8 -10 63.0029 6.89842   9
  -3  -8 -10 15.4283 3.60887   9
  -3  -8 -10 7.38892 4.29007  10
  -3  -8 -10 10.0071 2.06123   8
  -3  -8 -10 5.43960 4.40931  12
  -3   8 -10 12.5023 3.20597  10
  -3   8 -10 10.7409 3.47320  18
  -3   8 -10 12.1510 2.64384   9
  -4  -8 -10 105.444 10.7100  10
  -4  -8 -10 109.649 10.1922   9
  -4  -8 -10 111.388 12.0184  12
  -4   8 -10 105.376 10.3197  10
  -4   8 -10 104.151 9.61734   9
  -4   8 -10 113.072 11.6490  18
  -5  -8 -10 48.2300 5.86893  12
  -5  -8 -10 39.8939 4.76739  10
  -5   8 -10 40.0606 5.14315  18
  -5   8 -10 52.1532 4.56232  10
  -4  -9  10 -1.5989 3.09556  13
  -4  -9  10 -1.2274 3.34567  14
  -4  -9  10 -2.0501 2.69178  10
  -4   9  10 -0.1827 1.50373  10
  -4   9  10 2.73683 2.36363  16
  -3  -9  10 5.14282 3.63243  10
  -3  -9  10 -1.0990 3.24960  14
  -3  -9  10 -0.7402 2.32317   9
  -3   9  10 -0.4522 1.73485  16
  -3   9  10 -0.2274 1.37201  10
  -3   9  10 0.06590 1.36066   9
  -2  -9  10 19.6886 3.05031   8
  -2  -9  10 16.8273 3.99235   9
  -2   9  10 14.4449 1.59321   8
  -2   9  10 20.8284 3.17577   9
  -2   9  10 18.0474 2.97399  10
  -2   9  10 15.5283 3.03555  16
  -1  -9  10 1.67361 3.00648   8
  -1   9  10 -0.3814 1.71858   8
  -1   9  10 2.15006 2.69578   9
  -1   9  10 0.60713 2.58394  16
   0  -9  10 -4.3063 3.25242   8
   0   9  10 -2.4186 2.10087   8
   0   9 -10 4.40325 2.48411   8
  -1  -9 -10 12.4976 3.35860   8
   1   9  10 10.5792 2.96254   8
  -1   9 -10 9.15894 2.45061   8
  -2  -9 -10 6.57491 2.57507   8
  -2  -9 -10 3.45722 2.49835   9
  -2  -9 -10 10.1621 4.22199  12
  -2   9 -10 4.48941 1.68560   8
  -2   9 -10 3.54628 2.69005   9
  -3  -9 -10 -3.5032 2.88134   9
  -3  -9 -10 -2.2201 3.66027  12
  -3   9 -10 -0.5421 1.95527   9
  -3   9 -10 1.80393 1.76843  10
  -3   9 -10 3.53620 2.09912  18
  -4  -9 -10 5.43814 1.55032   9
  -4  -9 -10 5.64001 2.55161  12
  -4  -9 -10 7.70632 2.92170  10
  -4   9 -10 9.89164 2.73700  18
  -4   9 -10 2.58417 2.00775  10
  -3 -10  10 2.63551 2.69270  14
  -3 -10  10 11.2266 2.49498   9
  -3 -10  10 4.72159 3.43187  10
  -3  10  10 12.2325 1.42286   9
  -3  10  10 11.7679 2.34031  10
  -3  10  10 6.75864 2.34216  16
  -2 -10  10 22.7276 5.48197  14
  -2 -10  10 32.2960 4.07112   9
  -2 -10  10 23.8202 2.76045   8
  -2  10  10 26.2018 3.68380  16
  -2  10  10 30.8835 3.54426   9
  -1 -10  10 34.4130 4.38552   8
  -1  10  10 35.9505 4.62798   9
  -1  10  10 30.7143 4.39918  16
  -1  10  10 37.7020 3.54049   8
   0 -10  10 -0.5724 2.23675   8
   0 -10 -10 1.29817 3.20224   8
   0  10  10 1.92437 2.24186  16
   0  10  10 -1.3262 1.85328   8
   0  10 -10 -0.9969 1.52652   8
  -1 -10 -10 62.4417 6.63545   8
   1  10  10 66.6720 6.83737   8
  -1  10 -10 78.2749 6.54458   8
  -2 -10 -10 46.7986 5.62880   9
  -2 -10 -10 41.9761 6.03532  12
  -2 -10 -10 46.8661 4.64732   8
  -2  10 -10 58.8912 6.21170  18
  -2  10 -10 45.6866 4.07119   8
  -2  10 -10 54.1682 5.62706   9
  -3 -10 -10 5.77313 3.06728  12
  -3 -10 -10 3.66133 1.85062   9
  -3  10 -10 5.68395 2.39499  18
  -3  10 -10 2.73464 1.65585  10
  -3  10 -10 2.22961 1.48546   9
  -2 -11  10 15.6061 3.00402  14
  -2 -11  10 15.4889 2.77545   9
  -2  11  10 17.2670 2.07305   9
  -1 -11  10 14.8109 2.45437   8
  -1 -11  10 10.5859 3.11866   9
   1  11 -10 23.4498 2.55682   8
  -1  11  10 18.3645 2.99319   9
   0 -11 -10 4.93877 2.84583   8
   0 -11  10 11.0268 2.37858   8
   0  11  10 11.3612 1.55712   8
   0  11 -10 5.78948 1.60587   8
   1 -11  10 -1.0288 2.36028   8
  -1 -11 -10 2.82245 1.96244   8
   1  11  10 5.01998 1.89764   8
  -1  11 -10 3.03994 1.35922   8
  -1  11 -10 7.66054 2.08452   9
  -2 -11 -10 7.40826 2.07061   9
   2  11  10 8.11048 2.09172   8
  -2  11 -10 8.23031 1.88351  18
  -2  11 -10 10.1364 2.05165   9
  -7   0  11 -1.6271 1.94089  14
  -6   0  11 -1.5650 3.76663  14
  -6   0  11 7.07813 5.20677  13
  -6   0  11 -1.5672 3.07057  15
  -5   0  11 9.70176 5.28856  13
  -5   0  11 5.36744 3.35840  15
  -5   0  11 2.19301 1.56987  10
  -5   0  11 0.87408 3.75357  14
  -4   0  11 4.81696 3.48023  14
  -4   0  11 -2.0183 4.16483  13
  -4   0  11 0.03904 0.81800   9
  -4   0  11 -14.445 8.67774   5
  -4   0  11 4.40366 8.49920   6
  -4   0  11 -1.5776 2.92816  15
  -4   0  11 -5.3150 2.15819  10
  -3   0  11 0.01472 8.23878   5
  -3   0  11 -0.6311 2.45069  15
  -3   0  11 -2.8416 3.51059  13
  -3   0  11 1.22258 4.80179   2
  -3   0  11 -1.3353 2.68812  14
  -3   0  11 2.44944 1.60635   9
  -3   0  11 0.46673 5.57717   3
  -3   0  11 3.36051 2.31282  10
  -3   0  11 10.7963 6.67800   6
  -2   0  11 2.49800 2.06598   9
  -2   0  11 2.34040 4.88395   6
  -2   0  11 4.54082 6.71421   5
  -2   0  11 -3.2219 4.44743   2
  -2   0  11 -1.6208 1.21644   8
  -2   0  11 0.56413 5.87385   3
  -1   0  11 -2.3324 4.82900   5
  -1   0  11 9.12778 5.61518   2
  -1   0  11 4.75195 5.34450   3
   0   0  11 0.03315 5.33935   2
   0   0  11 2.02529 5.28098   3
  -1   0 -11 -0.7796 4.96465   2
  -1   0 -11 -3.7681 5.29626   3
  -2   0 -11 -0.5888 5.32322   3
  -2   0 -11 -2.7913 6.20691   2
  -2   0 -11 -1.5149 5.30967   4
  -2   0 -11 -1.9784 1.86639   8
  -3   0 -11 4.36292 5.44481   3
  -3   0 -11 0.18686 7.79116   7
  -3   0 -11 0.30233 2.16942  10
  -3   0 -11 -1.7295 6.57761   2
  -3   0 -11 -0.2390 3.09982  18
  -3   0 -11 -0.8688 1.29760   8
  -3   0 -11 0.58534 1.97120   9
  -3   0 -11 4.34747 8.40351   4
  -4   0 -11 0.12937 2.72998  17
  -4   0 -11 7.02797 5.76663   3
  -4   0 -11 -0.0808 2.20928  10
  -4   0 -11 0.49116 1.94005   9
  -4   0 -11 17.5068 7.30298   2
  -4   0 -11 1.16620 3.03763  18
  -4   0 -11 -2.9261 2.48026  11
  -4   0 -11 -13.245 11.4636   4
  -5   0 -11 -2.0751 4.31169  11
  -5   0 -11 -0.0543 2.23359  10
  -5   0 -11 2.72806 3.35923  18
  -5   0 -11 -1.2306 3.10069  17
  -6   0 -11 -3.2719 3.17152  18
  -6   0 -11 -2.4999 2.81203  11
  -6   0 -11 2.73138 2.42329  17
  -6   0 -11 -2.0880 1.19537  10
  -7   0 -11 0.87417 1.79799  11
  -7   0 -11 -0.6940 1.56394  18
  -7  -1  11 73.8069 8.89161  13
  -7  -1  11 78.1412 7.93363  14
  -7   1  11 66.4204 7.31149  14
  -7   1  11 59.8187 6.94226  15
  -6  -1  11 12.9576 4.21196  14
  -6  -1  11 15.4361 5.42934  13
  -6  -1  11 16.0915 2.88611  15
  -6   1  11 4.76296 3.40463  15
  -6   1  11 12.0454 5.49857  13
  -6   1  11 13.9555 3.25379  14
  -5  -1  11 66.4216 6.88987  10
  -5  -1  11 80.1754 8.73216  15
  -5  -1  11 80.8365 9.59291  14
  -5  -1  11 71.8146 10.1005  13
  -5   1  11 76.6943 8.73984  15
  -5   1  11 64.3761 8.36184  14
  -5   1  11 69.1715 6.77485  10
  -5   1  11 72.8466 10.1364  13
  -4  -1  11 74.7571 10.2548  13
  -4  -1  11 77.2920 7.01666   9
  -4  -1  11 93.5743 9.87218  14
  -4  -1  11 57.0140 9.14536   3
  -4  -1  11 59.9300 8.85055   2
  -4  -1  11 83.2150 9.08739  15
  -4  -1  11 61.5372 16.3697   5
  -4  -1  11 86.5618 8.36598  10
  -4   1  11 88.2803 9.02133  15
  -4   1  11 85.0547 10.6814  13
  -4   1  11 81.7874 7.86327  10
  -4   1  11 78.1907 9.48465  14
  -4   1  11 51.5517 12.9811   6
  -3  -1  11 86.9952 12.5353   3
  -3  -1  11 90.5458 8.68970   9
  -3  -1  11 80.3721 11.9889   2
  -3  -1  11 82.6990 9.86388  15
  -3  -1  11 90.8278 10.3086  14
  -3  -1  11 89.8874 15.2760   6
  -3  -1  11 75.7425 11.1448  13
  -3  -1  11 98.7505 9.79896  10
  -3  -1  11 90.3460 16.6046   5
  -3   1  11 76.6606 12.6204   3
  -3   1  11 120.359 15.5314   6
  -3   1  11 95.9187 11.6466  13
  -3   1  11 94.8007 9.49777  10
  -3   1  11 85.1834 10.1712  14
  -3   1  11 94.5166 9.72598  15
  -3   1  11 98.0275 11.7605   2
  -3   1  11 92.5339 8.65599   9
  -2  -1  11 13.3038 3.11935  10
  -2  -1  11 8.64838 5.95471   6
  -2  -1  11 14.3699 3.20804  14
  -2  -1  11 8.67789 6.84539   5
  -2  -1  11 12.1390 2.76445   9
  -2  -1  11 -0.0148 6.20412   3
  -2  -1  11 8.97753 5.38966   2
  -2  -1  11 10.4802 1.87585   8
  -2   1  11 8.65304 2.86929  10
  -2   1  11 12.4500 5.64943   3
  -2   1  11 10.5126 5.87525   6
  -2   1  11 12.2289 1.97037   8
  -2   1  11 11.6642 2.49673   9
  -2   1  11 10.8245 4.99456   2
  -1  -1  11 112.860 15.4915   5
  -1  -1  11 110.699 16.0101   3
  -1  -1  11 121.700 15.2228   2
  -1   1  11 125.666 15.0948   2
  -1   1  11 111.833 14.6558   6
  -1   1  11 128.487 16.5191   3
   0  -1  11 637.505 64.7332   3
   0  -1  11 632.064 61.6524   2
   0   1  11 633.768 61.1721   2
  -1  -1 -11 40.6224 8.18195   3
  -1  -1 -11 44.8028 9.63474   2
  -1   1 -11 51.4577 9.16918   2
  -1   1 -11 41.0692 8.03681   3
  -2  -1 -11 30.9038 7.75039   4
  -2  -1 -11 25.5690 3.00914   8
  -2  -1 -11 20.9233 6.95198   2
  -2  -1 -11 27.2895 7.26269   3
  -2   1 -11 22.1877 2.95837   8
  -2   1 -11 18.9984 6.05015   3
  -2   1 -11 18.8531 7.56091   2
  -2   1 -11 17.8062 6.95447   7
  -3  -1 -11 73.3773 9.24599  11
  -3  -1 -11 68.9410 7.89754  10
  -3  -1 -11 71.9473 11.3455   3
  -3  -1 -11 75.8235 12.2829   2
  -3  -1 -11 88.3913 16.2037   4
  -3  -1 -11 79.5532 7.65966   9
  -3  -1 -11 72.1797 6.61066   8
  -3   1 -11 72.1565 12.1983   7
  -3   1 -11 83.7388 14.8317   4
  -3   1 -11 68.2276 7.33489   9
  -3   1 -11 71.7997 11.2660   2
  -3   1 -11 82.5477 7.81257  10
  -3   1 -11 60.4697 10.8730   3
  -3   1 -11 59.6884 8.37889  18
  -3   1 -11 78.0236 6.60544   8
  -4  -1 -11 10.3488 4.66861  11
  -4  -1 -11 22.6394 3.87948  10
  -4  -1 -11 11.5530 6.24658   3
  -4  -1 -11 12.6154 8.36351   2
  -4  -1 -11 18.0279 3.71425  17
  -4  -1 -11 9.60293 11.9436   4
  -4  -1 -11 19.6190 2.94771   9
  -4  -1 -11 15.9392 3.70940  18
  -4   1 -11 18.6894 3.11822  10
  -4   1 -11 -0.9122 8.99778   7
  -4   1 -11 14.7570 4.27018  11
  -4   1 -11 3.62388 7.05053   2
  -4   1 -11 17.2150 3.59761  17
  -4   1 -11 11.1998 5.61076   3
  -4   1 -11 18.8461 2.78400   9
  -4   1 -11 14.5490 14.9705   4
  -4   1 -11 18.1612 3.90844  18
  -5  -1 -11 65.1931 9.66051  11
  -5  -1 -11 70.0799 7.79960  10
  -5  -1 -11 79.8462 9.15132  17
  -5  -1 -11 71.8502 9.01614  18
  -5   1 -11 75.0760 9.20988  18
  -5   1 -11 78.2970 7.68581  10
  -5   1 -11 78.2720 9.05462  11
  -5   1 -11 65.7234 8.80789  17
  -6  -1 -11 3.90220 2.15045  18
  -6  -1 -11 2.44705 4.25100  11
  -6  -1 -11 0.72312 1.37358  10
  -6   1 -11 -3.1254 2.27982  18
  -6   1 -11 2.91494 1.14336  10
  -6   1 -11 4.48733 3.30487  17
  -6   1 -11 6.08347 2.73223  11
  -7  -1 -11 13.3638 2.72500  18
  -7  -1 -11 16.9254 2.85375  11
  -7   1 -11 11.0131 2.26623  18
  -7   1 -11 12.2699 2.78939  11
  -7  -2  11 8.62691 3.06907  13
  -7  -2  11 8.63091 3.02795  14
  -7   2  11 6.52703 1.89445  15
  -7   2  11 5.84848 2.83257  14
  -6  -2  11 8.24077 4.88219  13
  -6  -2  11 11.1200 3.31715  14
  -6   2  11 11.4120 3.84665  14
  -6   2  11 8.82829 3.27354  15
  -5  -2  11 10.7802 5.14500  13
  -5  -2  11 11.8793 3.77800  15
  -5  -2  11 10.5644 2.35479  10
  -5  -2  11 20.3232 3.90972  14
  -5   2  11 11.0726 3.28423  14
  -5   2  11 11.0233 5.86976  13
  -5   2  11 14.2502 3.02320  15
  -5   2  11 12.9212 2.00714  10
  -4  -2  11 13.0247 3.91179  12
  -4  -2  11 4.82565 5.17282   2
  -4  -2  11 13.3131 3.00674  10
  -4  -2  11 20.3723 3.92620  15
  -4  -2  11 -0.3725 10.5136   5
  -4  -2  11 13.4833 4.82658  13
  -4  -2  11 14.6866 4.40574  14
  -4  -2  11 10.7057 1.77352   9
  -4   2  11 14.7275 2.83894  10
  -4   2  11 8.45038 11.6529   6
  -4   2  11 18.0445 5.11981  16
  -4   2  11 21.8285 3.92364  15
  -4   2  11 14.7214 3.73406  14
  -4   2  11 21.7341 4.80437  13
  -3  -2  11 47.1476 12.2486   5
  -3  -2  11 53.0078 6.63349  12
  -3  -2  11 44.4408 9.07323   2
  -3  -2  11 40.1453 6.55909  13
  -3  -2  11 26.3627 7.88545   3
  -3  -2  11 44.9517 5.78447  10
  -3  -2  11 47.5640 5.84648  15
  -3  -2  11 45.7018 6.29020  14
  -3  -2  11 32.7866 11.6174   6
  -3  -2  11 36.6968 4.91996   9
  -3   2  11 55.1691 6.79564  16
  -3   2  11 42.6154 5.42211  10
  -3   2  11 46.9918 7.26914  13
  -3   2  11 44.1989 7.89660   2
  -3   2  11 52.6326 9.55745   3
  -3   2  11 31.4023 5.50894  14
  -3   2  11 57.5952 11.9613   6
  -3   2  11 50.0908 5.03501   9
  -3   2  11 46.1862 5.85326  15
  -2  -2  11 20.4876 2.79664   8
  -2  -2  11 5.23098 7.83564   6
  -2  -2  11 16.3437 7.23115   3
  -2  -2  11 17.8974 3.29362   9
  -2  -2  11 24.5756 3.97834  14
  -2  -2  11 18.4344 6.25538   2
  -2  -2  11 13.0834 7.73739   5
  -2  -2  11 15.7145 3.59578  10
  -2   2  11 24.7225 3.11991   9
  -2   2  11 19.5736 3.32658  15
  -2   2  11 14.0434 6.59537   6
  -2   2  11 9.76490 5.79433   3
  -2   2  11 17.4579 5.55055   2
  -2   2  11 18.3350 3.45055  10
  -1  -2  11 13.9571 6.41833   2
  -1  -2  11 2.96323 6.79861   3
  -1  -2  11 11.4059 7.00425   5
  -1   2  11 8.94247 4.97545   6
  -1   2  11 2.43204 6.61302   3
  -1   2  11 5.58798 5.04515   2
   0  -2  11 6.61834 6.43839   2
   0  -2  11 7.88188 5.91990   3
   0   2  11 7.73596 5.47221   2
   0   2  11 2.99989 5.66560   3
  -1  -2 -11 2.14956 6.13698   2
  -1  -2 -11 -0.4233 5.00368   4
  -1  -2 -11 5.61716 6.51325   3
  -1   2 -11 1.20348 4.82705   3
  -1   2 -11 12.5025 5.80847   2
  -2  -2 -11 7.39616 2.01905   8
  -2  -2 -11 -8.5506 5.90062   3
  -2  -2 -11 3.81739 6.43945   2
  -2  -2 -11 6.63229 6.40235   4
  -2  -2 -11 1.18518 2.62381   9
  -2   2 -11 3.62558 1.48427   8
  -2   2 -11 4.91484 6.38401   2
  -2   2 -11 7.91430 5.09945   3
  -2   2 -11 2.67150 2.12124   9
  -2   2 -11 1.43121 6.20375   7
  -2   2 -11 2.25697 2.15100  18
  -3  -2 -11 70.1122 7.44083   9
  -3  -2 -11 45.8190 10.4741   3
  -3  -2 -11 64.0894 8.86520  11
  -3  -2 -11 76.0475 7.83901  10
  -3  -2 -11 64.2418 11.0449   2
  -3  -2 -11 67.8611 6.33992   8
  -3  -2 -11 63.4760 13.6765   4
  -3   2 -11 61.2314 11.8040   7
  -3   2 -11 66.6780 8.10085  18
  -3   2 -11 72.0506 7.27333   9
  -3   2 -11 101.273 16.7732   4
  -3   2 -11 63.8941 11.0207   2
  -3   2 -11 49.6314 9.38828   3
  -3   2 -11 73.7564 6.24267   8
  -3   2 -11 75.9066 7.47499  10
  -4  -2 -11 6.24637 3.48758  12
  -4  -2 -11 10.6179 8.59926   2
  -4  -2 -11 7.45046 3.23065  18
  -4  -2 -11 10.4596 3.10111  10
  -4  -2 -11 13.4284 12.7589   4
  -4  -2 -11 9.55641 4.31701  11
  -4  -2 -11 9.11814 2.52059   9
  -4   2 -11 8.01339 3.49454  18
  -4   2 -11 6.56025 11.6481   4
  -4   2 -11 9.80962 7.03353   2
  -4   2 -11 1.80671 9.31713   7
  -4   2 -11 6.80086 2.33357   9
  -4   2 -11 9.78706 2.90080  10
  -4   2 -11 2.56850 3.27608  11
  -4   2 -11 9.10511 3.03868  17
  -5  -2 -11 68.8038 7.26911  10
  -5  -2 -11 54.4267 7.84936  18
  -5  -2 -11 66.5259 9.19198  11
  -5   2 -11 67.8151 7.09466  10
  -5   2 -11 64.4405 8.65957  11
  -5   2 -11 76.1136 8.70581  18
  -5   2 -11 59.9543 8.05479  17
  -6  -2 -11 1.34298 2.91672  18
  -6  -2 -11 1.47394 3.03234  11
  -6  -2 -11 2.27740 1.39659  10
  -6   2 -11 2.84251 2.13194  11
  -6   2 -11 6.06133 3.35749  18
  -6   2 -11 5.23195 2.28799  17
  -7  -2 -11 4.17281 2.10972  11
  -7   2 -11 3.28491 1.60372  18
  -7  -3  11 23.1276 3.90088  13
  -6  -3  11 16.4638 3.79785  13
  -6  -3  11 12.7393 3.31676  14
  -6   3  11 15.0905 3.94877  14
  -6   3  11 3.80623 2.96721  15
  -5  -3  11 48.3886 8.04850  14
  -5  -3  11 58.9456 8.61288  13
  -5  -3  11 61.3990 6.20249  10
  -5  -3  11 62.9570 7.99648  12
  -5   3  11 58.9252 7.21229  15
  -5   3  11 62.1788 8.10182  16
  -5   3  11 47.8764 7.28628  14
  -4  -3  11 12.4273 2.89152  10
  -4  -3  11 7.93774 1.82870   9
  -4  -3  11 11.4065 4.35692  14
  -4  -3  11 6.54034 4.45560  13
  -4  -3  11 2.87434 11.5934   5
  -4  -3  11 13.8924 3.73470  12
  -4   3  11 7.75565 9.80569   6
  -4   3  11 12.6313 4.36991  16
  -4   3  11 9.16587 3.40140  14
  -4   3  11 10.3644 2.63490  10
  -4   3  11 6.47719 3.28663  15
  -3  -3  11 2.59056 7.09950   2
  -3  -3  11 11.1775 3.27740  12
  -3  -3  11 9.39172 2.87052   9
  -3  -3  11 7.48634 6.08699   3
  -3  -3  11 12.6823 3.37591  15
  -3  -3  11 12.5850 2.99608  10
  -3  -3  11 8.13700 3.74552  14
  -3  -3  11 13.6898 4.07573  13
  -3  -3  11 10.1042 9.69265   5
  -3   3  11 11.5024 2.32994   9
  -3   3  11 8.82439 2.55782  10
  -3   3  11 1.63922 7.48872   6
  -3   3  11 8.04490 3.55784  16
  -3   3  11 4.89594 6.81354   3
  -3   3  11 6.87360 2.93378  14
  -3   3  11 10.8881 5.78174   2
  -3   3  11 8.89389 2.77613  15
  -2  -3  11 272.164 29.2229   2
  -2  -3  11 260.836 22.1625   8
  -2  -3  11 266.655 23.9551   9
  -2  -3  11 306.567 31.0904   6
  -2  -3  11 270.572 29.2674   3
  -2  -3  11 243.215 24.6596  10
  -2   3  11 246.761 25.2562  15
  -2   3  11 275.909 23.7408   9
  -2   3  11 264.767 21.9022   8
  -2   3  11 313.379 29.8920   3
  -2   3  11 246.155 24.4993  10
  -2   3  11 298.519 27.6486   2
  -1  -3  11 16.0051 2.98624   8
  -1  -3  11 19.4231 8.07711   3
  -1  -3  11 13.6921 7.22738   2
  -1  -3  11 16.5035 6.94738   5
  -1   3  11 15.8042 5.91686   6
  -1   3  11 14.6746 6.19819   2
  -1   3  11 21.5276 6.92233   3
   0   3  11 185.362 20.8147   6
  -1  -3 -11 3.51359 6.60090   3
  -1  -3 -11 10.1055 5.99136   4
  -1  -3 -11 8.14096 6.54421   2
  -1   3 -11 2.54836 4.87860   3
  -1   3 -11 -1.7120 5.27810   2
  -2  -3 -11 113.036 8.99774   8
  -2  -3 -11 106.552 15.3461   3
  -2  -3 -11 95.4452 10.0078   9
  -2  -3 -11 115.613 16.8074   4
  -2  -3 -11 92.0846 14.3959   2
  -2   3 -11 100.762 14.3096   2
  -2   3 -11 99.4408 9.59421   9
  -2   3 -11 99.1899 8.59951   8
  -2   3 -11 80.7595 10.0622  10
  -2   3 -11 73.8177 12.6461   3
  -2   3 -11 104.092 14.0245   7
  -3  -3 -11 47.4638 6.72873  11
  -3  -3 -11 43.5603 10.2842   3
  -3  -3 -11 44.5942 14.1530   4
  -3  -3 -11 43.0926 12.3517   2
  -3  -3 -11 55.3704 6.21456   9
  -3  -3 -11 47.6230 6.26630  10
  -3  -3 -11 48.0853 4.96294   8
  -3   3 -11 48.1066 10.1333   2
  -3   3 -11 44.2961 9.30563   3
  -3   3 -11 51.6081 4.66659   8
  -3   3 -11 49.5247 5.98196  10
  -3   3 -11 35.2684 10.3001   7
  -3   3 -11 53.3822 12.0125   4
  -3   3 -11 53.4789 6.23231  18
  -3   3 -11 44.4523 5.44456   9
  -4  -3 -11 11.2687 4.50136  11
  -4  -3 -11 15.7563 12.9544   4
  -4  -3 -11 16.1777 3.65410  10
  -4  -3 -11 15.6263 4.40532  12
  -4   3 -11 11.7839 3.59634  17
  -4   3 -11 10.9407 10.5733   7
  -4   3 -11 18.2981 2.79377   9
  -4   3 -11 15.6953 3.09740  10
  -4   3 -11 17.5176 3.92343  11
  -4   3 -11 16.7551 3.42517  18
  -5  -3 -11 85.1614 10.5573  12
  -5  -3 -11 102.375 11.5532  11
  -5  -3 -11 78.7957 9.89239  18
  -5  -3 -11 93.4650 9.26398  10
  -5   3 -11 102.858 10.6962  18
  -5   3 -11 86.6008 10.1953  11
  -5   3 -11 74.1798 10.0340  17
  -5   3 -11 94.3897 8.97718  10
  -6  -3 -11 5.00078 4.08703  11
  -6  -3 -11 5.77292 2.93187  18
  -6   3 -11 4.62844 2.54869  18
  -6   3 -11 6.67110 2.94532  17
  -7  -3 -11 48.8343 5.12989  11
  -7   3 -11 37.7010 5.17364  18
  -6  -4  11 3.55363 3.03807  13
  -6  -4  11 8.10744 3.17596  14
  -6   4  11 7.48848 2.63882  14
  -6   4  11 10.9357 2.83196  15
  -6   4  11 5.88323 3.74903  16
  -5  -4  11 3.66363 1.98078  10
  -5  -4  11 -4.2568 4.19576  13
  -5  -4  11 -5.3873 4.56590  14
  -5  -4  11 1.08520 3.42796  12
  -5   4  11 -1.9374 3.39229  14
  -5   4  11 1.95984 1.33131  10
  -5   4  11 0.42774 4.26438  16
  -5   4  11 4.11426 2.92609  15
  -4  -4  11 6.33889 4.24830  13
  -4  -4  11 1.48926 1.65558   9
  -4  -4  11 4.01848 2.56614  10
  -4  -4  11 -2.9748 4.26869  14
  -4  -4  11 0.44607 3.25496  12
  -4   4  11 4.24021 2.90583  15
  -4   4  11 2.44306 3.35718  14
  -4   4  11 5.52213 3.97659  16
  -4   4  11 5.20299 2.06440  10
  -3  -4  11 4.24187 2.34080   9
  -3  -4  11 6.59028 3.74648  13
  -3  -4  11 -3.8740 6.58979   3
  -3  -4  11 8.24162 3.02086  10
  -3  -4  11 -3.8116 8.10042   2
  -3  -4  11 1.56870 9.39124   5
  -3  -4  11 0.52603 3.85360  14
  -3   4  11 4.76200 2.39333  10
  -3   4  11 0.66380 7.38517   6
  -3   4  11 7.44580 1.82803   9
  -3   4  11 0.73341 6.32792   2
  -3   4  11 3.59584 3.21635  16
  -3   4  11 4.72796 6.97051   3
  -3   4  11 0.41498 2.32036  15
  -2  -4  11 16.7709 9.21453   5
  -2  -4  11 24.6463 3.73907  10
  -2  -4  11 4.44019 7.08179   2
  -2  -4  11 14.5488 7.93782   3
  -2  -4  11 12.9057 3.02492   9
  -2  -4  11 12.1070 2.47300   8
  -2   4  11 14.8416 2.92980  15
  -2   4  11 14.6750 2.01055   8
  -2   4  11 12.6051 6.78436   3
  -2   4  11 18.2120 6.47368   2
  -2   4  11 33.3767 8.21698   6
  -2   4  11 16.1195 3.33697  10
  -2   4  11 17.5577 2.91322   9
  -1  -4  11 7.39180 6.56170   3
  -1  -4  11 1.45650 2.94468   9
  -1  -4  11 3.48977 6.45017   5
  -1  -4  11 7.71284 7.45198   2
  -1  -4  11 2.25676 2.27771   8
  -1   4  11 2.69479 1.77850   9
  -1   4  11 5.36983 2.09565  15
  -1   4  11 3.39027 5.39957   6
  -1   4  11 0.32712 7.23244   2
  -1   4  11 4.48187 1.76184   8
  -1   4  11 -0.3677 6.16343   3
   0   4  11 3.39731 5.19306   6
  -1  -4 -11 3.71202 2.52174   8
  -1  -4 -11 10.8533 8.01941   4
  -1   4 -11 2.46403 1.85493   8
  -2  -4 -11 39.6589 11.6240   4
  -2  -4 -11 31.5347 4.91194  11
  -2  -4 -11 25.6955 9.13285   3
  -2  -4 -11 36.9431 4.16368   8
  -2  -4 -11 30.7456 10.8661   2
  -2  -4 -11 30.9230 4.92137   9
  -2   4 -11 34.6208 8.42681   2
  -2   4 -11 38.9137 3.82498   8
  -2   4 -11 20.0500 8.13100   7
  -2   4 -11 24.3174 7.57484   3
  -2   4 -11 34.6411 4.27902   9
  -3  -4 -11 2.05929 1.84154   8
  -3  -4 -11 2.78143 2.88484   9
  -3  -4 -11 4.25366 6.96036   3
  -3  -4 -11 1.66680 3.22167  11
  -3  -4 -11 6.23300 9.74544   4
  -3  -4 -11 -1.9212 3.01394  10
  -3  -4 -11 -3.6701 11.1352   2
  -3   4 -11 3.25561 8.49568   7
  -3   4 -11 -2.0125 2.25406  10
  -3   4 -11 3.50023 2.72126  18
  -3   4 -11 1.78546 1.95513   9
  -3   4 -11 -1.3362 5.66852   3
  -3   4 -11 -7.8538 6.33130   2
  -3   4 -11 2.64786 1.28716   8
  -4  -4 -11 26.2300 4.44837  11
  -4  -4 -11 13.6881 4.74600  12
  -4  -4 -11 19.4013 3.97192  10
  -4  -4 -11 16.7392 3.22796   9
  -4   4 -11 18.6988 3.28807  10
  -4   4 -11 22.1754 4.33636  18
  -4   4 -11 19.0235 3.66221  11
  -4   4 -11 18.8124 2.68979   9
  -5  -4 -11 0.57911 2.84139  10
  -5  -4 -11 -0.7414 3.65830  12
  -5  -4 -11 -0.4868 3.04721  11
  -5   4 -11 -0.4243 2.79405  17
  -5   4 -11 8.78720 3.73486  18
  -5   4 -11 0.44931 1.90346  10
  -6  -4 -11 -0.7721 2.65449  12
  -6  -4 -11 2.72246 2.37877  11
  -6   4 -11 1.29392 2.30038  18
  -6   4 -11 2.11257 2.66084  17
  -6  -5  11 55.9862 7.41566  14
  -6  -5  11 53.7096 7.89661  13
  -6   5  11 62.8851 7.23626  16
  -6   5  11 58.3836 6.20758  15
  -5  -5  11 87.0515 9.03446  10
  -5  -5  11 79.3196 11.6027  13
  -5  -5  11 91.7532 10.8214  14
  -5   5  11 89.0950 9.52472  15
  -5   5  11 95.3558 8.67962  10
  -5   5  11 110.513 10.9837  16
  -5   5  11 93.7140 10.4010  14
  -4  -5  11 11.5696 4.47750  13
  -4  -5  11 12.5414 5.16280  14
  -4  -5  11 7.79775 2.96221  10
  -4  -5  11 8.54263 1.96320   9
  -4   5  11 3.86297 2.63422  15
  -4   5  11 0.16716 3.46065  14
  -4   5  11 17.9953 4.46907  16
  -3  -5  11 80.4117 10.8511  13
  -3  -5  11 82.9171 9.38889  10
  -3  -5  11 82.5903 8.81147   9
  -3  -5  11 52.5329 17.2185   5
  -3  -5  11 89.6968 11.1878  14
  -3   5  11 81.4981 8.26725   9
  -3   5  11 92.3536 10.2844  16
  -3   5  11 89.5084 9.32522  15
  -3   5  11 96.5598 9.05857  10
  -2  -5  11 82.8066 9.41313  10
  -2  -5  11 93.5931 9.18528   9
  -2  -5  11 88.5539 8.00740   8
  -2  -5  11 61.9666 13.1994   2
  -2  -5  11 79.4726 14.9434   3
  -2  -5  11 52.0612 14.4998   5
  -2   5  11 69.9515 12.3193   3
  -2   5  11 66.1502 12.9181   6
  -2   5  11 100.637 8.64736   9
  -2   5  11 86.2519 9.13727  10
  -2   5  11 77.3863 9.05975  15
  -2   5  11 80.8140 12.6039   2
  -2   5  11 92.8039 7.58760   8
  -1  -5  11 0.59100 8.63324   2
  -1  -5  11 7.00987 8.34587   3
  -1  -5  11 15.2400 3.09954   8
  -1   5  11 14.4408 7.66431   2
  -1   5  11 19.1696 2.54893   8
  -1   5  11 19.9881 3.25128   9
  -1   5  11 15.2805 6.76305   6
  -1   5  11 13.1900 7.76985   3
   0   5  11 64.5641 6.45753   8
  -1  -5 -11 72.3991 7.75786   8
  -1   5 -11 81.4404 7.41768   8
  -2  -5 -11 49.6925 6.03464   9
  -2  -5 -11 54.5907 5.43688   8
  -2  -5 -11 19.2177 12.6180   3
  -2  -5 -11 41.3712 11.1377   4
  -2   5 -11 49.6585 4.64056   8
  -2   5 -11 17.0147 8.50826   3
  -2   5 -11 38.8075 4.94409   9
  -2   5 -11 42.7457 11.7157   2
  -3  -5 -11 26.9503 3.72739   9
  -3  -5 -11 23.6881 3.08222   8
  -3  -5 -11 18.1082 4.54212  11
  -3  -5 -11 31.8454 4.80770  10
  -3  -5 -11 23.4028 11.8716   4
  -3   5 -11 24.1858 3.45363   9
  -3   5 -11 20.9476 2.53088   8
  -3   5 -11 22.6142 3.79521  10
  -3   5 -11 17.0406 10.8138   7
  -3   5 -11 29.5378 4.45517  18
  -4  -5 -11 18.0453 4.97860  11
  -4  -5 -11 25.6456 4.52391  10
  -4  -5 -11 28.8277 5.10565  12
  -4  -5 -11 23.7313 3.73600   9
  -4   5 -11 35.3437 4.51749  18
  -4   5 -11 20.6824 3.71866  10
  -4   5 -11 22.1768 3.04844   9
  -5  -5 -11 49.0534 6.93630  12
  -5  -5 -11 42.5570 6.50741  11
  -5  -5 -11 55.3304 6.11733  10
  -5   5 -11 48.9574 6.21803  18
  -5   5 -11 51.8880 5.16711  10
  -5   5 -11 35.6136 5.73402  17
  -6  -5 -11 12.7843 3.16774  12
  -6  -5 -11 13.5952 2.53118  11
  -6   5 -11 15.7190 2.68489  18
  -6   5 -11 6.88409 2.18966  17
  -6  -6  11 7.82386 3.32068  13
  -6   6  11 2.65053 1.81499  15
  -6   6  11 0.65921 1.89724  16
  -5  -6  11 16.5409 3.72457  13
  -5  -6  11 12.2285 2.68696  10
  -5  -6  11 17.2833 4.13271  14
  -5   6  11 14.5299 4.11431  16
  -5   6  11 10.3569 2.91797  15
  -5   6  11 16.7647 2.00332  10
  -4  -6  11 5.43482 4.38069  13
  -4  -6  11 8.51008 2.26525   9
  -4  -6  11 12.5076 3.28284  10
  -4  -6  11 15.9128 5.52640  14
  -4   6  11 8.71980 2.45704  10
  -4   6  11 8.43558 2.88516  15
  -4   6  11 11.5979 4.00703  16
  -3  -6  11 32.2490 5.02392  10
  -3  -6  11 35.1374 6.62169  14
  -3  -6  11 29.0504 5.86837  13
  -3  -6  11 30.4760 4.41207   9
  -3   6  11 33.1895 5.16335  16
  -3   6  11 32.2451 3.82692   9
  -3   6  11 29.4118 4.34191  10
  -3   6  11 30.6275 4.52346  15
  -2  -6  11 2.33343 2.86551   9
  -2  -6  11 1.07497 11.9926   5
  -2  -6  11 -0.4874 2.06191   8
  -2  -6  11 3.23845 3.34538  10
  -2  -6  11 3.51119 10.6751   2
  -2   6  11 3.79018 8.10596   6
  -2   6  11 5.35119 2.32980   9
  -2   6  11 2.78417 2.75113  10
  -2   6  11 7.95319 9.30944   2
  -2   6  11 1.80163 1.30912   8
  -1  -6  11 3.54079 2.67025   8
  -1   6  11 6.36102 2.75070   9
  -1   6  11 8.29590 9.06185   2
  -1   6  11 8.23331 2.10176   8
  -1   6  11 5.70968 8.59614   3
   0  -6  11 40.1827 5.06701   8
   0   6  11 34.8250 4.35913   8
  -1  -6 -11 5.81125 3.03221   8
  -1   6 -11 1.60354 2.05324   8
  -2  -6 -11 8.45580 2.79390   8
  -2  -6 -11 7.28677 3.48240   9
  -2   6 -11 5.19974 1.78421   8
  -2   6 -11 31.8375 12.1275   2
  -2   6 -11 2.90410 1.93636   9
  -3  -6 -11 11.3247 3.38199   9
  -3  -6 -11 5.33763 3.64385  10
  -3  -6 -11 11.0829 2.12122   8
  -3   6 -11 6.82242 2.84639  10
  -3   6 -11 6.53862 3.42585  18
  -3   6 -11 10.0304 2.52548   9
  -3   6 -11 8.33418 1.45569   8
  -4  -6 -11 3.99225 3.43084  10
  -4  -6 -11 7.62472 3.34376  12
  -4  -6 -11 0.55605 2.37148   9
  -4   6 -11 2.66683 1.66477   9
  -4   6 -11 0.04476 1.75196  10
  -4   6 -11 -2.1626 3.54545  18
  -5  -6 -11 2.69418 3.78241  12
  -5  -6 -11 1.41826 1.97286  10
  -5   6 -11 -0.2346 2.29492  18
  -5   6 -11 5.07371 1.76908  10
  -6  -6 -11 0.76404 2.49768  12
  -6   6 -11 -1.2471 2.35825  18
  -5  -7  11 34.5576 3.62349  10
  -5  -7  11 15.9542 4.50400  13
  -5  -7  11 21.3703 4.21690  14
  -5   7  11 25.0060 2.47907  10
  -5   7  11 23.7334 4.20698  16
  -5   7  11 22.4036 3.34445  15
  -4  -7  11 27.7774 6.51289  14
  -4  -7  11 44.9721 5.22250   9
  -4  -7  11 54.8348 6.47437  10
  -4   7  11 53.0966 6.30289  16
  -4   7  11 62.6205 5.53270  10
  -3  -7  11 7.45355 2.86291   9
  -3  -7  11 14.3944 3.08496  10
  -3  -7  11 12.9869 5.58490  14
  -3   7  11 9.83413 2.87987  10
  -3   7  11 7.20395 2.12674   9
  -3   7  11 12.9542 3.02806  16
  -2  -7  11 129.166 12.2061   8
  -2  -7  11 133.203 13.5208   9
  -2   7  11 144.806 14.5764  16
  -2   7  11 144.159 12.9104   9
  -2   7  11 132.375 11.5725   8
  -1  -7  11 34.2255 4.28172   8
  -1   7  11 34.9164 4.09821   9
  -1   7  11 18.9592 3.14659   8
   0  -7  11 5.99846 3.52030   8
   0   7  11 14.2461 2.75737   8
  -1  -7 -11 14.4965 3.50258   8
  -1   7 -11 11.2396 2.70498   8
  -2  -7 -11 59.4541 7.20226   9
  -2  -7 -11 61.2711 6.41562   8
  -2   7 -11 58.0063 6.87582   9
  -2   7 -11 58.5720 5.76402   8
  -3  -7 -11 16.1221 4.41647  10
  -3  -7 -11 14.2601 3.77652   9
  -3  -7 -11 14.5408 2.55205   8
  -3  -7 -11 24.0950 4.53653  12
  -3   7 -11 22.3178 3.51895  18
  -3   7 -11 13.7210 3.32396  10
  -3   7 -11 15.0229 3.02417   9
  -4  -7 -11 179.631 18.9838  10
  -4  -7 -11 212.379 21.2990  12
  -4  -7 -11 200.042 18.0968   9
  -4   7 -11 204.096 17.7127   9
  -4   7 -11 196.346 19.9473  18
  -4   7 -11 201.780 18.6402  10
  -5  -7 -11 36.1420 4.23526  12
  -5  -7 -11 20.3897 3.34688  10
  -5   7 -11 16.3142 2.64515  10
  -5   7 -11 21.9832 3.32766  18
  -5  -8  11 3.38914 1.73761  10
  -5   8  11 -2.8456 1.53338  16
  -4  -8  11 4.91628 3.80693  13
  -4  -8  11 7.35820 3.09320  10
  -4  -8  11 6.16041 3.57439  14
  -4   8  11 15.9734 2.30020  10
  -4   8  11 14.6591 2.86325  16
  -3  -8  11 9.02485 5.46806  14
  -3  -8  11 12.9426 3.08645   9
  -3  -8  11 6.20499 3.67163  10
  -3   8  11 8.59632 2.58899  10
  -3   8  11 8.11023 1.93425   9
  -3   8  11 7.38843 3.24749  16
  -2  -8  11 12.0598 3.69629   9
  -2  -8  11 6.21869 2.82311   8
  -2   8  11 12.3758 3.21278  10
  -2   8  11 12.8060 1.64014   8
  -2   8  11 14.8034 3.06097  16
  -2   8  11 7.36371 2.66172   9
  -1  -8  11 7.01208 2.98563   8
  -1   8  11 3.20045 2.38322   8
  -1   8  11 9.02193 2.43406   9
   0  -8  11 11.2582 3.75370   8
   0   8  11 10.3016 2.21534   8
   0   8 -11 5.85846 2.85328   8
  -1  -8 -11 30.9317 4.29849   8
  -1   8 -11 24.0518 3.56042   8
  -2  -8 -11 20.1534 3.20141   8
  -2  -8 -11 6.52529 3.87909   9
  -2   8 -11 12.8566 2.10059   8
  -2   8 -11 12.2220 2.58130   9
  -3  -8 -11 43.7076 5.32930   9
  -3  -8 -11 33.0465 6.43732  12
  -3  -8 -11 46.3732 3.99782   8
  -3   8 -11 44.2152 5.64792  18
  -3   8 -11 56.3224 5.26815   9
  -3   8 -11 34.0139 4.99930  10
  -4  -8 -11 27.8848 4.38943  10
  -4  -8 -11 43.6056 5.49390  12
  -4  -8 -11 36.3065 4.21942   9
  -4   8 -11 36.7490 4.65400  18
  -4   8 -11 38.2762 4.62166  10
  -4   8 -11 35.1324 3.45005   9
  -5  -8 -11 5.73617 2.93288  12
  -5  -8 -11 3.56967 1.79669  10
  -5   8 -11 2.12008 1.07540  10
  -5   8 -11 -1.2423 2.15243  18
  -4  -9  11 34.8210 3.76561  10
  -4  -9  11 18.5785 4.47343  14
  -4   9  11 22.6576 2.82483  10
  -4   9  11 31.1255 3.66109  16
  -3  -9  11 4.79249 3.44796  14
  -3  -9  11 5.44541 2.62375  10
  -3  -9  11 1.11145 2.43031   9
  -3   9  11 4.65357 1.58401   9
  -3   9  11 6.64794 2.17039  16
  -3   9  11 2.56576 2.15811  10
  -2  -9  11 2.27230 1.60175   8
  -2  -9  11 2.51119 3.31364   9
  -2   9  11 -0.8467 2.22732   9
  -2   9  11 2.22457 1.87913  10
  -2   9  11 0.80160 1.89210  16
  -1  -9  11 4.42734 2.76791   8
  -1   9  11 0.88880 2.57159  16
  -1   9  11 -0.2470 2.69001   9
  -1   9  11 1.98560 1.72413   8
   0  -9  11 186.379 17.3676   8
   0   9  11 205.722 16.7858   8
   0   9 -11 194.092 16.9030   8
  -1  -9 -11 4.36344 2.88985   8
  -1   9 -11 5.14533 2.18349   8
   1   9  11 7.60571 2.78359   8
  -2  -9 -11 5.88786 2.34754   8
  -2  -9 -11 12.2789 4.20070  12
  -2  -9 -11 3.54595 3.47180   9
  -2   9 -11 6.06663 1.35929   8
  -2   9 -11 7.07480 2.13237   9
  -3  -9 -11 6.34148 3.68229  12
  -3  -9 -11 4.90966 2.85479   9
  -3   9 -11 4.71011 1.99514  18
  -3   9 -11 3.34947 1.85309  10
  -3   9 -11 2.39280 1.84605   9
  -4  -9 -11 8.46315 1.43987   9
  -4  -9 -11 5.16268 2.61212  10
  -4  -9 -11 7.40019 2.38550  12
  -4   9 -11 7.11924 2.00570  18
  -4   9 -11 3.32052 1.44128  10
  -3 -10  11 8.27578 2.66585  10
  -3 -10  11 7.01735 2.62972  14
  -3 -10  11 5.33323 2.09330   9
  -3  10  11 9.48474 1.87449  16
  -3  10  11 7.11709 1.58689  10
  -2 -10  11 10.9735 4.40924  14
  -2 -10  11 -3.8318 2.66226   9
  -2  10  11 8.19534 2.09420   9
  -2  10  11 5.35249 1.76499  16
  -1 -10  11 20.2621 4.20731   9
  -1 -10  11 27.9498 3.82164   8
  -1  10  11 30.6637 3.03608   8
  -1  10  11 28.1610 3.84658  16
  -1  10  11 30.0409 4.11534   9
   0 -10  11 5.77569 3.28437   8
   0 -10 -11 0.80912 3.04749   8
   0  10  11 3.18361 1.91472   8
   0  10 -11 3.69935 2.23026   8
   0  10  11 4.26897 2.23305  16
  -1 -10 -11 9.49176 2.13551   8
  -1 -10 -11 5.86482 3.28071  12
  -1  10 -11 7.88043 1.75799   8
   1  10  11 2.72123 2.25569   8
  -2 -10 -11 19.9152 3.61349   9
  -2 -10 -11 28.2371 3.00848   8
  -2 -10 -11 24.9822 3.90429  12
  -2  10 -11 27.1876 3.88439  18
  -2  10 -11 24.5870 3.15407   9
  -3 -10 -11 0.05122 2.76612  12
  -3 -10 -11 3.62380 2.07587   9
  -3  10 -11 -0.3767 2.15885  18
  -3  10 -11 -0.0823 1.11666   9
  -3  10 -11 -0.4012 1.56836  10
  -2 -11  11 8.27362 2.77014   9
  -2  11  11 12.9944 1.65370   9
  -1 -11  11 11.6348 1.89422   8
  -1 -11  11 16.0496 3.45473   9
  -1 -11  11 9.90823 2.79273  14
  -1  11  11 15.2288 2.11931   9
   1  11 -11 9.72771 2.30725   8
   0 -11  11 35.1143 4.07782   8
   0 -11 -11 27.4998 3.55107   8
   0  11  11 34.6164 3.33496   8
   0  11 -11 37.7502 3.64078   8
   1 -11  11 5.93092 2.24686   8
  -1 -11 -11 4.91359 1.25834   8
   1  11  11 3.61980 1.21707   8
  -1  11 -11 2.98540 0.82395   8
  -1  11 -11 -0.1813 1.84244   9
  -2  11 -11 18.1495 2.49801  18
  -2  11 -11 12.9398 1.94433   9
  -7   0  12 51.2110 5.75378  14
  -6   0  12 144.601 13.8374  15
  -6   0  12 114.701 15.1842  13
  -6   0  12 142.206 13.9544  14
  -5   0  12 95.3849 9.27170  10
  -5   0  12 102.942 10.6353  15
  -5   0  12 92.6900 12.0297  13
  -5   0  12 105.967 11.5953  14
  -4   0  12 176.868 16.5058  10
  -4   0  12 181.921 18.3995  14
  -4   0  12 161.699 24.0076   6
  -4   0  12 176.235 20.0901  13
  -4   0  12 189.005 17.8235  15
  -4   0  12 174.906 15.4380   9
  -4   0  12 159.994 17.4049   2
  -3   0  12 342.204 39.4795  13
  -3   0  12 376.629 33.0831   9
  -3   0  12 354.960 39.5195   3
  -3   0  12 356.111 36.6240  14
  -3   0  12 396.935 35.7335  15
  -3   0  12 394.942 34.3273  10
  -3   0  12 365.567 43.1571   5
  -3   0  12 424.785 40.7507   6
  -3   0  12 369.221 37.1685   2
  -2   0  12 222.064 23.4506   2
  -2   0  12 211.559 20.1799  10
  -2   0  12 182.949 21.4271  14
  -2   0  12 234.699 26.6630   5
  -2   0  12 244.378 24.9238   6
  -2   0  12 217.640 19.4929   9
  -2   0  12 217.609 17.8535   8
  -2   0  12 222.463 25.6241   3
  -1   0  12 138.939 16.5384   2
  -1   0  12 120.803 10.9694   8
  -1   0  12 128.150 16.9967   3
   0   0  12 147.678 18.4921   2
   0   0  12 142.104 19.7570   3
  -1   0 -12 176.016 18.8946   2
  -1   0 -12 139.686 18.6681   3
  -2   0 -12 50.4913 5.06201   8
  -2   0 -12 71.6595 11.4241   4
  -2   0 -12 41.0182 8.93831   3
  -2   0 -12 47.5050 5.89788   9
  -2   0 -12 47.7492 10.3371   2
  -3   0 -12 265.726 29.2924  18
  -3   0 -12 305.755 26.6103   9
  -3   0 -12 311.875 27.4935  10
  -3   0 -12 283.540 30.6664   2
  -3   0 -12 280.458 32.2156   3
  -3   0 -12 324.451 35.6685   4
  -3   0 -12 311.027 24.6504   8
  -4   0 -12 189.634 19.9077  11
  -4   0 -12 185.488 17.5249  10
  -4   0 -12 176.648 18.8464  18
  -4   0 -12 139.441 26.2917   4
  -4   0 -12 197.354 16.9502   9
  -5   0 -12 41.6326 5.53478  18
  -5   0 -12 54.1543 5.36122  10
  -5   0 -12 36.3362 5.80035  17
  -5   0 -12 35.1199 6.66459  11
  -6   0 -12 68.2584 8.19812  11
  -6   0 -12 68.9935 8.06912  18
  -7   0 -12 30.9503 3.89279  18
  -7  -1  12 0.01900 1.98485  14
  -7   1  12 2.24429 1.83950  14
  -6  -1  12 36.0893 4.70335  14
  -6  -1  12 25.8930 4.03392  15
  -6  -1  12 26.9170 5.24377  13
  -6   1  12 27.3892 4.54433  15
  -6   1  12 30.2461 5.30030  13
  -6   1  12 22.9989 4.87082  14
  -5  -1  12 1.13823 2.51733  15
  -5  -1  12 1.63712 4.06612  14
  -5  -1  12 0.65992 4.86356  13
  -5  -1  12 1.15802 1.59624  10
  -5   1  12 4.12431 5.48486  13
  -5   1  12 0.87938 1.40151  10
  -5   1  12 6.58705 3.80896  14
  -5   1  12 6.00149 3.36244  15
  -4  -1  12 20.2307 3.44404  10
  -4  -1  12 17.0792 4.60777  14
  -4  -1  12 13.8155 5.86278   2
  -4  -1  12 17.5377 4.28872  15
  -4  -1  12 17.1832 12.2490   5
  -4  -1  12 18.1645 2.20306   9
  -4  -1  12 14.8497 4.95674  13
  -4   1  12 21.1513 3.43340  10
  -4   1  12 20.0006 2.11238   9
  -4   1  12 15.4436 4.22293  14
  -4   1  12 20.0383 5.72052  13
  -4   1  12 16.7936 10.4092   6
  -4   1  12 23.2991 4.24282  15
  -3  -1  12 17.2408 7.34896   2
  -3  -1  12 31.2539 4.25587  10
  -3  -1  12 31.4616 4.57637  15
  -3  -1  12 21.0564 4.48077  14
  -3  -1  12 23.9833 3.39282   9
  -3  -1  12 31.3686 11.2454   5
  -3  -1  12 28.5317 5.29677  13
  -3  -1  12 20.0172 7.76890   3
  -3  -1  12 23.2629 11.0923   6
  -3   1  12 22.8162 8.38229   3
  -3   1  12 30.3889 4.04648  15
  -3   1  12 32.0180 9.90914   6
  -3   1  12 34.2801 5.73393  13
  -3   1  12 19.2788 6.98310   2
  -3   1  12 23.8247 4.21860  10
  -3   1  12 20.5368 4.34660  14
  -3   1  12 24.0879 3.45610   9
  -2  -1  12 33.0090 4.87293  14
  -2  -1  12 25.8754 4.60408  10
  -2  -1  12 28.2654 9.57821   5
  -2  -1  12 28.7923 3.40913   8
  -2  -1  12 35.8420 8.83367   6
  -2  -1  12 32.1741 4.23725   9
  -2  -1  12 25.9108 7.90300   3
  -2  -1  12 14.0821 8.36478   2
  -2   1  12 32.0018 3.36211   8
  -2   1  12 32.9012 4.04554   9
  -2   1  12 28.5248 9.06924   3
  -2   1  12 27.2376 4.38354  10
  -2   1  12 29.0221 8.49616   6
  -2   1  12 34.9726 8.48107   2
  -1  -1  12 9.23650 7.35260   5
  -1  -1  12 3.29083 2.09724   8
  -1  -1  12 2.53970 6.54205   2
  -1  -1  12 9.85385 7.79334   3
  -1   1  12 7.12731 2.03103   8
  -1   1  12 6.93959 6.18376   3
  -1   1  12 5.47521 6.19509   6
  -1   1  12 7.77828 7.24666   2
  -1  -1 -12 7.51742 5.94423   3
  -1  -1 -12 -5.7067 7.55681   2
  -1   1 -12 -2.9962 5.11370   3
  -1   1 -12 -6.2183 5.57748   2
  -2  -1 -12 12.3666 6.09365   3
  -2  -1 -12 7.38423 6.62661   2
  -2  -1 -12 17.8005 3.29841   9
  -2  -1 -12 15.0600 8.55027   4
  -2  -1 -12 18.7696 2.89641   8
  -2   1 -12 8.74060 5.88328   7
  -2   1 -12 12.5016 3.14098  18
  -2   1 -12 15.6274 6.26579   3
  -2   1 -12 19.0213 2.66559   8
  -2   1 -12 17.8712 3.08805   9
  -2   1 -12 21.5646 7.09274   2
  -3  -1 -12 70.5855 16.2477   4
  -3  -1 -12 73.2525 9.00698  11
  -3  -1 -12 74.5947 6.38722   8
  -3  -1 -12 74.8770 7.45286   9
  -3  -1 -12 53.2655 11.0167   2
  -3  -1 -12 69.4219 7.80123  10
  -3  -1 -12 49.0195 10.9282   3
  -3   1 -12 68.0149 8.23207  18
  -3   1 -12 74.6949 11.8990   2
  -3   1 -12 73.0747 6.38326   8
  -3   1 -12 72.8979 7.70616  10
  -3   1 -12 46.2665 11.8161   7
  -3   1 -12 84.9626 15.1974   4
  -3   1 -12 73.5382 7.26232   9
  -3   1 -12 43.5473 9.71923   3
  -4  -1 -12 5.75259 2.37502   9
  -4  -1 -12 6.03274 2.72889  10
  -4  -1 -12 6.01398 3.15617  11
  -4  -1 -12 6.75955 3.11327  18
  -4  -1 -12 -0.8514 15.4919   4
  -4   1 -12 -0.3281 2.36929  10
  -4   1 -12 4.02461 3.20762  18
  -4   1 -12 3.29949 1.98808   9
  -4   1 -12 2.47052 3.50057  11
  -4   1 -12 2.31223 12.8574   4
  -4   1 -12 -15.963 9.78242   7
  -5  -1 -12 9.72926 4.93390  11
  -5  -1 -12 5.57735 3.30662  18
  -5  -1 -12 4.03557 3.16952  10
  -5   1 -12 5.49991 3.11248  17
  -5   1 -12 9.91346 3.17373  11
  -5   1 -12 5.03358 2.41530  10
  -5   1 -12 1.70115 3.43519  18
  -6  -1 -12 5.60882 4.05645  11
  -6  -1 -12 4.56680 2.29679  18
  -6   1 -12 4.07352 2.24369  17
  -6   1 -12 6.82436 1.19417  10
  -6   1 -12 5.69641 2.73157  11
  -6   1 -12 6.40386 2.33374  18
  -7  -1 -12 1.39533 2.58894  11
  -7   1 -12 1.53681 1.46167  18
  -6  -2  12 18.9841 4.38204  13
  -6  -2  12 11.9019 4.30537  14
  -6   2  12 22.8344 3.57898  14
  -6   2  12 18.7221 3.37394  15
  -5  -2  12 27.6144 3.39569  10
  -5  -2  12 31.4263 6.15842  13
  -5  -2  12 21.0153 4.61314  15
  -5  -2  12 21.6343 5.28810  14
  -5   2  12 23.5510 4.55594  15
  -5   2  12 43.8326 7.06057  13
  -5   2  12 27.5035 5.09085  14
  -5   2  12 26.1771 3.21002  10
  -4  -2  12 38.1405 5.57329  15
  -4  -2  12 36.5595 3.60495   9
  -4  -2  12 31.9558 4.49545  10
  -4  -2  12 28.4781 14.2926   5
  -4  -2  12 23.4141 6.06504  13
  -4  -2  12 36.4696 5.97257  14
  -4   2  12 38.1469 7.09935  13
  -4   2  12 41.8352 4.54361  10
  -4   2  12 30.9187 3.08816   9
  -4   2  12 37.9233 12.4875   6
  -4   2  12 30.1641 5.37091  14
  -4   2  12 35.7208 5.14950  15
  -3  -2  12 9.71513 5.25909  13
  -3  -2  12 7.10366 3.36013  15
  -3  -2  12 2.25545 7.44036   2
  -3  -2  12 3.53159 6.62900   3
  -3  -2  12 16.2979 12.2196   5
  -3  -2  12 12.4241 9.54074   6
  -3  -2  12 11.6262 3.90027  14
  -3  -2  12 13.8614 3.26508  10
  -3  -2  12 12.6436 2.51955   9
  -3   2  12 15.3770 2.92880  10
  -3   2  12 8.82086 2.46646   9
  -3   2  12 7.50771 6.15374   3
  -3   2  12 4.25281 6.14545   2
  -3   2  12 10.9610 3.74109  16
  -3   2  12 10.2805 4.94060  13
  -3   2  12 23.7032 9.10051   6
  -3   2  12 11.2824 3.13762  15
  -3   2  12 8.14052 3.10644  14
  -2  -2  12 59.0115 7.03082  10
  -2  -2  12 52.9917 10.3721   2
  -2  -2  12 60.5175 6.53254   9
  -2  -2  12 44.6606 11.0824   3
  -2  -2  12 66.8172 11.6707   6
  -2  -2  12 57.2311 7.46463  14
  -2  -2  12 55.9261 5.80377   8
  -2  -2  12 61.1886 13.8195   5
  -2   2  12 53.3392 6.90808  10
  -2   2  12 55.9263 6.70224  15
  -2   2  12 64.4747 11.6637   3
  -2   2  12 63.7106 6.31746   9
  -2   2  12 37.8641 9.69075   6
  -2   2  12 65.8905 11.0046   2
  -2   2  12 57.2057 5.36995   8
  -1  -2  12 61.5342 11.8685   2
  -1  -2  12 63.7426 12.4797   3
  -1  -2  12 75.8008 7.52100   8
  -1   2  12 76.2383 12.8457   3
  -1   2  12 72.5498 8.32233   9
  -1   2  12 79.2228 12.1074   2
  -1   2  12 92.6233 12.8701   6
  -1   2  12 85.7256 7.47444   8
  -1  -2 -12 22.4165 3.24409   8
  -1  -2 -12 25.9920 7.05436   4
  -1   2 -12 19.1065 2.84618   8
  -1   2 -12 13.9782 7.56642   3
  -1   2 -12 32.3839 7.65745   2
  -2  -2 -12 7.32238 7.71872   2
  -2  -2 -12 2.68563 7.76580   3
  -2  -2 -12 17.1245 3.29199   9
  -2  -2 -12 17.9560 7.83326   4
  -2  -2 -12 15.8178 2.88951   8
  -2   2 -12 8.12100 6.91995   3
  -2   2 -12 10.4237 2.74878  18
  -2   2 -12 18.0122 8.32249   2
  -2   2 -12 12.1532 2.08400   8
  -2   2 -12 12.0268 2.78061   9
  -3  -2 -12 -0.3855 6.21274   3
  -3  -2 -12 21.4018 4.48440  11
  -3  -2 -12 23.4920 3.86656  10
  -3  -2 -12 23.8772 10.5145   4
  -3  -2 -12 20.4739 3.51049   9
  -3  -2 -12 9.51892 8.44004   2
  -3  -2 -12 19.1429 2.57230   8
  -3   2 -12 22.0202 3.78727  18
  -3   2 -12 22.6968 8.57829   7
  -3   2 -12 26.1444 7.47899   2
  -3   2 -12 18.0178 3.39430  10
  -3   2 -12 16.6852 2.39809   8
  -3   2 -12 17.7510 3.00138   9
  -3   2 -12 15.0027 7.06930   3
  -3   2 -12 17.5450 11.7659   4
  -4  -2 -12 73.9227 7.76616  10
  -4  -2 -12 45.1584 17.3006   4
  -4  -2 -12 56.8991 8.44709  12
  -4  -2 -12 73.8727 9.19573  11
  -4  -2 -12 61.9806 7.13741   9
  -4   2 -12 50.3141 16.0642   4
  -4   2 -12 66.1394 7.39573  10
  -4   2 -12 86.4296 8.97387  11
  -4   2 -12 42.2653 13.8197   7
  -4   2 -12 70.1298 8.47830  18
  -4   2 -12 68.7531 6.96568   9
  -5  -2 -12 11.1390 2.81226  18
  -5  -2 -12 12.0303 4.99516  11
  -5  -2 -12 21.3034 3.50989  10
  -5   2 -12 21.2227 4.40713  11
  -5   2 -12 16.2013 3.54200  17
  -5   2 -12 19.6589 3.00156  10
  -5   2 -12 22.8742 4.30749  18
  -6  -2 -12 5.41585 1.58256  10
  -6  -2 -12 4.32245 2.79109  18
  -6  -2 -12 6.56785 2.92043  11
  -6   2 -12 5.65791 2.26034  17
  -6   2 -12 1.09409 2.06605  11
  -6   2 -12 7.27662 2.33998  18
  -6  -3  12 3.82816 3.81510  14
  -6  -3  12 3.20507 2.84186  13
  -6   3  12 -1.1944 1.70413  15
  -6   3  12 2.40549 3.16767  14
  -5  -3  12 4.32598 4.49834  13
  -5  -3  12 4.70319 2.23629  10
  -5  -3  12 10.2759 3.59708  14
  -5   3  12 6.00774 3.69557  14
  -5   3  12 2.98529 3.04063  16
  -5   3  12 8.87501 3.00402  15
  -4  -3  12 20.7710 4.83064  14
  -4  -3  12 3.53073 4.61651  13
  -4  -3  12 16.2535 3.40189  10
  -4  -3  12 17.3418 2.27322   9
  -4  -3  12 16.8970 4.33560  15
  -4   3  12 14.7378 4.13088  14
  -4   3  12 14.6710 4.62642  16
  -4   3  12 20.4365 3.30690  10
  -4   3  12 17.8169 3.89849  15
  -3  -3  12 13.5784 10.8505   5
  -3  -3  12 1.56734 3.37592  15
  -3  -3  12 7.76819 2.97072   9
  -3  -3  12 8.99720 3.96103  14
  -3  -3  12 12.4629 3.26648  10
  -3  -3  12 1.79603 8.26471   2
  -3  -3  12 6.25134 5.96523   3
  -3   3  12 10.3572 2.79991  10
  -3   3  12 3.61415 6.41574   2
  -3   3  12 3.64125 8.11024   6
  -3   3  12 7.87325 3.88221  14
  -3   3  12 17.8515 7.85293   3
  -3   3  12 8.90507 3.75399  16
  -3   3  12 11.7602 2.17472   9
  -3   3  12 7.31637 2.86732  15
  -2  -3  12 16.3448 3.24133   9
  -2  -3  12 12.6586 2.23029   8
  -2  -3  12 4.04137 6.82187   3
  -2  -3  12 10.3183 3.57703  14
  -2  -3  12 7.47890 8.50848   6
  -2  -3  12 17.8871 9.01368   5
  -2  -3  12 19.3856 9.38640   2
  -2  -3  12 14.0286 3.48183  10
  -2   3  12 17.3467 3.11790  15
  -2   3  12 11.0427 2.66249   9
  -2   3  12 11.3053 6.29513   2
  -2   3  12 2.87355 7.75912   3
  -2   3  12 9.53192 7.35033   6
  -2   3  12 11.3950 2.00205   8
  -2   3  12 17.4156 3.82691  10
  -1  -3  12 9.08588 2.49877   8
  -1  -3  12 6.58399 3.11447   9
  -1  -3  12 -5.0662 6.89690   2
  -1  -3  12 -0.6290 8.30040   3
  -1   3  12 0.24586 5.55023   6
  -1   3  12 4.58806 2.53487   9
  -1   3  12 3.62344 6.49625   3
  -1   3  12 9.69194 6.30877   2
   0  -3 -12 -3.1035 6.41688   4
   0   3  12 9.43646 5.72749   6
   0   3  12 0.90233 2.22428   8
  -1  -3 -12 19.2665 7.45025   4
  -1  -3 -12 25.4248 3.54737   8
   1   3  12 19.1726 6.67390   6
  -1   3 -12 25.9062 3.26146   8
  -2  -3 -12 69.2961 6.57763   8
  -2  -3 -12 67.6522 14.1677   4
  -2  -3 -12 63.7104 12.7833   3
  -2  -3 -12 86.7183 15.0198   2
  -2  -3 -12 72.1172 7.69921   9
  -2   3 -12 64.5704 7.14465   9
  -2   3 -12 68.8018 6.19056   8
  -2   3 -12 69.6278 12.5838   2
  -2   3 -12 36.4566 9.57407   3
  -3  -3 -12 53.9312 5.34732   8
  -3  -3 -12 53.6026 6.38857   9
  -3  -3 -12 52.9410 6.95314  11
  -3  -3 -12 72.6402 16.3436   4
  -3  -3 -12 48.4769 6.41217  10
  -3  -3 -12 23.8567 9.21716   3
  -3  -3 -12 47.6046 13.2748   2
  -3   3 -12 49.3317 6.25870  10
  -3   3 -12 44.6429 14.7645   4
  -3   3 -12 28.2214 9.37596   3
  -3   3 -12 47.1510 11.5035   7
  -3   3 -12 56.6327 4.86259   8
  -3   3 -12 56.1698 5.78866   9
  -3   3 -12 37.2007 9.20852   2
  -3   3 -12 51.0244 6.80412  18
  -4  -3 -12 6.30371 3.36576  11
  -4  -3 -12 12.1229 3.96308  12
  -4  -3 -12 6.15782 3.17188  10
  -4   3 -12 8.33297 2.42757   9
  -4   3 -12 9.11379 3.60941  18
  -4   3 -12 9.76056 2.73142  10
  -4   3 -12 7.47982 3.26963  11
  -5  -3 -12 26.4077 3.76854  10
  -5  -3 -12 22.1303 5.22437  11
  -5  -3 -12 18.7932 4.07664  12
  -5   3 -12 16.2819 2.93859  10
  -5   3 -12 18.4314 4.21288  18
  -5   3 -12 13.2077 3.74687  11
  -6  -3 -12 4.89333 3.59722  11
  -6   3 -12 13.2755 2.57452  18
  -6   3 -12 10.0186 3.07259  17
  -6  -4  12 1.56777 2.66964  14
  -6  -4  12 4.13773 2.62897  13
  -6   4  12 7.49342 2.53298  15
  -6   4  12 7.84015 2.32843  14
  -5  -4  12 1.98294 2.34493  10
  -5  -4  12 3.16464 3.42864  14
  -5  -4  12 3.90788 4.33285  13
  -5   4  12 6.65248 3.09373  16
  -5   4  12 3.55518 2.58364  14
  -5   4  12 7.16496 1.47687  10
  -5   4  12 3.50023 2.81744  15
  -4  -4  12 6.71108 3.43256  14
  -4  -4  12 3.51467 2.90450  10
  -4  -4  12 11.8543 2.11735   9
  -4  -4  12 4.18159 4.55462  13
  -4   4  12 12.1965 4.46564  16
  -4   4  12 10.3829 3.21998  15
  -4   4  12 10.4410 2.42090  10
  -4   4  12 1.92785 3.42221  14
  -3  -4  12 32.9510 9.79207   2
  -3  -4  12 42.6806 5.89306  10
  -3  -4  12 34.0464 13.1236   5
  -3  -4  12 46.8491 6.82440  14
  -3  -4  12 41.2630 5.25313   9
  -3   4  12 39.3106 11.4385   6
  -3   4  12 44.7960 5.62926  15
  -3   4  12 53.4354 9.63091   2
  -3   4  12 42.0033 5.28899   9
  -3   4  12 54.5708 5.80040  10
  -3   4  12 43.9299 6.52350  16
  -2  -4  12 183.386 18.0269  10
  -2  -4  12 118.926 21.5306   2
  -2  -4  12 183.448 26.1630   5
  -2  -4  12 191.927 15.9105   8
  -2  -4  12 181.296 17.4387   9
  -2  -4  12 149.378 22.5791   3
  -2   4  12 199.032 15.6618   8
  -2   4  12 180.076 18.1880  15
  -2   4  12 182.539 22.3745   3
  -2   4  12 209.409 17.1657   9
  -2   4  12 196.384 17.8291  10
  -2   4  12 172.381 22.6632   6
  -2   4  12 186.963 22.1941   2
  -1  -4  12 190.808 15.6200   8
  -1  -4  12 183.431 22.7589   2
  -1  -4  12 121.396 21.1900   3
  -1   4  12 182.853 14.9620   8
  -1   4  12 183.602 16.1944   9
  -1   4  12 203.457 22.7902   2
  -1   4  12 149.046 21.6865   3
  -1   4  12 163.536 17.0512  15
  -1   4  12 197.160 21.4270   6
   0   4  12 3.90352 5.67826   6
  -1  -4 -12 51.2325 5.33166   8
  -1  -4 -12 35.4626 11.0107   4
  -1   4 -12 44.9885 5.12678   8
  -2  -4 -12 137.488 20.5207   4
  -2  -4 -12 142.750 13.7565   9
  -2  -4 -12 86.8304 18.0313   3
  -2  -4 -12 134.956 15.1573  11
  -2  -4 -12 143.782 20.3035   2
  -2  -4 -12 156.701 12.4468   8
  -2   4 -12 147.702 12.1054   8
  -2   4 -12 96.2389 17.3749   3
  -2   4 -12 157.016 18.7537   2
  -2   4 -12 150.812 13.3651   9
  -3  -4 -12 24.3105 4.30229  10
  -3  -4 -12 24.8982 4.05785   9
  -3  -4 -12 17.8652 4.49454  11
  -3  -4 -12 18.5642 14.1793   4
  -3  -4 -12 14.6612 12.7186   2
  -3  -4 -12 22.2865 3.09332   8
  -3   4 -12 15.9199 3.56526  10
  -3   4 -12 11.1192 8.38809   2
  -3   4 -12 18.8115 2.38384   8
  -3   4 -12 7.34762 10.5021   7
  -3   4 -12 23.7069 3.23384   9
  -3   4 -12 18.4874 3.85759  18
  -4  -4 -12 13.6355 4.78146  11
  -4  -4 -12 14.9672 2.98931   9
  -4  -4 -12 19.6256 4.69041  12
  -4  -4 -12 12.8570 3.57230  10
  -4   4 -12 9.62482 3.83980  18
  -4   4 -12 17.3839 2.77569   9
  -4   4 -12 15.0930 3.36383  11
  -4   4 -12 11.0201 2.96780  10
  -5  -4 -12 35.4445 4.71570  10
  -5  -4 -12 40.9721 5.60768  12
  -5  -4 -12 35.9902 5.24875  11
  -5   4 -12 27.7110 5.16436  18
  -5   4 -12 31.2201 4.03129  10
  -6  -4 -12 32.5536 4.07250  11
  -6  -4 -12 24.6704 3.78939  12
  -6  -4 -12 22.6801 2.61106  10
  -6   4 -12 33.5977 3.84324  18
  -6  -5  12 16.4465 3.27387  14
  -6  -5  12 6.47067 3.66965  13
  -6   5  12 18.8392 2.61695  15
  -6   5  12 18.3510 3.41984  16
  -5  -5  12 26.7031 3.44508  10
  -5  -5  12 18.0744 5.11452  13
  -5  -5  12 26.8588 5.93441  14
  -5   5  12 32.8853 4.73481  16
  -5   5  12 24.7616 3.01039  10
  -5   5  12 21.5268 4.42737  14
  -5   5  12 29.2365 3.84605  15
  -4  -5  12 24.9520 5.62944  13
  -4  -5  12 27.7116 4.48063  10
  -4  -5  12 29.2499 3.57242   9
  -4  -5  12 35.7904 6.40926  14
  -4   5  12 37.1384 5.18356  16
  -4   5  12 27.4236 4.48212  15
  -3  -5  12 5.79466 2.66198   9
  -3  -5  12 18.5378 13.9348   5
  -3  -5  12 2.37165 3.11038  10
  -3  -5  12 5.39526 4.66424  14
  -3   5  12 2.34281 3.31199  16
  -3   5  12 9.65573 2.77190  15
  -3   5  12 5.50743 2.74302  10
  -3   5  12 3.78036 1.88106   9
  -2  -5  12 7.93874 12.0608   2
  -2  -5  12 9.80081 9.11690   3
  -2  -5  12 9.85712 3.64881  10
  -2  -5  12 14.6003 2.93706   9
  -2  -5  12 11.4646 2.82638   8
  -2  -5  12 8.10814 10.9891   5
  -2   5  12 21.0700 8.28653   2
  -2   5  12 16.9978 2.93025   9
  -2   5  12 3.66277 2.53676  15
  -2   5  12 -9.5801 7.55122   6
  -2   5  12 16.3904 2.14440   8
  -2   5  12 13.4797 3.33641  10
  -1  -5  12 25.4841 3.69797   8
  -1   5  12 11.0106 9.09403   3
  -1   5  12 -1.4906 8.82786   2
  -1   5  12 28.2396 3.92673   9
  -1   5  12 23.0877 2.99536   8
  -1   5  12 8.23102 7.90267   6
   0  -5  12 2.36652 2.92488   8
   0   5  12 3.81413 2.20067   8
  -1  -5 -12 8.47008 2.89145   8
  -1   5 -12 8.38623 2.28211   8
  -2  -5 -12 2.60453 2.54611   8
  -2  -5 -12 10.8040 3.65588   9
  -2  -5 -12 -8.9857 12.0258   4
  -2   5 -12 3.19613 1.64019   8
  -2   5 -12 3.89063 8.95170   2
  -2   5 -12 -14.775 9.64528   3
  -2   5 -12 -0.3489 2.36043   9
  -3  -5 -12 1.42044 2.90187   9
  -3  -5 -12 9.70780 11.7749   4
  -3  -5 -12 5.68269 2.38265   8
  -3  -5 -12 3.85548 2.64430  10
  -3   5 -12 9.28183 3.37468  18
  -3   5 -12 7.39292 2.44031   9
  -3   5 -12 4.65790 1.37346   8
  -3   5 -12 3.74866 2.00969  10
  -4  -5 -12 23.7375 5.26057  12
  -4  -5 -12 26.7915 3.88764   9
  -4  -5 -12 24.7906 4.25302  10
  -4  -5 -12 24.6035 4.78072  11
  -4   5 -12 16.2201 3.39816  10
  -4   5 -12 16.3687 4.33607  18
  -4   5 -12 21.7599 2.88848   9
  -5  -5 -12 0.82238 3.19570  11
  -5  -5 -12 8.20305 2.85971  10
  -5  -5 -12 1.87188 2.48827  12
  -5   5 -12 9.64468 2.65414  18
  -5   5 -12 3.22940 1.89370  10
  -6  -5 -12 6.19177 2.48119  11
  -6  -5 -12 10.2139 2.50709  12
  -6   5 -12 8.98764 2.11132  18
  -5  -6  12 42.8423 4.93627  10
  -5  -6  12 38.8502 6.39152  13
  -5  -6  12 35.2944 5.91023  14
  -5   6  12 42.0977 5.46028  15
  -5   6  12 38.6578 5.57843  16
  -5   6  12 53.2325 4.36120  10
  -4  -6  12 25.3781 3.19376   9
  -4  -6  12 25.4428 5.21517  14
  -4  -6  12 22.3795 4.07947  10
  -4  -6  12 23.4316 5.22607  13
  -4   6  12 24.5869 3.94223  15
  -4   6  12 23.8066 3.45388  10
  -4   6  12 34.3433 4.59423  16
  -3  -6  12 27.0524 6.09525  14
  -3  -6  12 19.4992 3.94614   9
  -3  -6  12 25.9383 4.78280  10
  -3   6  12 28.3671 3.46996   9
  -3   6  12 27.0204 4.86347  16
  -3   6  12 40.2518 4.38612  10
  -3   6  12 26.4635 4.09331  15
  -2  -6  12 128.366 11.6082   8
  -2   6  12 123.370 12.9164  10
  -2   6  12 139.371 12.3281   9
  -2   6  12 125.723 10.9437   8
  -1  -6  12 156.204 14.5895   8
  -1   6  12 162.852 15.5723   9
  -1   6  12 172.607 14.1572   8
   0  -6  12 32.3814 4.94729   8
   0   6  12 36.5807 4.35060   8
  -1  -6 -12 46.5021 5.23271   8
  -1   6 -12 38.0024 4.63289   8
  -2  -6 -12 129.590 10.8949   8
  -2  -6 -12 112.242 12.2534   9
  -2   6 -12 128.039 10.4323   8
  -2   6 -12 101.614 11.5171   9
  -3  -6 -12 30.5580 4.26590   8
  -3  -6 -12 46.0851 5.66398   9
  -3  -6 -12 47.1217 6.31771  10
  -3   6 -12 47.8456 3.93438   8
  -3   6 -12 43.9919 5.89718  18
  -3   6 -12 45.8999 5.39738   9
  -3   6 -12 47.0446 5.63908  10
  -4  -6 -12 37.8909 5.81336  10
  -4  -6 -12 48.4036 6.87640  12
  -4  -6 -12 53.9349 5.98173   9
  -4   6 -12 36.3919 5.99892  18
  -4   6 -12 45.8902 5.57537  10
  -4   6 -12 48.5904 4.89414   9
  -5  -6 -12 91.8367 10.1669  12
  -5  -6 -12 82.7248 8.88319  10
  -5   6 -12 96.0970 9.79007  18
  -5   6 -12 96.9263 8.81971  10
  -5  -7  12 2.47027 3.20857  13
  -5  -7  12 3.60853 2.03341  10
  -5  -7  12 -1.4378 2.36810  14
  -5   7  12 5.50031 2.11527  16
  -4  -7  12 1.75344 2.83349  10
  -4  -7  12 -2.8225 4.90847  14
  -4   7  12 3.30216 3.14612  16
  -4   7  12 4.25153 1.92317  10
  -3  -7  12 9.90559 5.16428  14
  -3  -7  12 4.81512 3.70459  10
  -3  -7  12 3.00114 2.02693   9
  -3   7  12 4.51348 1.74300   9
  -3   7  12 4.96503 2.61000  10
  -3   7  12 5.10685 3.21776  16
  -2  -7  12 -4.2928 2.88571   9
  -2  -7  12 2.94828 2.55537   8
  -2   7  12 4.52059 3.04722  16
  -2   7  12 -0.3783 1.62615   9
  -2   7  12 -1.8496 1.22955   8
  -1  -7  12 9.04732 3.10538   8
  -1   7  12 6.12715 1.94398   8
  -1   7  12 5.00156 2.88526   9
   0  -7  12 1.17467 3.28154   8
   0   7  12 -0.9328 2.29526   8
  -1  -7 -12 17.7447 3.68079   8
  -1   7 -12 17.8059 3.01540   8
  -2  -7 -12 3.60222 2.66553   8
  -2  -7 -12 4.94221 3.46660   9
  -2   7 -12 3.72576 1.74857   8
  -2   7 -12 9.32887 2.91499   9
  -3  -7 -12 -0.1430 2.65836  12
  -3  -7 -12 3.84743 3.08033   9
  -3  -7 -12 -0.1707 1.36219   8
  -3   7 -12 0.22844 1.79144  10
  -3   7 -12 2.36905 2.15908  18
  -3   7 -12 3.27146 2.32786   9
  -4  -7 -12 2.07399 2.71715  12
  -4  -7 -12 3.13688 2.08519   9
  -4  -7 -12 -0.0431 3.03834  10
  -4   7 -12 0.34426 1.13801   9
  -4   7 -12 3.95562 1.75290  10
  -4   7 -12 1.14528 2.25015  18
  -5  -7 -12 21.1596 4.08892  12
  -5  -7 -12 18.3830 3.06749  10
  -5   7 -12 19.0104 2.96437  18
  -5   7 -12 22.7290 2.56428  10
  -4  -8  12 15.7355 2.74622  10
  -4  -8  12 13.5409 3.53320  14
  -4   8  12 12.7093 1.94822  10
  -4   8  12 11.3284 3.24091  16
  -3  -8  12 1.04359 2.54830   9
  -3  -8  12 4.19817 2.70022  10
  -3  -8  12 7.10714 5.03908  14
  -3   8  12 3.50410 2.82218  16
  -3   8  12 3.19652 1.58248   9
  -3   8  12 -3.6761 1.98469  10
  -2  -8  12 55.1098 6.03562   8
  -2   8  12 58.3323 7.53070  16
  -2   8  12 53.3334 7.01595  10
  -2   8  12 58.0336 5.06006   8
  -2   8  12 76.4673 6.61956   9
  -1  -8  12 27.3442 4.41950   8
  -1   8  12 32.0056 4.24645   9
  -1   8  12 35.7518 3.84184   8
   0  -8  12 12.4577 3.10267   8
   0   8  12 16.2987 2.98521   8
   0   8 -12 13.3090 3.17702   8
  -1  -8 -12 57.5649 6.61143   8
  -1   8 -12 63.4390 6.12270   8
   1   8  12 54.6288 6.33962   8
  -2  -8 -12 38.0903 4.21972   8
  -2  -8 -12 32.7435 5.27684   9
  -2   8 -12 34.4165 3.64992   8
  -2   8 -12 31.1738 4.58129   9
  -3  -8 -12 -1.6204 3.59437  12
  -3  -8 -12 0.08650 1.94945   9
  -3   8 -12 -0.8544 2.02497  18
  -3   8 -12 0.85889 1.48992   9
  -3   8 -12 -1.6263 2.45587  10
  -4  -8 -12 5.59146 2.18339  10
  -4  -8 -12 6.22605 2.69684  12
  -4  -8 -12 6.24720 1.64190   9
  -4   8 -12 6.01942 2.29210  18
  -4   8 -12 4.92754 1.65095  10
  -4  -9  12 6.76950 1.98693  10
  -4   9  12 5.87800 2.24609  16
  -4   9  12 6.78445 1.40798  10
  -3  -9  12 -3.4881 3.30257  10
  -3  -9  12 -0.5257 2.20122   9
  -3  -9  12 6.08602 3.11927  14
  -3   9  12 2.03330 1.47016  10
  -3   9  12 -0.9665 2.32208  16
  -3   9  12 5.02908 1.20822   9
  -2  -9  12 11.1092 2.82868   9
  -2  -9  12 11.9860 1.78753   8
  -2  -9  12 3.83591 4.87750  14
  -2   9  12 5.70109 2.08687  10
  -2   9  12 5.81516 2.71847  16
  -2   9  12 13.2437 2.56938   9
  -1  -9  12 2.80104 2.92479   9
  -1  -9  12 4.86644 2.62220   8
  -1   9  12 3.94111 2.81655   9
  -1   9  12 4.98844 2.08629  16
  -1   9  12 7.07108 1.61910   8
   0  -9 -12 7.54593 2.47732   8
   0  -9  12 5.02884 3.52133   8
   0   9  12 5.98170 2.24703   8
   0   9 -12 7.37836 2.61657   8
  -1  -9 -12 9.47115 2.96594   8
   1   9  12 5.29154 2.63414   8
  -1   9 -12 14.8134 2.36182   8
  -2  -9 -12 2.23934 2.65029  12
  -2  -9 -12 5.11747 1.81872   8
  -2  -9 -12 7.55036 3.26036   9
  -2   9 -12 4.48806 2.17639  18
  -2   9 -12 7.20270 2.54851   9
  -2   9 -12 2.41775 1.12316   8
  -3  -9 -12 7.44591 2.60643   9
  -3  -9 -12 2.29551 2.30109  12
  -3   9 -12 1.08465 1.80422  18
  -3   9 -12 1.19363 1.73570   9
  -3   9 -12 0.38904 2.39738  10
  -4  -9 -12 6.38588 2.78697  12
  -4  -9 -12 7.69930 1.92647  10
  -4   9 -12 7.96885 1.90110  18
  -4   9 -12 4.15507 1.84920  10
  -3  10  12 34.9370 3.75716  10
  -2 -10  12 20.4306 3.05418   9
  -2 -10  12 14.8032 3.63900  14
  -2  10  12 16.2399 2.93411  16
  -2  10  12 22.1833 2.49203   9
  -1 -10  12 3.10003 3.40730   9
  -1 -10  12 5.19201 1.65827   8
  -1  10  12 7.10004 2.08409   9
  -1  10  12 7.40041 1.14155   8
   1  10 -12 12.4550 2.14104   8
  -1  10  12 8.06252 1.91482  16
   0 -10 -12 61.3859 6.32782   8
   0 -10  12 65.2066 6.15561   8
   0  10 -12 58.4071 5.59014   8
   0  10  12 53.1073 6.53065  16
   0  10  12 64.3287 5.45717   8
  -1 -10 -12 3.54441 2.22810   8
   1 -10  12 5.30599 2.55008   8
  -1 -10 -12 4.07319 3.00562  12
   1  10  12 3.45388 2.06044   8
  -1  10 -12 1.83066 1.06618   8
  -1  10 -12 4.75261 2.32212   9
  -2 -10 -12 9.63560 3.03634  12
  -2 -10 -12 9.63711 1.45754   8
  -2 -10 -12 8.38795 2.38794   9
  -2  10 -12 9.73901 2.65433  18
  -2  10 -12 9.32240 1.93106   9
  -3 -10 -12 40.2958 3.92347   9
  -3  10 -12 37.3860 3.67769   9
   0 -11 -12 3.22575 1.55741   8
   0 -11  12 4.24334 2.13793   8
   0  11  12 3.44243 0.95936   8
   0  11 -12 3.57741 1.38787   8
  -1 -11 -12 12.9161 1.95208   8
   1  11  12 15.4267 2.09972   8
  -1  11 -12 19.8024 2.45926  18
  -6   0  13 0.44032 3.00014  15
  -6   0  13 1.58454 2.34675  14
  -6   0  13 -0.4975 3.18780  13
  -5   0  13 -2.9192 3.26992  13
  -5   0  13 -1.9824 3.70082  14
  -5   0  13 3.32357 1.53700  10
  -5   0  13 0.99293 2.53823  15
  -4   0  13 -6.4735 4.30631  13
  -4   0  13 0.15929 0.93926   9
  -4   0  13 -2.7364 2.06671  10
  -4   0  13 -0.6024 2.46352  14
  -4   0  13 4.60080 11.5181   6
  -4   0  13 1.84789 3.29982  15
  -3   0  13 -2.5112 2.52413  10
  -3   0  13 3.63531 3.24153  14
  -3   0  13 -0.6871 1.80295   9
  -3   0  13 -4.8159 2.90227  15
  -3   0  13 -0.3090 8.81131   6
  -3   0  13 -0.1354 10.2505   5
  -3   0  13 2.04481 6.30657   3
  -3   0  13 -4.0684 6.97591   2
  -2   0  13 -1.4047 2.26869   9
  -2   0  13 1.25089 2.77318  14
  -2   0  13 -6.4427 7.98832   6
  -2   0  13 -2.3336 6.49035   2
  -2   0  13 0.60327 6.80001   3
  -2   0  13 -2.0899 2.84116  10
  -2   0  13 -1.8289 1.39351   8
  -1   0  13 3.07574 8.43371   3
  -1   0  13 -1.1024 2.32191   8
  -1   0  13 6.39867 8.85543   2
  -1   0  13 -0.2784 1.80010   9
   0   0  13 -0.1088 2.53693   8
  -1   0 -13 0.36569 2.04899   8
  -2   0 -13 2.00324 7.01019   2
  -2   0 -13 0.28820 2.41321   9
  -2   0 -13 -2.0693 1.70478   8
  -2   0 -13 -13.604 5.27209   3
  -2   0 -13 -10.488 6.15729   4
  -3   0 -13 1.97771 2.64183  10
  -3   0 -13 -1.6590 1.69775   8
  -3   0 -13 5.41227 9.22361   4
  -3   0 -13 -3.9791 7.09401   2
  -3   0 -13 1.53442 2.35869   9
  -3   0 -13 1.37390 7.14256   3
  -4   0 -13 -0.5460 13.0896   4
  -4   0 -13 0.66896 2.60782  10
  -4   0 -13 -5.6990 1.92214   9
  -4   0 -13 -0.6777 3.04910  18
  -4   0 -13 -3.2218 2.49343  11
  -5   0 -13 4.64276 4.18371  11
  -5   0 -13 -3.0390 2.10591  18
  -5   0 -13 8.11382 2.89171  10
  -6   0 -13 -5.0533 2.28836  11
  -6   0 -13 -1.9456 2.34481  18
  -6  -1  13 44.5522 6.12685  15
  -6  -1  13 60.4589 6.49809  14
  -6  -1  13 55.6589 7.11372  13
  -6   1  13 54.5538 6.27860  14
  -6   1  13 42.0036 5.89697  15
  -5  -1  13 101.364 11.2399  14
  -5  -1  13 102.306 12.8693  13
  -5  -1  13 81.3863 10.6649  15
  -5  -1  13 104.764 9.64319  10
  -5   1  13 110.305 11.2692  15
  -5   1  13 102.517 11.6461  14
  -5   1  13 109.717 13.2268  13
  -5   1  13 101.305 9.53380  10
  -4  -1  13 26.4825 5.11137  14
  -4  -1  13 21.0909 3.59637  10
  -4  -1  13 20.4948 4.71355  15
  -4  -1  13 22.0250 2.64972   9
  -4  -1  13 23.1052 5.64234  13
  -4   1  13 14.2143 4.16819  15
  -4   1  13 24.4687 3.68523  10
  -4   1  13 22.3940 2.38331   9
  -4   1  13 18.3406 4.56046  14
  -4   1  13 32.5490 6.34781  13
  -3  -1  13 173.509 22.4688   6
  -3  -1  13 96.5117 17.6104   3
  -3  -1  13 160.339 15.8152  14
  -3  -1  13 159.514 13.9996   9
  -3  -1  13 127.436 18.2827   2
  -3  -1  13 152.759 14.6028  10
  -3  -1  13 158.281 15.3792  15
  -3  -1  13 108.997 21.4941   5
  -3   1  13 143.261 15.5179  14
  -3   1  13 201.784 24.0749   6
  -3   1  13 150.705 17.8015   2
  -3   1  13 163.567 14.7243  10
  -3   1  13 128.797 17.2512  13
  -3   1  13 158.444 15.2121  15
  -3   1  13 100.267 18.4646   3
  -3   1  13 156.653 13.6560   9
  -2  -1  13 66.2408 6.29122   8
  -2  -1  13 68.5280 8.17903  10
  -2  -1  13 55.9485 11.0230   2
  -2  -1  13 67.2724 8.22437  14
  -2  -1  13 45.6432 11.1305   3
  -2  -1  13 74.0066 13.0605   6
  -2  -1  13 44.0303 12.7408   5
  -2  -1  13 72.6248 7.51253   9
  -2   1  13 65.8533 7.27446   9
  -2   1  13 48.5629 11.3762   3
  -2   1  13 59.1699 11.8894   2
  -2   1  13 73.1273 13.1546   6
  -2   1  13 76.2109 6.37297   8
  -2   1  13 72.4769 7.88818  10
  -1  -1  13 317.212 34.8090   2
  -1  -1  13 302.142 36.2407   3
  -1  -1  13 287.494 28.7864   9
  -1  -1  13 311.898 26.7983   8
  -1   1  13 339.602 36.3503   3
  -1   1  13 349.772 26.6584   8
  -1   1  13 302.922 28.6757   9
  -1   1  13 341.960 34.6044   2
  -1   1  13 349.621 34.7148   6
   0  -1  13 1.93969 2.67415   8
   0   1  13 1.44533 2.27424   8
  -1  -1 -13 75.8907 7.21129   8
  -1   1 -13 73.0508 7.12161   8
  -2  -1 -13 173.724 21.0725   3
  -2  -1 -13 180.085 22.4820   4
  -2  -1 -13 166.258 21.6232   2
  -2  -1 -13 169.881 15.8916   9
  -2  -1 -13 175.761 14.5482   8
  -2   1 -13 168.460 15.8027   9
  -2   1 -13 160.577 20.4397   2
  -2   1 -13 166.361 14.4484   8
  -3  -1 -13 24.0295 11.3102   4
  -3  -1 -13 24.3304 9.30435   2
  -3  -1 -13 50.8160 5.65910   9
  -3  -1 -13 55.8488 4.66866   8
  -3  -1 -13 19.1267 7.99188   3
  -3  -1 -13 52.4738 6.52163  11
  -3  -1 -13 42.3608 5.65812  10
  -3   1 -13 38.0082 5.30673  10
  -3   1 -13 52.4346 4.47342   8
  -3   1 -13 21.2720 10.4298   2
  -3   1 -13 34.9229 5.47238  18
  -3   1 -13 28.6932 11.7718   4
  -3   1 -13 19.6270 8.73055   3
  -3   1 -13 48.6894 5.38033   9
  -4  -1 -13 69.5433 9.39525  11
  -4  -1 -13 71.4396 7.82054  10
  -4  -1 -13 75.4762 7.54147   9
  -4   1 -13 70.1368 7.30454   9
  -4   1 -13 64.4729 7.67738  10
  -4   1 -13 61.4465 8.56534  18
  -4   1 -13 77.6260 9.44260  11
  -5  -1 -13 16.8004 5.03251  11
  -5  -1 -13 21.0476 3.47301  10
  -5  -1 -13 18.8851 3.92888  18
  -5   1 -13 20.0400 4.08826  18
  -5   1 -13 21.9584 3.28227  10
  -5   1 -13 21.0214 4.02370  11
  -6  -1 -13 18.3784 3.47569  18
  -6  -1 -13 28.9614 4.03988  11
  -6   1 -13 16.0822 3.55627  11
  -6   1 -13 22.8100 3.33401  18
  -6  -2  13 6.93950 2.90676  14
  -6  -2  13 7.92186 3.97396  13
  -6   2  13 6.75075 2.93731  15
  -6   2  13 6.65500 2.45829  14
  -5  -2  13 6.46373 4.68161  13
  -5  -2  13 12.4784 2.31259  10
  -5  -2  13 5.87098 3.76731  15
  -5  -2  13 7.98719 4.35306  14
  -5   2  13 15.2867 2.05635  10
  -5   2  13 6.40957 3.59703  15
  -5   2  13 11.2112 3.99850  14
  -4  -2  13 1.19684 2.59725  10
  -4  -2  13 1.00267 2.65231  15
  -4  -2  13 2.25042 4.28843  13
  -4  -2  13 1.89958 1.22918   9
  -4  -2  13 6.07077 3.06060  14
  -4   2  13 5.86866 3.27271  15
  -4   2  13 1.87000 2.13883  10
  -4   2  13 5.48702 3.63466  14
  -3  -2  13 1.62977 3.35846  15
  -3  -2  13 -16.555 9.49286   6
  -3  -2  13 2.30956 8.42608   2
  -3  -2  13 -3.2977 10.8132   5
  -3  -2  13 6.77243 2.77380  14
  -3  -2  13 4.02213 2.25490   9
  -3  -2  13 3.79672 2.94746  10
  -3   2  13 -2.0096 2.37785  10
  -3   2  13 2.28942 2.06820  15
  -3   2  13 4.83244 3.08060  14
  -3   2  13 -3.5374 3.51425  16
  -3   2  13 1.30167 1.78933   9
  -3   2  13 10.4620 9.17213   6
  -3   2  13 0.03985 7.12835   2
  -2  -2  13 11.1917 9.01918   6
  -2  -2  13 16.0308 4.01051  10
  -2  -2  13 8.68209 9.42459   5
  -2  -2  13 7.04654 8.01600   2
  -2  -2  13 12.2349 3.76278  14
  -2  -2  13 15.6857 7.92494   3
  -2  -2  13 16.9527 2.52242   8
  -2  -2  13 22.5554 3.74242   9
  -2   2  13 8.87331 8.61420   3
  -2   2  13 16.4648 2.17274   8
  -2   2  13 10.4685 7.12464   2
  -2   2  13 18.5317 3.15284   9
  -2   2  13 19.3029 3.35733  15
  -2   2  13 19.9167 3.70820  10
  -2   2  13 28.1407 9.33579   6
  -1  -2  13 5.96291 8.35488   2
  -1  -2  13 6.62567 7.62813   3
  -1  -2  13 2.48457 3.10265   9
  -1  -2  13 0.83499 2.15487   8
  -1   2  13 2.65904 6.62473   2
  -1   2  13 9.58757 7.23697   3
  -1   2  13 6.30542 2.70094   9
  -1   2  13 -3.9690 5.95505   6
  -1   2  13 8.23572 2.07938   8
   0  -2  13 4.77452 2.88028   8
   0   2  13 7.91757 2.38880   8
   0   2  13 2.39287 5.67986   6
  -1  -2 -13 5.20051 2.35356   8
  -1  -2 -13 15.5870 6.57442   4
  -1   2 -13 7.39890 2.20323   8
  -2  -2 -13 8.58855 3.14565   9
  -2  -2 -13 11.5218 7.43673   3
  -2  -2 -13 3.27395 8.41134   2
  -2  -2 -13 2.84809 7.40482   4
  -2  -2 -13 4.95521 2.13502   8
  -2   2 -13 5.85475 1.77677   8
  -2   2 -13 -0.4288 6.08558   3
  -2   2 -13 3.10748 2.42396  18
  -2   2 -13 4.89929 7.54962   2
  -2   2 -13 7.57760 2.57752   9
  -3  -2 -13 0.34110 1.56090   8
  -3  -2 -13 -1.0790 2.80327  10
  -3  -2 -13 -4.7148 6.64559   3
  -3  -2 -13 -0.4275 2.56841   9
  -3  -2 -13 3.98553 9.92658   4
  -3  -2 -13 9.28060 10.8149   2
  -3  -2 -13 0.85397 3.29368  11
  -3   2 -13 0.04856 2.48776  10
  -3   2 -13 0.46808 1.52392   8
  -3   2 -13 1.27005 7.21271   3
  -3   2 -13 0.10531 2.07313   9
  -3   2 -13 6.01566 8.92599   2
  -3   2 -13 -2.9283 2.66104  18
  -3   2 -13 11.4391 10.4303   4
  -4  -2 -13 3.95885 2.86445  10
  -4  -2 -13 -0.2275 2.35690   9
  -4  -2 -13 -7.2838 3.80558  11
  -4  -2 -13 1.76543 3.27791  12
  -4   2 -13 0.45245 2.48802  10
  -4   2 -13 6.06314 2.35587   9
  -4   2 -13 2.23198 3.20910  18
  -4   2 -13 4.14210 3.35150  11
  -5  -2 -13 12.9751 4.86774  11
  -5  -2 -13 18.6690 3.23003  10
  -5   2 -13 18.0382 2.98810  10
  -5   2 -13 12.9231 3.26971  18
  -5   2 -13 13.6162 4.04675  11
  -6  -2 -13 0.88182 0.93732  10
  -6  -2 -13 0.77613 2.38286  11
  -6   2 -13 3.14950 1.96778  11
  -6   2 -13 0.81971 1.97669  18
  -6  -3  13 1.20655 2.49014  13
  -6  -3  13 0.20532 2.49703  14
  -6   3  13 0.22324 1.71262  15
  -6   3  13 2.14548 2.83086  14
  -5  -3  13 3.21713 1.68344  10
  -5  -3  13 3.32558 3.10550  14
  -5  -3  13 -1.1199 2.90482  13
  -5   3  13 6.77508 2.70984  14
  -5   3  13 -0.2665 2.74925  15
  -4  -3  13 23.5337 3.72287  10
  -4  -3  13 20.1461 4.83787  14
  -4  -3  13 19.5617 4.42300  15
  -4  -3  13 14.7442 2.33510   9
  -4  -3  13 23.7423 5.30335  13
  -4   3  13 16.9663 3.54710  14
  -4   3  13 24.2021 3.19365  10
  -4   3  13 12.6372 4.73558  16
  -4   3  13 17.2356 3.99026  15
  -3  -3  13 67.7411 8.25491  14
  -3  -3  13 33.3023 14.1589   5
  -3  -3  13 60.4458 8.28887  15
  -3  -3  13 71.4787 7.26777   9
  -3  -3  13 84.1549 8.14496  10
  -3   3  13 61.1788 6.78662   9
  -3   3  13 43.1439 12.5631   6
  -3   3  13 76.6713 8.82676  16
  -3   3  13 59.6185 7.88740  15
  -3   3  13 73.5792 7.53941  10
  -2  -3  13 60.9589 13.4565   2
  -2  -3  13 90.2675 9.96686  10
  -2  -3  13 90.9456 8.14726   8
  -2  -3  13 65.7213 13.8665   3
  -2  -3  13 63.6046 14.6520   6
  -2  -3  13 58.6901 14.9092   5
  -2  -3  13 95.5477 9.50350   9
  -2  -3  13 96.7632 9.96490  14
  -2   3  13 90.4768 9.63556  15
  -2   3  13 91.5733 9.00294   9
  -2   3  13 75.8233 14.3292   6
  -2   3  13 99.3156 9.58628  10
  -2   3  13 92.5261 7.89765   8
  -2   3  13 69.8201 13.7894   2
  -2   3  13 87.6910 15.1199   3
  -1  -3  13 9.27851 2.70049   8
  -1  -3  13 4.07800 8.10387   3
  -1  -3  13 -3.6972 10.7475   2
  -1  -3  13 7.65716 3.41336   9
  -1   3  13 14.6611 9.80019   3
  -1   3  13 -0.8340 8.42414   2
  -1   3  13 6.68209 2.76577   9
  -1   3  13 13.7430 7.78372   6
   0  -3  13 1.16596 2.79100   8
   0  -3 -13 2.30176 7.07250   4
   0   3  13 1.86213 2.25006   8
   0   3  13 1.69024 6.08945   6
  -1  -3 -13 21.0932 9.06128   4
  -1  -3 -13 16.6579 2.74354   8
  -1   3 -13 21.7322 2.93955   8
   1   3  13 16.5417 7.23800   6
  -2  -3 -13 113.211 17.8556   2
  -2  -3 -13 131.591 12.4141   9
  -2  -3 -13 105.960 18.4748   3
  -2  -3 -13 133.143 11.1243   8
  -2  -3 -13 105.633 17.5544   4
  -2   3 -13 129.305 17.5130   2
  -2   3 -13 130.920 12.0851   9
  -2   3 -13 132.157 10.8813   8
  -2   3 -13 76.6983 15.8534   3
  -2   3 -13 126.268 13.0296  18
  -3  -3 -13 56.4187 7.31630   9
  -3  -3 -13 47.2161 15.8881   4
  -3  -3 -13 70.4119 7.82606  10
  -3  -3 -13 69.4246 6.14226   8
  -3  -3 -13 70.9278 8.57608  11
  -3   3 -13 64.7699 7.49336  10
  -3   3 -13 64.3937 14.5276   4
  -3   3 -13 40.3326 11.7401   2
  -3   3 -13 57.6908 6.92308   9
  -3   3 -13 68.2574 5.91684   8
  -3   3 -13 67.1958 7.98352  18
  -4  -3 -13 99.4496 11.0916  12
  -4  -3 -13 99.1397 11.2906  11
  -4  -3 -13 102.584 10.3857  10
  -4   3 -13 90.9127 11.2037  18
  -4   3 -13 98.2153 9.42589   9
  -4   3 -13 106.029 10.1396  10
  -4   3 -13 102.485 11.3850  11
  -5  -3 -13 0.06421 3.96660  11
  -5  -3 -13 -0.4140 1.91227  12
  -5  -3 -13 4.11793 2.47281  10
  -5   3 -13 -1.9507 3.17470  18
  -5   3 -13 -0.8120 2.81137  11
  -5   3 -13 0.46285 1.93032  10
  -6  -3 -13 10.4856 2.61191  11
  -6   3 -13 9.20526 2.25363  18
  -6  -4  13 7.94058 3.34718  13
  -6  -4  13 8.72577 2.72065  14
  -6   4  13 8.75847 2.82531  14
  -6   4  13 10.7387 2.09397  15
  -5  -4  13 4.31409 4.33582  13
  -5  -4  13 20.1327 4.21087  14
  -5  -4  13 23.7576 2.91241  10
  -5   4  13 17.3760 3.42700  14
  -5   4  13 19.8259 3.63718  15
  -5   4  13 19.6256 2.36634  10
  -5   4  13 23.8275 3.87506  16
  -4  -4  13 4.71379 1.70441   9
  -4  -4  13 9.74398 2.99913  10
  -4  -4  13 5.18100 4.32727  13
  -4  -4  13 6.80837 3.57369  14
  -4   4  13 5.00636 4.12343  16
  -4   4  13 6.49531 3.08229  15
  -4   4  13 8.40821 2.35126  10
  -4   4  13 3.81278 3.43754  14
  -3  -4  13 2.06022 12.8704   5
  -3  -4  13 1.38403 4.07069  14
  -3  -4  13 3.39947 3.23906  10
  -3  -4  13 -1.7873 2.33693   9
  -3   4  13 -1.4806 2.38393  15
  -3   4  13 -5.3045 9.69518   6
  -3   4  13 0.92948 3.51993  16
  -3   4  13 0.63912 2.17417   9
  -3   4  13 -2.4897 2.48713  10
  -2  -4  13 -0.1620 10.3863   3
  -2  -4  13 10.9521 2.73156   9
  -2  -4  13 8.47672 2.55247   8
  -2  -4  13 13.5819 4.02789  14
  -2  -4  13 10.6873 3.64434  10
  -2  -4  13 -3.5596 11.6098   2
  -2   4  13 7.38037 2.69024  15
  -2   4  13 9.73020 1.76467   8
  -2   4  13 4.46828 7.49639   2
  -2   4  13 9.40839 2.70734   9
  -2   4  13 1.62145 7.40755   3
  -2   4  13 0.04058 8.30712   6
  -2   4  13 8.75057 2.55295  10
  -1  -4  13 8.34654 9.46530   3
  -1  -4  13 7.91171 2.74308   8
  -1  -4  13 4.45728 3.50482   9
  -1   4  13 14.7863 9.25863   6
  -1   4  13 3.72832 8.38637   2
  -1   4  13 4.98319 7.93465   3
  -1   4  13 12.8970 2.29506   8
  -1   4  13 12.5228 2.73195  15
  -1   4  13 10.3113 3.14308   9
   0  -4  13 -0.3966 2.84751   8
   0   4  13 -4.8188 7.61956   6
  -1  -4 -13 23.0047 3.50062   8
  -1  -4 -13 3.02135 8.07559   4
  -1   4 -13 12.4976 2.68306   8
  -2  -4 -13 13.2183 2.71985   8
  -2  -4 -13 12.7421 3.60251   9
  -2  -4 -13 9.16754 3.29603  11
  -2  -4 -13 -2.2544 11.1982   4
  -2   4 -13 -12.512 8.82068   2
  -2   4 -13 8.92246 2.04715   8
  -2   4 -13 10.9477 2.88075   9
  -2   4 -13 13.0680 9.79378   3
  -3  -4 -13 -0.2583 3.42211  11
  -3  -4 -13 1.71319 2.99754   9
  -3  -4 -13 0.44353 2.16962  10
  -3  -4 -13 -0.0408 2.10515   8
  -3  -4 -13 3.34855 10.9159   4
  -3   4 -13 1.25632 1.31985   8
  -3   4 -13 2.15717 2.93115  18
  -3   4 -13 2.99975 2.21986   9
  -3   4 -13 3.21167 2.70698  10
  -4  -4 -13 0.34402 2.14022   9
  -4  -4 -13 3.73998 2.80918  11
  -4  -4 -13 6.30297 3.08415  10
  -4  -4 -13 -0.6505 2.54443  12
  -4   4 -13 0.13730 3.37824  18
  -4   4 -13 2.17652 2.58532  11
  -4   4 -13 1.38580 1.79748   9
  -4   4 -13 5.01960 2.47011  10
  -5  -4 -13 1.21819 2.87581  12
  -5  -4 -13 4.71917 2.56543  10
  -5  -4 -13 2.04786 3.46569  11
  -5   4 -13 3.19712 1.95903  10
  -5   4 -13 -1.0449 3.09735  18
  -6  -4 -13 0.43408 2.45076  11
  -6   4 -13 0.74684 1.78059  18
  -6  -5  13 4.67004 2.31148  14
  -6   5  13 2.22462 1.27853  15
  -5  -5  13 19.6584 5.16528  14
  -5  -5  13 30.9687 3.45019  10
  -5  -5  13 16.9717 3.85017  13
  -5   5  13 21.5411 3.66585  15
  -5   5  13 26.6022 3.94952  16
  -4  -5  13 106.637 13.7228  14
  -4  -5  13 107.290 11.7432  10
  -4  -5  13 125.585 10.6886   9
  -4   5  13 108.000 11.9962  15
  -4   5  13 132.384 13.1401  16
  -3  -5  13 276.538 27.7402  14
  -3  -5  13 275.389 24.6457   9
  -3  -5  13 246.493 25.5875  10
  -3   5  13 281.609 24.2887   9
  -3   5  13 252.543 26.1379  15
  -3   5  13 279.866 25.3022  10
  -3   5  13 295.952 27.6138  16
  -2  -5  13 5.60850 2.12949   8
  -2  -5  13 2.32351 2.72270  10
  -2  -5  13 2.39499 3.07571   9
  -2   5  13 8.47683 1.79130   8
  -2   5  13 4.65917 3.05425  10
  -2   5  13 3.67094 2.38932  15
  -2   5  13 -3.0117 8.75991   6
  -2   5  13 4.02284 2.34962   9
  -1  -5  13 -0.4706 2.52534   8
  -1  -5  13 -2.5696 3.24592   9
  -1   5  13 -8.0951 9.60737   3
  -1   5  13 3.86883 2.72437   9
  -1   5  13 0.49294 1.94283   8
  -1   5  13 8.67896 8.24391   6
   0  -5  13 41.0828 5.67255   8
   0   5  13 51.5645 5.30611   8
  -1  -5 -13 5.10819 2.81953   8
  -1   5 -13 0.00008 2.14116   8
  -2  -5 -13 17.3770 4.14690   9
  -2  -5 -13 18.5424 3.13601   8
  -2   5 -13 14.6345 3.30495   9
  -2   5 -13 15.1053 2.52450   8
  -3  -5 -13 88.5521 7.66541   9
  -3  -5 -13 69.6513 5.92451   8
  -3  -5 -13 67.9987 7.91630  10
  -3   5 -13 59.5739 7.35680  18
  -3   5 -13 56.5601 7.33685  10
  -3   5 -13 56.9035 5.57915   8
  -3   5 -13 58.4926 6.80293   9
  -4  -5 -13 42.0782 6.47663  11
  -4  -5 -13 55.4690 5.69964   9
  -4  -5 -13 62.4536 6.56823  10
  -4  -5 -13 34.3566 6.49328  12
  -4   5 -13 42.6947 5.01477   9
  -4   5 -13 62.8982 7.06877  18
  -4   5 -13 50.0019 5.89330  10
  -5  -5 -13 13.9829 3.53331  12
  -5  -5 -13 10.5761 3.38613  11
  -5  -5 -13 16.7597 2.94016  10
  -5   5 -13 13.2639 2.41990  10
  -5   5 -13 14.0121 2.87788  18
  -6   5 -13 34.9879 4.14922  18
  -5  -6  13 3.87767 1.90997  10
  -5  -6  13 4.79907 2.92273  14
  -5   6  13 4.09332 3.03277  16
  -5   6  13 3.38698 1.60851  15
  -4  -6  13 0.01181 1.28656   9
  -4  -6  13 0.18218 1.93274  10
  -4  -6  13 0.61902 3.35096  14
  -4   6  13 2.01803 1.95168  10
  -4   6  13 -2.3517 3.35165  16
  -4   6  13 2.46453 1.68095  15
  -3  -6  13 -5.1912 4.29784  14
  -3  -6  13 3.99696 2.74853   9
  -3  -6  13 5.15064 2.57219  10
  -3   6  13 0.46248 2.28806  15
  -3   6  13 0.11561 1.74336   9
  -3   6  13 5.96389 2.61222  16
  -3   6  13 0.92227 2.59222  10
  -2  -6  13 4.16036 3.22979   9
  -2  -6  13 3.95237 2.16941   8
  -2   6  13 6.60444 2.52468   9
  -2   6  13 5.01923 1.61726   8
  -2   6  13 1.47164 2.94839  10
  -1  -6  13 2.35881 3.47761   9
  -1  -6  13 1.47484 2.81546   8
  -1   6  13 2.92256 1.96780   8
  -1   6  13 2.11829 2.77191   9
   0  -6  13 76.3142 8.17854   8
   0   6  13 70.4509 7.28687   8
  -1  -6 -13 19.2459 3.60327   8
  -1   6 -13 14.3475 2.85755   8
  -2  -6 -13 2.85844 3.37537   9
  -2  -6 -13 1.31676 2.49110   8
  -2   6 -13 6.78852 1.90069   8
  -2   6 -13 3.06408 2.78366   9
  -3  -6 -13 10.4840 3.22637   9
  -3  -6 -13 3.56813 3.69886  10
  -3  -6 -13 4.19728 1.72273   8
  -3   6 -13 5.12974 0.89180   8
  -3   6 -13 6.69528 2.81932  10
  -3   6 -13 4.73849 2.44245   9
  -3   6 -13 3.82071 3.23090  18
  -4  -6 -13 0.18534 2.01465   9
  -4  -6 -13 2.06026 3.53336  12
  -4  -6 -13 -3.9986 2.91467  10
  -4   6 -13 7.06630 3.27251  18
  -4   6 -13 -1.7132 2.23312  10
  -4   6 -13 1.28124 1.31795   9
  -5  -6 -13 4.32324 2.96759  12
  -5  -6 -13 3.68071 2.17219  10
  -5   6 -13 3.94129 1.26175  10
  -5   6 -13 2.95963 2.05165  18
  -5  -7  13 4.71550 1.45617  10
  -5  -7  13 1.76404 2.37337  14
  -5   7  13 3.82122 1.85940  16
  -4  -7  13 7.29981 2.26302  10
  -4  -7  13 6.26404 3.22729  14
  -4   7  13 4.51023 2.28175  16
  -4   7  13 5.98435 1.92059  10
  -3  -7  13 50.7892 6.38581   9
  -3  -7  13 52.4694 8.25032  14
  -3  -7  13 56.4038 6.71399  10
  -3   7  13 56.2303 5.52916   9
  -3   7  13 50.6959 6.28338  10
  -3   7  13 60.9980 7.34809  16
  -2  -7  13 31.7876 4.53660   9
  -2  -7  13 28.8433 3.91224   8
  -2   7  13 35.8715 5.22039  16
  -2   7  13 32.1592 3.16100   8
  -2   7  13 36.4756 4.13519   9
  -1  -7  13 45.2593 5.47347   8
  -1   7  13 40.1384 4.73448   8
  -1   7  13 56.2362 6.16494   9
   0  -7  13 11.9837 2.87875   8
   0   7  13 15.0726 2.90351   8
   0   7 -13 4.28642 2.79126   8
  -1  -7 -13 27.8840 4.13546   8
  -1   7 -13 25.4752 3.53328   8
  -2  -7 -13 73.3078 6.52425   8
  -2  -7 -13 55.1374 7.36738   9
  -2   7 -13 56.0659 6.73782   9
  -2   7 -13 70.2755 6.22780   8
  -3  -7 -13 14.5912 4.24071  12
  -3  -7 -13 23.9687 2.28820   8
  -3  -7 -13 18.5029 3.71904   9
  -3   7 -13 11.2383 3.29966  10
  -3   7 -13 18.3974 3.42159  18
  -3   7 -13 14.5573 3.06084   9
  -4  -7 -13 18.9657 3.59136  10
  -4  -7 -13 16.0247 2.54390   9
  -4  -7 -13 15.2496 3.33327  12
  -4   7 -13 14.4505 1.85027   9
  -4   7 -13 15.2214 2.99569  18
  -4   7 -13 16.6067 2.92537  10
  -5  -7 -13 0.64476 1.88824  12
  -5  -7 -13 1.97251 1.68008  10
  -5   7 -13 1.69000 1.55384  18
  -5   7 -13 1.55076 1.38142  10
  -4  -8  13 4.11491 2.81151  14
  -4  -8  13 0.11502 1.67403  10
  -4   8  13 -0.2894 1.70962  16
  -4   8  13 -0.3221 1.37406  10
  -3  -8  13 2.71099 3.18542  14
  -3  -8  13 -1.6564 2.28485   9
  -3  -8  13 2.08202 3.35733  10
  -3   8  13 2.32639 2.16182  10
  -3   8  13 -0.7060 1.24263   9
  -3   8  13 2.79730 2.07050  16
  -2  -8  13 -0.5734 4.69934  14
  -2  -8  13 8.54118 3.39863   9
  -2  -8  13 5.99807 1.63910   8
  -2   8  13 7.25714 2.89779  10
  -2   8  13 6.40758 3.01204  16
  -2   8  13 7.49665 2.43275   9
  -1  -8  13 8.25430 2.97972   8
  -1  -8  13 7.57545 3.59705   9
  -1   8  13 3.30031 2.16115   9
  -1   8  13 10.2464 2.00102   8
   0  -8  13 -2.2162 3.28230   8
   0   8 -13 4.28261 2.53372   8
   0   8  13 0.33395 2.17814   8
  -1  -8 -13 12.6415 2.61108   8
   1   8  13 13.5776 3.02654   8
  -1   8 -13 13.2157 2.62372   8
  -2  -8 -13 9.55988 2.35164   8
  -2  -8 -13 7.53630 3.52710   9
  -2   8 -13 9.89859 2.95144   9
  -2   8 -13 8.20257 1.60838   8
  -3  -8 -13 0.60876 1.84859   9
  -3  -8 -13 0.16148 2.44080  12
  -3   8 -13 4.50043 2.04681  18
  -3   8 -13 0.62296 1.89513   9
  -3   8 -13 1.43326 1.80453  10
  -4  -8 -13 2.45386 2.07362  12
  -4  -8 -13 0.42966 1.20671   9
  -4  -8 -13 2.58995 1.87764  10
  -4   8 -13 3.40846 1.82923  18
  -4   8 -13 3.81309 1.91977  10
  -3  -9  13 19.8105 3.28422  10
  -3  -9  13 12.6328 4.45098  14
  -3  -9  13 15.6995 2.64404   9
  -3   9  13 16.1375 2.38162  10
  -3   9  13 20.2300 2.89523  16
  -2  -9  13 21.3444 4.17179   9
  -2  -9  13 21.3062 4.52404  14
  -2   9  13 26.9147 3.49011  10
  -2   9  13 22.4958 3.59573  16
  -2   9  13 29.0185 3.13855   9
  -1  -9  13 19.5281 3.66927   9
  -1  -9  13 22.1791 2.89630   8
  -1   9  13 18.1957 2.25617   8
  -1   9  13 21.2436 3.52343   9
   0  -9  13 -4.9597 3.09261   8
   0  -9 -13 -1.3284 2.04016   8
   0   9 -13 -0.5950 1.60887   8
   0   9  13 6.01538 1.97379   8
  -1  -9 -13 5.98441 2.60701   8
  -1   9 -13 0.52607 1.83746   8
   1   9  13 8.25985 1.85890   8
  -2  -9 -13 46.1994 4.92278   8
  -2  -9 -13 54.2996 6.01731   9
  -2  -9 -13 59.7447 6.88266  12
  -2   9 -13 55.3908 4.72079   8
  -2   9 -13 66.8013 6.25781   9
  -2   9 -13 64.2469 6.78845  18
  -3  -9 -13 20.1770 3.32060  12
  -3  -9 -13 20.5229 2.71370   9
  -3   9 -13 16.5367 2.38710   9
  -3   9 -13 21.1087 3.00173  18
  -3   9 -13 19.5576 2.82570  10
  -2 -10  13 4.63071 3.52853  14
  -2 -10  13 6.93906 2.06114   9
  -2  10  13 6.52325 1.67273  16
  -2  10  13 6.43107 1.25306   9
  -1 -10  13 15.0025 3.02468   9
  -1 -10  13 13.4465 2.00357   8
  -1  10  13 16.2598 2.37822   9
   1  10 -13 10.0320 2.00890   8
  -1  10  13 12.6985 2.22215  16
   0 -10 -13 7.49788 1.90689   8
   0 -10  13 4.97620 2.01437   8
   0  10  13 0.83855 1.89335  16
   0  10 -13 1.90260 1.86659   8
   0  10  13 5.38873 1.19595   8
  -1 -10 -13 22.5048 2.43734   8
   1 -10  13 14.2373 3.84469   8
  -1 -10 -13 17.9886 3.09022  12
  -1  10 -13 20.4161 2.22930   8
  -1  10 -13 17.0491 3.43653   9
   1  10  13 18.9078 2.40160   8
  -2 -10 -13 2.40577 1.80182  12
  -2 -10 -13 2.07444 1.64720   9
  -2  10 -13 2.78366 1.41533   9
  -2  10 -13 3.49558 1.64805  18
  -6   0  14 23.2909 3.83354  14
  -6   0  14 29.3406 3.88562  15
  -5   0  14 211.040 20.1054  14
  -5   0  14 204.592 19.6328  15
  -5   0  14 163.303 21.2119  13
  -5   0  14 202.065 17.8439  10
  -4   0  14 268.244 31.9760  13
  -4   0  14 321.671 27.4068  10
  -4   0  14 278.742 25.9521   9
  -4   0  14 345.385 29.0985  15
  -4   0  14 288.189 29.4143  14
  -3   0  14 138.653 12.5722  10
  -3   0  14 125.955 11.7424   9
  -3   0  14 112.352 13.5856  14
  -3   0  14 91.4320 18.9570   6
  -3   0  14 126.016 13.2701  15
  -2   0  14 462.950 45.9325   6
  -2   0  14 431.451 37.9536   9
  -2   0  14 443.327 35.1590   8
  -2   0  14 394.027 39.1287  10
  -2   0  14 407.912 43.8753   2
  -1   0  14 76.8406 16.2513   3
  -1   0  14 109.818 11.8674   9
  -1   0  14 103.850 16.8333   2
  -1   0  14 154.329 18.5477   6
  -1   0  14 133.028 10.6696   8
   0   0  14 159.082 14.1929   8
  -1   0 -14 56.1684 5.88379   8
  -2   0 -14 47.2962 12.3902   3
  -2   0 -14 87.7391 7.75960   8
  -2   0 -14 53.8289 12.8146   2
  -2   0 -14 101.180 15.8477   4
  -2   0 -14 99.5707 8.94857   9
  -3   0 -14 355.870 31.4798   9
  -3   0 -14 346.303 41.0526   4
  -3   0 -14 337.170 32.5114  10
  -3   0 -14 365.947 29.1387   8
  -4   0 -14 75.9178 7.26251   9
  -4   0 -14 67.6204 7.88433  10
  -4   0 -14 81.2591 9.58449  11
  -4   0 -14 61.7082 8.55172  18
  -5   0 -14 23.5064 4.22300  18
  -5   0 -14 32.4495 5.32370  11
  -6   0 -14 28.2810 4.57642  11
  -6   0 -14 27.5216 3.70119  18
  -6  -1  14 34.4134 5.61300  13
  -6  -1  14 44.6204 5.28522  14
  -6  -1  14 35.5834 5.17192  15
  -6   1  14 42.1232 5.02880  15
  -6   1  14 44.8032 5.44051  14
  -5  -1  14 -0.4089 1.34212  10
  -5  -1  14 0.64525 3.53005  15
  -5  -1  14 -2.7760 2.67965  14
  -5  -1  14 3.43609 4.51892  13
  -5   1  14 -0.9339 2.22844  15
  -5   1  14 -0.5616 1.50471  10
  -5   1  14 -4.5767 3.46559  14
  -4  -1  14 90.7671 11.5271  14
  -4  -1  14 93.2413 8.75716   9
  -4  -1  14 98.8251 11.1824  15
  -4  -1  14 77.8641 12.2371  13
  -4  -1  14 100.289 10.2148  10
  -4   1  14 114.005 11.0680  15
  -4   1  14 104.238 11.2772  14
  -4   1  14 108.541 10.0433  10
  -4   1  14 92.9687 12.6306  13
  -3  -1  14 19.9841 11.8136   6
  -3  -1  14 48.4967 6.45968  14
  -3  -1  14 45.8536 5.77891  10
  -3  -1  14 14.6931 13.1709   5
  -3  -1  14 51.8873 6.42659  15
  -3  -1  14 38.7829 4.91834   9
  -3   1  14 44.0691 5.10935   9
  -3   1  14 36.1363 5.83382  15
  -3   1  14 41.1531 6.14112  14
  -3   1  14 40.4137 12.8048   6
  -3   1  14 49.7954 5.67948  10
  -2  -1  14 3.71471 8.37460   6
  -2  -1  14 6.28063 2.17205   8
  -2  -1  14 3.51672 2.73637   9
  -2  -1  14 14.6139 12.3518   5
  -2  -1  14 4.07961 7.94537   2
  -2  -1  14 2.38068 8.11305   3
  -2  -1  14 11.6427 3.42729  14
  -2  -1  14 6.81905 3.52421  10
  -2   1  14 3.93045 2.55091   9
  -2   1  14 10.0791 8.50152   6
  -2   1  14 -9.2467 8.51039   2
  -2   1  14 7.75376 2.06216   8
  -2   1  14 0.46945 8.99700   3
  -2   1  14 7.23446 3.29047  10
  -1  -1  14 9.01594 10.7513   3
  -1  -1  14 10.1235 3.40890   9
  -1  -1  14 -0.4157 8.78225   2
  -1  -1  14 9.58943 2.53737   8
  -1   1  14 8.25332 7.94122   6
  -1   1  14 12.4792 3.30197   9
  -1   1  14 10.3847 2.36876   8
  -1   1  14 13.5171 8.35178   2
  -1   1  14 2.75868 7.85661   3
   0  -1  14 9.30343 3.01718   8
   0   1  14 12.1537 2.86917   8
  -1  -1 -14 -0.4317 2.16684   8
  -1   1 -14 -2.7065 1.94997   8
  -2  -1 -14 22.6105 8.76695   3
  -2  -1 -14 26.4378 12.1053   2
  -2  -1 -14 17.8036 10.8845   4
  -2   1 -14 8.69751 8.05402   3
  -2   1 -14 17.0905 11.3143   2
  -2   1 -14 21.4272 8.81489   4
  -3  -1 -14 10.2328 1.94979   8
  -3  -1 -14 19.7157 10.6880   4
  -3  -1 -14 7.44152 3.78182  11
  -3  -1 -14 14.9158 3.53883  10
  -3  -1 -14 14.2158 3.03695   9
  -3   1 -14 9.40292 3.10050  10
  -3   1 -14 9.46518 2.76114   9
  -3   1 -14 10.5998 10.3627   4
  -3   1 -14 7.97175 1.92957   8
  -3   1 -14 11.4858 3.58425  18
  -4  -1 -14 13.8385 4.44679  11
  -4  -1 -14 17.2251 2.98091   9
  -4  -1 -14 17.4854 3.59855  10
  -4   1 -14 20.5046 2.87039   9
  -4   1 -14 15.4232 3.34377  10
  -4   1 -14 13.7081 3.77629  18
  -4   1 -14 22.0990 4.62419  11
  -5  -1 -14 2.52892 2.34399  10
  -5  -1 -14 1.18098 3.96216  11
  -5   1 -14 -0.5752 2.18062  10
  -5   1 -14 7.67089 3.90058  11
  -5   1 -14 -2.5957 2.89409  18
  -6  -1 -14 4.98299 2.51906  11
  -6   1 -14 12.2485 2.68263  18
  -6   1 -14 10.5130 2.34051  11
  -6  -2  14 0.10072 2.23446  13
  -6  -2  14 2.83639 2.42077  14
  -6   2  14 4.88255 2.20715  14
  -6   2  14 4.43516 1.83670  15
  -5  -2  14 22.0876 2.87955  10
  -5  -2  14 26.9555 4.26278  14
  -5  -2  14 16.5729 3.54785  15
  -5  -2  14 12.5217 4.94349  13
  -5   2  14 22.9730 2.62505  10
  -5   2  14 16.5977 4.40709  14
  -5   2  14 20.9237 3.70818  15
  -4  -2  14 123.211 12.0742  10
  -4  -2  14 117.261 10.8363   9
  -4  -2  14 118.414 13.1333  14
  -4  -2  14 118.325 13.2990  15
  -4   2  14 124.182 13.2311  14
  -4   2  14 127.353 11.8083  10
  -4   2  14 124.852 12.5143  15
  -3  -2  14 27.1428 5.08319  14
  -3  -2  14 15.4989 13.4110   5
  -3  -2  14 23.4053 4.63507  10
  -3  -2  14 26.9223 4.28112   9
  -3  -2  14 25.1157 5.19346  15
  -3  -2  14 25.5273 13.3686   6
  -3   2  14 29.2426 3.68723   9
  -3   2  14 29.0562 4.59378  15
  -3   2  14 27.6509 11.3831   6
  -3   2  14 28.0809 4.26436  10
  -2  -2  14 26.1632 12.2170   6
  -2  -2  14 4.03922 10.8379   2
  -2  -2  14 27.8789 4.97021  10
  -2  -2  14 22.5413 4.73197  14
  -2  -2  14 30.5214 4.27008   9
  -2  -2  14 8.33590 8.65521   3
  -2  -2  14 22.7552 3.08998   8
  -2   2  14 30.1379 4.58373  10
  -2   2  14 29.2221 3.10646   8
  -2   2  14 27.1805 3.94180   9
  -2   2  14 21.6953 9.77266   2
  -2   2  14 12.7031 8.67321   3
  -2   2  14 7.30138 9.29397   6
  -2   2  14 31.8564 4.45032  15
  -1  -2  14 32.5949 3.72918   8
  -1  -2  14 23.5470 10.7396   2
  -1  -2  14 24.0795 4.45556   9
  -1  -2  14 16.3706 4.12305  14
  -1  -2  14 32.3795 12.5367   3
  -1   2  14 17.3760 9.04805   2
  -1   2  14 27.2837 3.34883   8
  -1   2  14 11.8648 8.80996   3
  -1   2  14 25.0625 8.81901   6
  -1   2  14 24.4709 4.11734   9
   0  -2  14 2.71624 2.86370   8
   0   2  14 5.75575 7.19366   6
   0   2  14 5.19744 2.48911   8
  -1  -2 -14 104.104 9.99000   8
  -1  -2 -14 133.820 17.8162   4
  -1   2 -14 110.243 9.89912   8
  -2  -2 -14 66.6709 14.0181   2
  -2  -2 -14 86.5662 8.33698   9
  -2  -2 -14 71.4877 7.04581   8
  -2  -2 -14 47.5653 12.3450   4
  -2   2 -14 74.7073 7.98924   9
  -2   2 -14 75.2078 6.86520   8
  -2   2 -14 63.3766 13.2009   2
  -2   2 -14 71.8729 8.42288  18
  -3  -2 -14 30.4669 5.20873  11
  -3  -2 -14 18.5537 11.5896   4
  -3  -2 -14 37.0230 3.87191   8
  -3  -2 -14 28.0637 4.86408  10
  -3  -2 -14 32.4221 4.54130   9
  -3   2 -14 36.7516 4.27854   9
  -3   2 -14 33.4575 4.87940  18
  -3   2 -14 31.1140 3.37690   8
  -3   2 -14 48.0681 15.1130   4
  -3   2 -14 29.6172 4.29184  10
  -4  -2 -14 26.7691 4.07479  10
  -4  -2 -14 24.4659 4.39117  11
  -4  -2 -14 37.1624 4.15485   9
  -4   2 -14 26.7033 3.87305  10
  -4   2 -14 18.9294 3.65854  18
  -4   2 -14 22.4137 3.19322   9
  -4   2 -14 11.5452 4.31682  11
  -5  -2 -14 11.0652 2.28612  10
  -5  -2 -14 11.3536 3.39356  11
  -5   2 -14 12.0360 3.54860  18
  -5   2 -14 14.6054 2.58196  10
  -5   2 -14 6.81538 3.54466  11
  -6  -2 -14 19.9478 3.57435  11
  -6   2 -14 12.9438 2.99548  11
  -6   2 -14 13.2609 2.91508  18
  -6  -3  14 2.31656 3.16315  14
  -6  -3  14 2.65798 3.09688  13
  -6   3  14 2.28997 2.24121  15
  -6   3  14 2.23196 1.82255  14
  -5  -3  14 1.70468 3.94661  13
  -5  -3  14 4.90601 2.90646  14
  -5  -3  14 2.40575 1.86465  10
  -5   3  14 7.84795 2.95500  15
  -5   3  14 1.46796 2.31036  14
  -4  -3  14 7.82211 1.68901   9
  -4  -3  14 11.5348 3.96110  15
  -4  -3  14 11.5734 3.22147  10
  -4  -3  14 13.7961 4.51135  14
  -4   3  14 16.0740 3.02085  15
  -4   3  14 8.23963 3.66878  14
  -4   3  14 5.64191 4.16716  16
  -4   3  14 8.20081 2.63315  10
  -3  -3  14 4.66021 3.98632  15
  -3  -3  14 9.36547 2.79779   9
  -3  -3  14 2.58181 3.49696  10
  -3  -3  14 9.51951 4.11710  14
  -3   3  14 10.5454 2.35975   9
  -3   3  14 10.3946 3.31327  15
  -3   3  14 10.2076 4.17885  16
  -3   3  14 11.7548 3.08518  10
  -2  -3  14 -1.1374 3.33002  10
  -2  -3  14 5.43699 9.66580   2
  -2  -3  14 4.48936 1.91486   8
  -2  -3  14 -1.8457 3.21937  14
  -2  -3  14 -2.1655 2.75384   9
  -2  -3  14 -8.9588 10.1493   6
  -2   3  14 8.29576 7.83626   2
  -2   3  14 1.55323 2.91614  10
  -2   3  14 -0.6846 1.54537   8
  -2   3  14 -1.3470 2.47568  15
  -2   3  14 2.53885 2.42353   9
  -2   3  14 6.24575 9.13319   6
  -1  -3  14 1.85550 2.35054   8
  -1  -3  14 2.01481 2.41766   9
  -1  -3  14 1.05078 11.8174   3
  -1   3  14 5.99091 7.69770   6
  -1   3  14 5.73483 10.4076   3
  -1   3  14 -0.4517 8.69396   2
  -1   3  14 1.63531 2.71914   9
   0  -3 -14 8.58730 8.26013   4
   0  -3  14 -0.9120 2.90020   8
   0   3  14 -3.6898 6.87677   6
   0   3  14 -0.0288 2.30136   8
  -1  -3 -14 4.21998 2.62014   8
  -1  -3 -14 5.08140 7.72311   4
  -1   3 -14 8.67789 2.38637   8
   1   3  14 4.24099 7.79531   6
  -2  -3 -14 -3.3531 2.07820   8
  -2  -3 -14 3.90842 3.19355   9
  -2  -3 -14 -3.0109 8.82628   4
  -2   3 -14 -2.1027 7.69575   3
  -2   3 -14 -8.9317 9.47396   2
  -2   3 -14 -3.7466 1.56646   8
  -2   3 -14 0.41334 2.55121   9
  -2   3 -14 0.18884 2.48906  18
  -3  -3 -14 5.01178 1.92099   8
  -3  -3 -14 4.21289 2.98087   9
  -3  -3 -14 4.16371 3.28187  10
  -3  -3 -14 7.50305 2.82581  11
  -3   3 -14 5.15191 3.11080  18
  -3   3 -14 8.14625 2.58905   9
  -3   3 -14 -4.2274 13.1910   4
  -3   3 -14 2.99415 1.25832   8
  -3   3 -14 2.73217 2.80876  10
  -4  -3 -14 15.8850 3.88700  12
  -4  -3 -14 19.7473 4.61590  11
  -4  -3 -14 13.1800 3.53548  10
  -4   3 -14 13.0219 3.20531  18
  -4   3 -14 21.2586 3.98324  11
  -4   3 -14 18.8796 2.61589   9
  -4   3 -14 12.2220 3.07026  10
  -5  -3 -14 32.8818 4.48140  11
  -5  -3 -14 28.8577 3.80316  10
  -5   3 -14 18.0115 4.11496  11
  -5   3 -14 22.6407 4.37317  18
  -5   3 -14 28.4505 3.32836  10
  -6  -3 -14 -1.0215 2.48501  11
  -6   3 -14 0.81504 1.61506  18
  -6  -4  14 -1.7146 2.10370  14
  -6   4  14 3.39296 1.91451  15
  -5  -4  14 32.3076 4.91918  14
  -5  -4  14 29.7111 3.61991  10
  -5   4  14 35.6962 4.21247  15
  -5   4  14 24.8105 4.54893  14
  -4  -4  14 8.48271 3.53625  14
  -4  -4  14 10.2830 3.24946  10
  -4  -4  14 11.6917 1.68667   9
  -4   4  14 8.16638 2.45907  10
  -4   4  14 8.27297 3.13300  15
  -4   4  14 8.67400 3.17345  16
  -3  -4  14 7.87785 2.80892   9
  -3  -4  14 11.3923 4.54341  14
  -3  -4  14 13.4647 3.66831  10
  -3   4  14 10.6354 2.33932   9
  -3   4  14 7.49245 2.97176  15
  -3   4  14 14.4900 4.31216  16
  -3   4  14 12.2879 3.14588  10
  -2  -4  14 1.08093 3.86368  10
  -2  -4  14 7.85858 3.08459  14
  -2  -4  14 8.90443 3.35679   9
  -2  -4  14 7.27053 2.11147   8
  -2   4  14 10.7647 2.99411  15
  -2   4  14 6.75861 3.23113  10
  -2   4  14 9.03490 1.93698   8
  -2   4  14 12.6167 9.55796   6
  -2   4  14 10.2579 2.73522   9
  -1  -4  14 21.3742 3.42842   8
  -1  -4  14 23.9436 3.75854   9
  -1   4  14 6.93194 8.67954   6
  -1   4  14 17.1957 3.14972   8
  -1   4  14 13.3303 10.5997   3
  -1   4  14 14.6241 3.25246  15
  -1   4  14 17.2189 3.61699   9
   0  -4  14 110.191 10.7423   8
  -1  -4 -14 117.653 11.0072   8
  -1   4 -14 121.588 10.7924   8
  -2  -4 -14 13.2316 3.48287  11
  -2  -4 -14 8.64172 2.46976   8
  -2  -4 -14 3.83271 3.58024   9
  -2  -4 -14 -11.962 9.93738   4
  -2   4 -14 5.21681 3.04543  18
  -2   4 -14 9.72393 2.08092   8
  -2   4 -14 8.23463 2.91280   9
  -3  -4 -14 58.4072 7.45139  11
  -3  -4 -14 49.4146 6.78323  10
  -3  -4 -14 56.4272 6.50987   9
  -3  -4 -14 57.4955 5.45902   8
  -3   4 -14 63.3346 7.16240  18
  -3   4 -14 53.8908 5.02640   8
  -3   4 -14 57.2347 6.85009  10
  -3   4 -14 49.4784 6.31755   9
  -4  -4 -14 23.9270 4.64713  11
  -4  -4 -14 17.2582 4.37556  12
  -4  -4 -14 24.2074 3.99415  10
  -4  -4 -14 21.9601 3.22458   9
  -4   4 -14 22.5354 4.31277  18
  -4   4 -14 19.4339 3.63925  11
  -4   4 -14 22.2946 2.85749   9
  -4   4 -14 16.8244 3.47753  10
  -5  -4 -14 8.44324 2.51444  10
  -5  -4 -14 5.04687 2.32016  11
  -5  -4 -14 10.5867 2.82644  12
  -5   4 -14 8.86719 2.11307  10
  -5   4 -14 7.21758 3.14702  18
  -6   4 -14 5.02207 2.16086  18
  -5  -5  14 7.35880 4.20429  14
  -5  -5  14 14.9842 2.12931  10
  -5   5  14 13.0857 2.43187  15
  -5   5  14 14.1314 2.80221  16
  -4  -5  14 8.52894 4.58608  14
  -4  -5  14 4.95125 2.86182  10
  -4   5  14 5.69058 3.45449  16
  -4   5  14 -0.3230 2.47540  15
  -3  -5  14 33.4319 5.37202  10
  -3  -5  14 31.0955 4.50212   9
  -3  -5  14 34.5553 5.69330  14
  -3   5  14 33.7056 4.57749  15
  -3   5  14 34.9218 4.23510   9
  -3   5  14 36.9041 4.84197  10
  -3   5  14 38.0442 5.59104  16
  -2  -5  14 40.7330 5.80645  14
  -2  -5  14 34.5939 5.85414  10
  -2  -5  14 34.5534 4.26606   8
  -2  -5  14 38.3581 5.31773   9
  -2   5  14 41.7319 4.70618   9
  -2   5  14 36.9406 4.94076  15
  -2   5  14 30.4838 3.70402   8
  -2   5  14 33.6428 5.18159  10
  -1  -5  14 16.5270 4.41482   9
  -1  -5  14 15.5996 3.43862   8
  -1   5  14 22.6138 2.93125   8
  -1   5  14 18.3019 3.80535   9
  -1   5  14 17.8302 9.83767   6
   0  -5  14 0.35429 3.19733   8
   0   5  14 1.05099 2.34428   8
  -1  -5 -14 11.9509 3.03677   8
  -1   5 -14 9.08055 2.56049   8
  -2  -5 -14 20.8525 2.97783   8
  -2   5 -14 15.1434 3.28952   9
  -2   5 -14 8.58243 2.73911  18
  -2   5 -14 8.30063 2.16512   8
  -3  -5 -14 9.19197 1.97451   8
  -3  -5 -14 8.35139 3.76638  10
  -3  -5 -14 12.2068 2.57245   9
  -3   5 -14 10.9638 2.75551   9
  -3   5 -14 6.46446 1.31323   8
  -3   5 -14 16.2242 3.65640  18
  -3   5 -14 7.60506 3.02583  10
  -4  -5 -14 -0.2725 2.14402  11
  -4  -5 -14 -0.3519 2.86010  10
  -4  -5 -14 -2.0888 1.93405   9
  -4  -5 -14 0.86962 2.38999  12
  -4   5 -14 1.10145 1.46758   9
  -4   5 -14 0.67470 2.26171  18
  -4   5 -14 2.05334 2.30774  10
  -5  -5 -14 4.56589 2.23805  10
  -5  -5 -14 5.13572 2.53097  11
  -5  -5 -14 2.51247 2.51221  12
  -5   5 -14 5.10985 2.11069  18
  -5   5 -14 3.40796 1.73523  10
  -5  -6  14 48.7153 4.80384  10
  -5  -6  14 49.2726 6.20375  14
  -5   6  14 51.6162 5.96051  16
  -5   6  14 46.8553 5.42247  15
  -4  -6  14 1.81206 4.34716  14
  -4  -6  14 8.49297 2.99937  10
  -4   6  14 6.53481 2.60512  16
  -4   6  14 5.23816 2.41860  15
  -4   6  14 5.39218 1.96486  10
  -3  -6  14 23.2955 4.11640   9
  -3  -6  14 27.6975 5.12315  10
  -3  -6  14 45.6839 6.48757  14
  -3   6  14 26.6373 4.20631  15
  -3   6  14 38.5915 4.62379  10
  -3   6  14 33.5333 3.85706   9
  -3   6  14 38.4190 5.22167  16
  -2  -6  14 3.44243 1.90079   8
  -2  -6  14 6.39470 4.38043  14
  -2  -6  14 3.02469 3.34005   9
  -2   6  14 6.32261 2.35376  10
  -2   6  14 5.49501 1.94248   9
  -2   6  14 1.16860 1.34698   8
  -1  -6  14 27.7554 5.08929   9
  -1  -6  14 28.1391 4.22569   8
  -1   6  14 31.1080 3.60843   8
  -1   6  14 32.5775 4.63227   9
   0  -6  14 66.5727 7.50230   8
   0   6  14 69.5413 6.96808   8
  -1  -6 -14 130.348 12.2302   8
  -1   6 -14 139.749 12.0260   8
  -2  -6 -14 7.88632 2.59146   8
  -2  -6 -14 3.61426 3.38396   9
  -2   6 -14 6.20185 1.89939   8
  -2   6 -14 10.9765 3.06716   9
  -3  -6 -14 25.0260 4.05692  12
  -3  -6 -14 18.1909 2.27404   8
  -3  -6 -14 20.1145 3.23837   9
  -3   6 -14 23.2618 3.63208  18
  -3   6 -14 13.7460 3.49901  10
  -3   6 -14 22.2461 2.98026   9
  -4  -6 -14 16.3556 2.53334   9
  -4  -6 -14 18.1194 3.35778  12
  -4  -6 -14 12.9124 2.81461  10
  -4   6 -14 11.9752 2.91669  18
  -4   6 -14 14.7177 3.06410  10
  -4   6 -14 16.5931 2.12061   9
  -5  -6 -14 4.67669 2.53700  12
  -5  -6 -14 8.47279 1.69998  10
  -5   6 -14 8.93527 1.62707  10
  -5   6 -14 4.40062 1.97169  18
  -4  -7  14 3.14499 3.00225  14
  -4  -7  14 7.22304 2.06261  10
  -4   7  14 3.71213 1.28895  10
  -4   7  14 5.40977 2.88863  16
  -3  -7  14 0.41206 3.42067  10
  -3  -7  14 5.90513 3.38765  14
  -3  -7  14 5.33810 2.54959   9
  -3   7  14 4.01740 1.45401   9
  -3   7  14 4.09903 3.11629  16
  -3   7  14 2.54200 1.88561  10
  -2  -7  14 -0.2527 1.85385   8
  -2  -7  14 4.41531 3.19431  14
  -2  -7  14 2.44442 3.28972   9
  -2   7  14 -4.8865 2.17306   9
  -2   7  14 -0.4993 1.89318  16
  -1  -7  14 3.26453 2.83717   8
  -1  -7  14 6.94626 3.92412   9
  -1   7  14 7.11981 2.28273   9
  -1   7  14 4.07861 1.96248   8
   0  -7  14 0.52460 3.29992   8
   0   7  14 -0.0971 2.21549   8
   0   7 -14 1.54483 2.65898   8
  -1  -7 -14 12.1172 3.23019   8
   1   7  14 2.69787 3.01555   8
  -1   7 -14 9.57902 2.55900   8
  -2  -7 -14 6.42881 3.39434   9
  -2  -7 -14 2.51568 2.14261   8
  -2   7 -14 6.82239 2.77682   9
  -2   7 -14 1.28285 1.48634   8
  -2   7 -14 1.81787 2.22996  18
  -3  -7 -14 2.97335 2.49345  12
  -3  -7 -14 1.42010 1.87948   9
  -3   7 -14 3.49335 2.58574  10
  -3   7 -14 0.83920 2.91043  18
  -3   7 -14 -1.4916 1.36696   9
  -4  -7 -14 20.0521 3.25777  12
  -4  -7 -14 16.6179 2.24776   9
  -4  -7 -14 13.9639 2.65344  10
  -4   7 -14 16.3787 3.36223  18
  -4   7 -14 14.2131 2.31682  10
  -4  -8  14 28.8858 4.92337  14
  -4  -8  14 28.6322 3.69836  10
  -4   8  14 28.8490 3.86648  16
  -4   8  14 34.7479 3.33465  10
  -3  -8  14 18.8332 3.51049  10
  -3  -8  14 16.2142 2.97496   9
  -3  -8  14 18.3997 4.15298  14
  -3   8  14 16.4981 2.98972  16
  -3   8  14 22.0793 2.40320   9
  -3   8  14 21.2930 2.75635  10
  -2  -8  14 9.46968 2.74870   9
  -2  -8  14 3.36931 3.41785  14
  -2  -8  14 9.75832 1.53706   8
  -2   8  14 8.90909 3.00853  10
  -2   8  14 8.94302 3.03898  16
  -2   8  14 11.2685 2.50951   9
  -1  -8  14 8.12228 2.81728   8
  -1  -8  14 9.89549 4.19592   9
  -1   8  14 10.9967 3.10678   9
  -1   8  14 13.1685 1.98491   8
   0  -8  14 19.7939 3.40261   8
   0  -8 -14 15.5110 3.25472   8
   0   8  14 21.6920 3.05046   8
   0   8 -14 16.8001 3.26153   8
  -1  -8 -14 17.3623 3.30813   8
   1   8  14 20.9585 2.72771   8
  -1   8 -14 17.8309 2.76881   8
  -2  -8 -14 25.6641 4.32215   9
  -2  -8 -14 26.2088 3.05712   8
  -2   8 -14 30.1507 3.94486  18
  -2   8 -14 26.1606 3.87530   9
  -2   8 -14 23.2011 2.64450   8
  -3  -8 -14 67.8395 7.48664  12
  -3  -8 -14 65.8633 6.22359   9
  -3   8 -14 50.8319 6.01410  10
  -3   8 -14 53.2675 5.53165   9
  -3   8 -14 55.3923 6.89294  18
  -4  -8 -14 9.92512 1.95084  10
  -4  -8 -14 10.1009 2.79423  12
  -4   8 -14 3.04021 1.64205  18
  -4   8 -14 6.35994 1.56766  10
  -3  -9  14 1.24073 1.40446   9
  -3  -9  14 1.95698 2.27514  10
  -3  -9  14 1.96949 2.48348  14
  -3   9  14 4.67088 1.59452  16
  -3   9  14 5.61767 1.40995  10
  -2  -9  14 -5.7303 2.60370   9
  -2  -9  14 2.71153 3.93268  14
  -2   9  14 1.87207 2.27406  16
  -2   9  14 0.79690 1.25071   9
  -2   9  14 1.34921 2.36910  10
  -1  -9  14 2.29044 1.88242   8
  -1  -9  14 -2.1645 3.42919   9
  -1   9  14 0.26653 1.73070   9
  -1   9  14 1.98007 1.70367  16
  -1   9  14 2.83963 1.18038   8
   0  -9 -14 -0.7156 2.53445   8
   0  -9  14 0.41221 2.89306   8
   0   9  14 2.41105 1.26709   8
   0   9 -14 -1.5181 2.11775   8
   1  -9  14 4.88805 3.52381   8
  -1  -9 -14 0.60230 1.62636   8
   1   9  14 2.20961 2.10343   8
  -1   9 -14 3.42407 1.59074   8
  -2  -9 -14 1.32373 2.14959  12
  -2  -9 -14 3.06461 1.09472   8
  -2  -9 -14 3.30661 1.96147   9
  -2   9 -14 3.06084 1.69517   9
  -2   9 -14 4.92444 1.86726  18
  -3  -9 -14 -0.6034 1.80163   9
  -3  -9 -14 0.89161 1.75696  12
  -3   9 -14 1.10813 1.10823   9
  -3   9 -14 1.38127 2.11649  18
  -1 -10  14 9.46687 2.60825   9
  -1 -10  14 7.55268 3.74467  14
  -1  10  14 5.43072 2.05005  16
  -1  10  14 14.8241 1.96838   9
   0 -10  14 1.10999 1.58943   8
   0 -10 -14 -2.3065 1.39315   8
   0  10 -14 -0.7274 1.08674   8
   0  10  14 1.66718 1.08186   8
   0  10  14 -1.0615 1.59721  16
  -1 -10 -14 14.2020 1.76132   8
   1 -10  14 8.43021 3.07914   8
   1  10  14 13.0476 1.86021   8
  -1  10 -14 13.4402 1.52749   8
  -1  10 -14 14.7681 2.30277  18
  -6   0  15 6.29678 2.23395  14
  -6   0  15 -0.8136 1.63678  15
  -5   0  15 -4.9221 3.37817  15
  -5   0  15 3.20730 3.59885  14
  -5   0  15 0.21246 1.35571  10
  -4   0  15 7.70322 3.97036  14
  -4   0  15 -0.5031 2.31553  10
  -4   0  15 2.64079 2.54832  15
  -3   0  15 1.75523 3.34135  14
  -3   0  15 2.34315 3.44475  15
  -3   0  15 -3.1330 2.84677  10
  -3   0  15 1.94936 2.23952   9
  -2   0  15 0.26902 10.0537   6
  -2   0  15 0.31527 1.55349   8
  -2   0  15 -5.7868 3.10213  10
  -2   0  15 -0.2567 2.55384   9
  -2   0  15 -2.6529 8.77524   2
  -1   0  15 3.59200 10.2954   2
  -1   0  15 -8.1889 9.18192   3
  -1   0  15 0.66415 3.14350   9
  -1   0  15 -4.0340 2.06527   8
  -1   0  15 5.01246 8.56662   6
   0   0  15 4.32024 2.70640   8
  -1   0 -15 5.51110 2.39050   8
  -2   0 -15 12.1188 8.76400   4
  -2   0 -15 0.95194 1.92366   8
  -2   0 -15 3.99890 2.95124   9
  -3   0 -15 -0.0321 2.55174   9
  -3   0 -15 -0.5102 2.86342  10
  -3   0 -15 -6.9425 10.8180   4
  -3   0 -15 0.99865 1.31227   8
  -4   0 -15 5.46952 2.09178   9
  -4   0 -15 2.64744 2.73194  10
  -4   0 -15 -2.0863 3.63450  11
  -5   0 -15 1.27144 2.53540  11
  -5   0 -15 -0.2085 2.05263  10
  -6   0 -15 4.68126 2.61033  11
  -6  -1  15 14.0372 2.64407  14
  -6   1  15 10.1294 2.23573  15
  -6   1  15 8.37367 2.27689  14
  -5  -1  15 13.3045 4.05939  14
  -5  -1  15 15.8686 2.14395  10
  -5  -1  15 2.74903 2.71850  15
  -5  -1  15 4.90528 4.26263  13
  -5   1  15 11.6840 3.96086  14
  -5   1  15 17.3896 2.04517  10
  -5   1  15 14.3200 3.71229  15
  -4  -1  15 35.1518 5.79569  14
  -4  -1  15 27.6564 5.71611  15
  -4  -1  15 38.8419 4.89634  10
  -4   1  15 52.9727 5.85991  15
  -4   1  15 25.2804 5.59513  14
  -4   1  15 47.6793 5.04129  10
  -3  -1  15 109.628 10.6349  10
  -3  -1  15 97.7130 9.67854   9
  -3  -1  15 102.297 11.5001  14
  -3  -1  15 94.5368 10.6742  15
  -3   1  15 80.5172 11.1538  14
  -3   1  15 104.256 9.57173   9
  -3   1  15 101.437 10.5253  15
  -3   1  15 95.5425 10.3424  10
  -2  -1  15 14.5298 3.23304  10
  -2  -1  15 11.8980 10.8691   6
  -2  -1  15 10.9062 3.67392  14
  -2  -1  15 15.0304 2.55990   8
  -2  -1  15 18.6905 11.8742   2
  -2  -1  15 9.95438 2.67644   9
  -2   1  15 21.2351 11.1868   2
  -2   1  15 15.5443 3.35931   9
  -2   1  15 16.2152 9.84713   6
  -2   1  15 9.95592 3.63399  10
  -1  -1  15 235.004 21.9088   9
  -1  -1  15 253.525 20.1205   8
  -1  -1  15 141.788 28.8490   3
  -1   1  15 235.398 21.7693   9
  -1   1  15 243.732 19.9909   8
  -1   1  15 241.455 28.2430   6
   0  -1  15 47.9766 6.02384   8
   0   1  15 61.1779 6.33089   8
  -1  -1 -15 401.242 33.3966   8
  -1   1 -15 402.316 33.3661   8
  -2  -1 -15 3.46801 2.03097   8
  -2  -1 -15 7.64791 8.87239   4
  -2  -1 -15 7.17086 2.37868   9
  -2   1 -15 9.16956 8.59378   4
  -2   1 -15 2.74053 2.01342   8
  -2   1 -15 9.04588 3.03600   9
  -2   1 -15 17.4937 9.93872   3
  -3  -1 -15 52.0192 6.18495   9
  -3  -1 -15 53.9338 4.88116   8
  -3  -1 -15 55.9425 6.76742  11
  -3  -1 -15 48.9957 6.06972  10
  -3   1 -15 35.8298 5.99331  10
  -3   1 -15 50.5273 4.78024   8
  -3   1 -15 61.6688 6.15688   9
  -4  -1 -15 51.1088 6.98470  11
  -4  -1 -15 45.1294 5.31055   9
  -4  -1 -15 54.1268 6.17083  10
  -4   1 -15 39.3586 5.63062  18
  -4   1 -15 45.1603 5.15039   9
  -4   1 -15 47.5007 6.34690  11
  -4   1 -15 51.9878 6.00165  10
  -5  -1 -15 6.72103 2.44792  10
  -5  -1 -15 14.6820 3.19755  11
  -5   1 -15 8.53695 2.39779  18
  -5   1 -15 9.95413 3.82162  11
  -5   1 -15 11.3237 2.46461  10
  -6  -1 -15 25.3849 3.47034  11
  -6   1 -15 20.3386 3.59580  11
  -6  -2  15 0.09874 1.94734  14
  -6   2  15 1.62890 1.48714  15
  -6   2  15 -1.2768 1.68015  14
  -5  -2  15 5.00672 3.48463  15
  -5  -2  15 4.48634 3.93181  14
  -5  -2  15 10.8524 1.99375  10
  -5   2  15 12.1768 2.72222  14
  -5   2  15 5.46982 3.11083  15
  -4  -2  15 0.25295 2.61390  10
  -4  -2  15 1.91128 3.75239  15
  -4  -2  15 5.72800 3.90154  14
  -4   2  15 1.23704 3.42118  14
  -4   2  15 2.89845 2.20653  10
  -4   2  15 -1.2724 3.04653  15
  -3  -2  15 -0.5226 3.78595  15
  -3  -2  15 4.33983 3.25128  10
  -3  -2  15 5.00667 2.97020   9
  -3  -2  15 8.65420 3.92462  14
  -3   2  15 8.05212 3.29164  15
  -3   2  15 2.56322 2.14672   9
  -3   2  15 6.08107 2.92023  10
  -2  -2  15 1.42384 10.1831   6
  -2  -2  15 2.92493 3.62208  10
  -2  -2  15 -3.3148 3.25083  14
  -2  -2  15 6.97224 3.12196   9
  -2  -2  15 0.33280 1.70484   8
  -2   2  15 4.84551 2.84247  15
  -2   2  15 -1.0283 9.39282   6
  -2   2  15 3.99128 3.22944  10
  -2   2  15 -0.6689 2.39588   9
  -2   2  15 0.02763 1.37419   8
  -1  -2  15 16.1769 4.04368   9
  -1  -2  15 12.6791 2.99387   8
  -1   2  15 9.61903 8.99975   6
  -1   2  15 4.08402 9.44568   3
  -1   2  15 11.6687 3.48532   9
  -1   2  15 16.0480 2.71540   8
  -1   2  15 13.7442 10.6507   2
   0  -2  15 0.18786 2.87914   8
   0   2  15 4.42666 8.25628   6
   0   2  15 -0.4484 2.44779   8
  -1  -2 -15 0.39611 7.67658   4
  -1  -2 -15 3.68434 2.45726   8
  -1   2 -15 5.66509 2.29209   8
  -2  -2 -15 -5.9488 8.89304   4
  -2  -2 -15 10.4414 3.59043   9
  -2  -2 -15 17.7802 2.74601   8
  -2   2 -15 16.0974 10.2220   4
  -2   2 -15 12.0432 3.26489   9
  -2   2 -15 13.1583 2.41357   8
  -3  -2 -15 1.58861 2.76465   9
  -3  -2 -15 4.83717 1.78299   8
  -3  -2 -15 4.10689 3.24224  10
  -3  -2 -15 4.29846 3.39809  11
  -3   2 -15 1.28090 2.46127   9
  -3   2 -15 0.20282 3.00169  18
  -3   2 -15 -0.7542 1.43812   8
  -3   2 -15 -2.1406 2.70883  10
  -4  -2 -15 3.13191 3.73034  11
  -4  -2 -15 -2.0195 2.12298   9
  -4  -2 -15 0.89918 1.97330  10
  -4   2 -15 2.34289 1.95363   9
  -4   2 -15 -0.8071 2.48448  10
  -4   2 -15 0.00581 2.32554  11
  -4   2 -15 7.77196 3.12987  18
  -5  -2 -15 -0.8535 3.31617  11
  -5  -2 -15 2.23004 1.61429  10
  -5   2 -15 1.28059 2.01682  18
  -5   2 -15 2.84924 1.47198  10
  -5   2 -15 2.53035 2.24275  11
  -6  -2 -15 -1.4307 2.29228  11
  -6  -3  15 36.5688 4.57949  14
  -5  -3  15 41.9217 5.22295  14
  -5  -3  15 34.5253 3.97966  10
  -5   3  15 40.8142 4.76931  15
  -5   3  15 34.3426 3.62950  10
  -5   3  15 33.8103 5.10447  14
  -4  -3  15 30.5328 5.14481  14
  -4  -3  15 13.3098 4.48228  15
  -4  -3  15 26.9376 3.98054  10
  -4   3  15 22.6503 3.43461  10
  -4   3  15 21.4667 4.22334  15
  -3  -3  15 12.1707 2.91928   9
  -3  -3  15 12.9971 3.97325  10
  -3  -3  15 16.0769 4.56107  15
  -3  -3  15 13.4833 4.41294  14
  -3   3  15 11.4230 4.34252  16
  -3   3  15 16.4065 3.21687  15
  -3   3  15 17.0869 2.77216   9
  -3   3  15 10.1218 3.26537  10
  -2  -3  15 13.1777 4.35441  10
  -2  -3  15 12.5602 3.59432   9
  -2  -3  15 4.23305 11.8930   6
  -2  -3  15 12.7638 4.12371  14
  -2  -3  15 12.2427 2.62050   8
  -2   3  15 13.3182 3.06615  10
  -2   3  15 19.3242 10.5794   6
  -2   3  15 12.5095 3.36591  15
  -2   3  15 17.0695 3.22300   9
  -2   3  15 12.6167 2.16356   8
  -1  -3  15 90.1334 10.1968   9
  -1  -3  15 87.5272 11.3659  14
  -1  -3  15 118.965 9.92457   8
  -1   3  15 113.580 10.5100   9
  -1   3  15 74.1514 15.4100   6
   0  -3  15 10.2133 2.72199   8
   0   3  15 16.0067 3.09053   8
   0   3  15 12.6920 9.05583   6
  -1  -3 -15 8.94116 9.00516   4
  -1  -3 -15 28.7986 3.93478   8
  -1   3 -15 29.3630 3.66124   8
  -2  -3 -15 43.5275 5.21048   9
  -2  -3 -15 31.1150 5.10667  11
  -2  -3 -15 32.2320 3.91130   8
  -2  -3 -15 7.04805 10.8321   4
  -2   3 -15 28.2275 3.57101   8
  -2   3 -15 37.3707 4.86563  18
  -2   3 -15 31.0985 4.60616   9
  -3  -3 -15 3.34500 1.35279   8
  -3  -3 -15 4.29616 3.44378  11
  -3  -3 -15 4.64421 3.41781  10
  -3  -3 -15 2.82497 2.09523   9
  -3   3 -15 7.07201 3.16215  18
  -3   3 -15 4.80785 2.55041   9
  -3   3 -15 3.43031 1.31951   8
  -3   3 -15 7.67353 3.04295  10
  -4  -3 -15 6.94012 2.14577   9
  -4  -3 -15 2.92105 2.90877  12
  -4  -3 -15 0.93033 3.63996  11
  -4  -3 -15 8.87348 3.14017  10
  -4   3 -15 5.49932 3.06083  11
  -4   3 -15 4.85818 2.60108  10
  -4   3 -15 6.12535 1.99312   9
  -4   3 -15 1.59774 3.24419  18
  -5  -3 -15 29.3731 3.99879  10
  -5  -3 -15 36.9979 5.01866  11
  -5   3 -15 31.5866 3.68308  10
  -5   3 -15 34.2291 4.35040  18
  -5   3 -15 33.8743 4.33833  11
  -5  -4  15 5.52926 1.57202  10
  -5  -4  15 0.72226 2.70725  14
  -5   4  15 0.37280 2.44725  15
  -4  -4  15 1.61767 2.75825  10
  -4  -4  15 11.1737 4.32075  14
  -4   4  15 9.17941 2.89983  16
  -4   4  15 5.81214 2.22814  15
  -4   4  15 10.3448 2.41018  10
  -3  -4  15 25.8543 3.70669   9
  -3  -4  15 17.1781 4.62715  10
  -3  -4  15 13.3350 4.57486  15
  -3  -4  15 25.0683 5.29191  14
  -3   4  15 26.6701 5.03726  16
  -3   4  15 19.5861 3.95431  10
  -3   4  15 27.7285 3.51217   9
  -3   4  15 27.3613 3.86373  15
  -2  -4  15 0.89213 2.59623  10
  -2  -4  15 6.51735 3.34721   9
  -2  -4  15 3.74612 3.77495  14
  -2  -4  15 5.93010 2.33327   8
  -2   4  15 3.61746 1.68629   8
  -2   4  15 0.57471 2.57114   9
  -2   4  15 1.83101 3.16758  10
  -2   4  15 4.45386 2.60602  15
  -1  -4  15 7.66166 2.72457   8
  -1  -4  15 1.56330 3.63580   9
  -1   4  15 4.62906 3.08231   9
  -1   4  15 3.73133 2.51374  15
  -1   4  15 2.74888 2.12782   8
  -1   4  15 4.48542 11.8649   6
   0  -4  15 7.60542 3.31755   8
   0   4  15 5.16496 2.67182   8
  -1  -4 -15 2.41289 2.72243   8
  -1   4 -15 1.26967 2.34049   8
  -2  -4 -15 -0.0500 2.17358   8
  -2  -4 -15 10.3713 3.44189  11
  -2  -4 -15 5.45532 3.57369   9
  -2   4 -15 6.65164 1.98319   8
  -2   4 -15 7.59237 2.96364   9
  -2   4 -15 -0.0048 2.87223  18
  -3  -4 -15 3.08602 3.42340  10
  -3  -4 -15 5.82911 1.68986   8
  -3  -4 -15 6.07281 3.49978  11
  -3   4 -15 3.57212 1.14825   8
  -3   4 -15 5.35911 3.37963  18
  -3   4 -15 1.63373 2.85677  10
  -3   4 -15 10.0294 2.72693   9
  -4  -4 -15 2.74688 2.01228   9
  -4  -4 -15 0.71375 2.81859  10
  -4  -4 -15 1.90643 3.35600  11
  -4  -4 -15 8.70398 3.13222  12
  -4   4 -15 8.39480 2.68028  10
  -4   4 -15 5.68152 2.46651  18
  -4   4 -15 2.65293 1.68219   9
  -4   4 -15 8.73503 2.14723  11
  -5  -4 -15 1.89669 2.01987  10
  -5  -4 -15 1.08581 2.54129  11
  -5   4 -15 2.03067 1.99754  18
  -5   4 -15 4.68619 1.79806  10
  -5  -5  15 4.68926 2.59722  14
  -5  -5  15 3.56815 1.40366  10
  -5   5  15 -1.6325 2.03247  15
  -4  -5  15 12.8159 3.30367  10
  -4  -5  15 14.7515 3.61571  14
  -4   5  15 19.1603 3.34953  16
  -4   5  15 11.3570 2.65224  15
  -3  -5  15 6.21451 2.62454   9
  -3  -5  15 -0.2091 4.10556  14
  -3  -5  15 -0.7897 3.35534  10
  -3   5  15 3.34766 2.50451  15
  -3   5  15 -1.2460 1.74994  10
  -3   5  15 3.02591 3.52064  16
  -3   5  15 1.10612 1.69016   9
  -2  -5  15 127.366 13.5813  14
  -2  -5  15 118.723 11.7044   9
  -2  -5  15 124.359 10.5478   8
  -2   5  15 136.416 11.6482   9
  -2   5  15 111.127 10.0797   8
  -2   5  15 122.626 12.2119  10
  -2   5  15 106.556 12.1590  15
  -1  -5  15 177.501 18.0782   9
  -1  -5  15 195.438 16.3723   8
  -1   5  15 188.386 17.5709   9
  -1   5  15 185.635 15.9306   8
   0  -5  15 16.2880 4.04891   8
   0   5  15 26.1707 3.54254   8
  -1  -5 -15 116.999 10.4083   8
  -1   5 -15 108.418 10.2188   8
  -2  -5 -15 38.9720 4.24787   8
  -2   5 -15 35.2372 5.04489  18
  -2   5 -15 32.5860 3.79959   8
  -2   5 -15 35.0989 4.74221   9
  -3  -5 -15 6.10958 1.59186   8
  -3  -5 -15 4.36350 2.89424   9
  -3   5 -15 11.5054 2.86324  11
  -3   5 -15 2.41539 2.92634  10
  -3   5 -15 10.6492 3.59376  18
  -3   5 -15 12.3771 2.79278   9
  -4  -5 -15 6.32493 2.37367  12
  -4  -5 -15 6.40391 1.91949   9
  -4  -5 -15 -1.7792 2.79120  10
  -4   5 -15 4.27045 2.49516  10
  -4   5 -15 5.01331 3.14956  18
  -4   5 -15 8.19446 1.79892   9
  -5  -5 -15 7.03972 2.02835  10
  -5  -5 -15 5.86189 1.73914  12
  -5   5 -15 5.43874 1.31691  10
  -5   5 -15 7.38562 2.68321  18
  -5  -6  15 3.27206 3.23501  14
  -4  -6  15 1.00227 2.66460  14
  -4  -6  15 4.47178 2.55895  10
  -4   6  15 -1.6890 1.99980  16
  -4   6  15 -0.7959 1.47428  15
  -4   6  15 0.05323 1.15710  10
  -3  -6  15 4.71480 4.35802  14
  -3  -6  15 3.41041 2.55837  10
  -3  -6  15 7.14277 2.42729   9
  -3   6  15 5.49540 1.56306   9
  -3   6  15 3.39531 3.28455  16
  -2  -6  15 22.6326 2.86874   8
  -2  -6  15 18.2705 4.92076  14
  -2  -6  15 19.0585 4.14954   9
  -2   6  15 17.9474 4.16770  16
  -2   6  15 22.6624 3.45923   9
  -2   6  15 21.8042 2.21023   8
  -2   6  15 22.6683 4.09950  10
  -1  -6  15 2.59598 2.69717   8
  -1  -6  15 5.38772 2.85070   9
  -1   6  15 6.77180 2.05091   8
  -1   6  15 4.85902 3.07610   9
   0  -6  15 10.8547 3.71795   8
   0   6  15 16.7847 3.00854   8
   0   6 -15 10.9350 2.62731   8
  -1  -6 -15 18.2843 3.26676   8
   1   6  15 19.5215 3.87679   8
  -1   6 -15 18.8633 2.69921   8
  -2  -6 -15 26.5864 3.70677   8
  -2  -6 -15 30.6932 4.33792   9
  -2   6 -15 32.0004 4.78720  18
  -2   6 -15 29.8437 4.40090   9
  -2   6 -15 34.2201 3.54745   8
  -3  -6 -15 5.45946 1.07348   8
  -3  -6 -15 11.1473 3.58085  12
  -3  -6 -15 1.34247 2.74750   9
  -3   6 -15 1.18375 2.30093   9
  -3   6 -15 9.09086 3.31401  18
  -3   6 -15 3.54495 2.12400  10
  -4  -6 -15 2.53367 2.05147  12
  -4  -6 -15 1.46195 2.61726  10
  -4  -6 -15 1.28848 1.54924   9
  -4   6 -15 -0.2898 2.04309  18
  -4   6 -15 0.59523 1.00527   9
  -4   6 -15 -1.9387 1.41671  10
  -5  -6 -15 1.29510 1.45078  10
  -5   6 -15 0.45274 1.11938  10
  -5   6 -15 2.17065 1.45999  18
  -4  -7  15 12.4031 2.40468  10
  -4  -7  15 17.8786 4.29809  14
  -4   7  15 13.1898 2.57075  16
  -4   7  15 18.1888 2.02725  10
  -3  -7  15 8.40111 2.44758   9
  -3  -7  15 9.51510 2.76109  10
  -3  -7  15 11.3826 3.28185  14
  -3   7  15 11.0068 1.64630   9
  -3   7  15 9.06341 2.76872  10
  -3   7  15 9.83029 2.61707  16
  -2  -7  15 11.3404 1.84468   8
  -2  -7  15 13.1994 4.64593  14
  -2  -7  15 7.16213 2.72070   9
  -2   7  15 7.45381 3.31436  16
  -2   7  15 9.85002 2.67880   9
  -1  -7  15 100.673 9.71327   8
  -1  -7  15 106.817 11.3887   9
  -1   7  15 108.997 9.19394   8
  -1   7  15 101.934 10.5250   9
   0  -7  15 5.09500 2.49326   8
   0   7  15 2.10385 1.76249   8
   0   7 -15 7.02893 2.04219   8
  -1  -7 -15 38.0571 4.45486   8
  -1   7 -15 34.4152 4.05068   8
   1   7  15 34.1603 4.09415   8
  -2  -7 -15 9.54155 2.13868   8
  -2  -7 -15 8.94748 2.62544   9
  -2   7 -15 7.24055 1.63939   8
  -2   7 -15 13.6366 3.09093   9
  -2   7 -15 13.3749 2.68160  18
  -3  -7 -15 18.6897 3.36761  12
  -3  -7 -15 17.3771 3.21981   9
  -3   7 -15 18.6794 2.87052   9
  -3   7 -15 21.0547 3.26959  18
  -3   7 -15 16.4270 2.96034  10
  -4  -7 -15 6.69464 1.92662  10
  -4  -7 -15 6.89921 2.14359  12
  -4  -7 -15 6.32381 1.20847   9
  -4   7 -15 8.17360 2.04079  18
  -4   7 -15 4.86197 2.06796  10
  -3  -8  15 -2.7030 2.06171  10
  -3  -8  15 2.75211 1.50609   9
  -3  -8  15 3.42867 2.58248  14
  -3   8  15 0.24328 2.43240  16
  -3   8  15 -0.3775 1.82350  10
  -2  -8  15 -2.3863 2.92213   9
  -2  -8  15 2.39468 2.79462  14
  -2   8  15 0.61485 1.92802   9
  -2   8  15 4.74620 1.93583  16
  -2   8  15 -4.1486 2.44134  10
  -1  -8  15 -0.4317 2.01839   8
  -1  -8  15 -3.2082 2.55349   9
  -1   8  15 0.57802 1.12426   8
  -1   8  15 7.67760 2.86626   9
  -1   8  15 1.83547 2.66315  16
   0  -8 -15 -2.2007 2.79058   8
   0  -8  15 -0.5355 3.05106   8
   0   8 -15 4.49797 2.31820   8
   0   8  15 0.90430 1.95433   8
  -1  -8 -15 4.46062 1.80137   8
   1  -8  15 5.83579 3.77707   8
   1   8  15 2.49263 2.31639   8
  -1   8 -15 4.88676 1.82962   8
  -2  -8 -15 -1.2763 2.05038   9
  -2  -8 -15 -2.1590 2.17585  12
  -2  -8 -15 1.68765 1.33501   8
  -2   8 -15 -1.7033 1.74891  18
  -2   8 -15 0.85505 0.95602   8
  -2   8 -15 -0.9006 1.71231   9
  -3  -8 -15 2.60978 2.17623  12
  -3  -8 -15 3.14714 1.97752   9
  -3   8 -15 2.15675 1.82511  18
  -3   8 -15 0.68030 1.01320   9
  -3   8 -15 -1.1098 1.62624  10
  -2  -9  15 -0.3794 1.76812   9
  -2  -9  15 2.04406 3.48569  14
  -2   9  15 -0.9525 1.26446   9
  -2   9  15 1.82252 1.79035  10
  -2   9  15 1.01023 2.15058  16
  -1  -9  15 7.68928 1.61882   8
  -1  -9  15 7.78817 2.68255   9
  -1  -9  15 10.0844 3.12935  14
  -1   9  15 10.8517 2.54769   9
  -1   9  15 11.3976 2.30787  16
   1   9 -15 7.53374 1.90012   8
   0  -9 -15 2.00252 1.61484   8
   0  -9  15 5.15110 2.64581   8
   0   9  15 0.50460 1.37505   8
   0   9 -15 -1.2077 1.78562   8
   0   9  15 -0.2448 2.15106  16
   1  -9  15 34.9375 3.86549   8
  -1  -9 -15 28.5961 3.17055   8
  -1   9 -15 31.5053 3.92831  18
  -1   9 -15 29.4712 3.07407   8
   1   9  15 26.4623 3.31519   8
  -2  -9 -15 2.71830 1.71945   9
  -2  -9 -15 0.80585 1.78825  12
  -2   9 -15 -0.8818 1.43482  18
   2   9  15 -0.6248 1.52761   8
  -2   9 -15 -0.1693 1.32114   9
  -5   0  16 11.4026 1.73253  10
  -5   0  16 13.4655 2.94219  14
  -5   0  16 6.30860 3.38485  15
  -4   0  16 7.51777 2.64247  10
  -4   0  16 5.27782 3.76734  14
  -4   0  16 0.28053 3.27303  15
  -3   0  16 87.8915 8.28376   9
  -3   0  16 70.6823 9.69867  14
  -3   0  16 82.4941 9.13011  10
  -3   0  16 87.1473 9.82913  15
  -2   0  16 40.0465 14.0821   6
  -2   0  16 65.4279 6.08038   8
  -2   0  16 61.5912 7.47129   9
  -2   0  16 63.4026 7.27454  10
  -1   0  16 142.058 11.5897   8
  -1   0  16 92.6945 18.5410   6
  -1   0  16 121.626 12.9935   9
   0   0  16 505.464 42.0308   8
  -1   0 -16 128.412 11.5556   8
  -2   0 -16 147.947 12.4956   8
  -2   0 -16 136.494 13.5672   9
  -2   0 -16 157.325 21.6621   4
  -3   0 -16 55.7796 6.79096   9
  -3   0 -16 61.2962 8.09504  11
  -3   0 -16 60.1485 5.48074   8
  -3   0 -16 59.9916 7.42606  10
  -4   0 -16 28.6143 4.40137  10
  -4   0 -16 34.1176 5.33152  11
  -4   0 -16 30.3419 3.75587   9
  -5   0 -16 69.3205 6.76622  10
  -5   0 -16 61.8894 7.53569  11
  -5  -1  16 2.08643 3.22530  15
  -5  -1  16 3.02782 2.34244  14
  -5  -1  16 5.68626 1.53718  10
  -5   1  16 2.34456 1.19962  10
  -5   1  16 0.36315 2.27510  14
  -5   1  16 3.66085 2.18070  15
  -4  -1  16 26.7255 4.33061  14
  -4  -1  16 22.0865 3.56999  10
  -4  -1  16 26.2729 4.95185  15
  -4   1  16 22.8237 4.40350  15
  -4   1  16 21.2006 3.93129  14
  -4   1  16 22.0430 3.50041  10
  -3  -1  16 1.34116 3.78674  15
  -3  -1  16 8.20720 2.60113  10
  -3  -1  16 3.30521 3.81827  14
  -3  -1  16 3.01562 2.34418   9
  -3   1  16 7.67737 2.40668   9
  -3   1  16 6.99044 3.15911  10
  -3   1  16 3.61761 3.34999  15
  -2  -1  16 51.7466 5.44776   8
  -2  -1  16 54.1651 6.45239   9
  -2  -1  16 51.2056 7.16778  10
  -2  -1  16 44.0416 14.6742   6
  -2   1  16 57.6293 6.74524   9
  -2   1  16 49.4692 6.81378  10
  -2   1  16 38.3264 13.9314   6
  -2   1  16 67.9054 7.22024  15
  -1  -1  16 25.5077 11.5473   6
  -1  -1  16 21.7446 3.40959   8
  -1  -1  16 27.7531 4.64723   9
  -1   1  16 24.6533 4.48899   9
  -1   1  16 20.2175 3.69536   8
  -1   1  16 2.67815 10.4751   6
   0  -1  16 -1.4968 2.81962   8
   0   1  16 0.67915 2.50588   8
   0   1  16 5.33244 9.64259   6
  -1  -1 -16 27.8450 11.2097   4
  -1  -1 -16 13.6876 3.01095   8
  -1   1 -16 14.0535 2.43756   8
  -2  -1 -16 17.0171 3.69876   9
  -2  -1 -16 8.35014 2.34615   8
  -2  -1 -16 1.41932 9.81305   4
  -2   1 -16 11.3951 2.71646   9
  -2   1 -16 0.67963 9.54053   4
  -2   1 -16 13.9176 2.46445   8
  -3  -1 -16 22.5741 4.45398  11
  -3  -1 -16 16.8226 3.85030  10
  -3  -1 -16 19.2931 3.52666   9
  -3  -1 -16 17.6107 2.29262   8
  -3   1 -16 16.5283 3.73759  10
  -3   1 -16 15.3572 2.75698   9
  -3   1 -16 13.7859 2.00082   8
  -4  -1 -16 73.2811 7.54153   9
  -4  -1 -16 66.6563 9.36086  11
  -4  -1 -16 82.6801 8.38231  10
  -4   1 -16 82.5274 9.41513  11
  -4   1 -16 77.3742 7.48065   9
  -4   1 -16 78.0490 8.30194  10
  -5  -1 -16 4.39625 3.14687  11
  -5  -1 -16 -1.9077 1.24054  10
  -5   1 -16 2.96523 3.04664  11
  -5   1 -16 0.61659 1.35554  10
  -5  -2  16 8.60852 3.24682  15
  -5  -2  16 11.1634 1.82158  10
  -5  -2  16 9.53754 2.74940  14
  -5   2  16 14.6690 2.59789  15
  -5   2  16 7.81486 3.12747  14
  -4  -2  16 18.0326 4.48774  15
  -4  -2  16 21.7102 3.57156  10
  -4  -2  16 19.4659 4.68582  14
  -4   2  16 16.2407 3.05825  10
  -4   2  16 20.3766 3.70032  15
  -3  -2  16 59.4508 8.68487  14
  -3  -2  16 74.7929 9.26576  15
  -3  -2  16 80.3825 7.94333   9
  -3  -2  16 75.5218 8.53869  10
  -3   2  16 71.7529 7.28340   9
  -3   2  16 73.9667 8.12440  10
  -3   2  16 69.8878 8.59925  15
  -2  -2  16 131.998 11.0913   8
  -2  -2  16 125.242 12.6468   9
  -2  -2  16 117.625 13.8294  14
  -2  -2  16 120.241 13.2938  10
  -2   2  16 135.310 13.2774  15
  -2   2  16 125.906 13.0359  10
  -2   2  16 119.542 10.8491   8
  -2   2  16 140.981 12.4182   9
  -1  -2  16 12.2479 2.81915   8
  -1  -2  16 9.11366 3.83934   9
  -1   2  16 9.32605 2.48866   8
  -1   2  16 8.15348 10.5386   6
  -1   2  16 7.93120 3.48185   9
   0  -2  16 172.293 15.1928   8
   0   2  16 174.771 14.9769   8
   0   2  16 136.983 22.4655   6
  -1  -2 -16 28.5333 10.7704   4
  -1  -2 -16 24.9301 3.55048   8
   1   2  16 27.6308 13.3976   6
  -1   2 -16 21.6670 3.41538   8
  -2  -2 -16 37.4710 5.20133   9
  -2  -2 -16 38.4103 4.28761   8
  -2   2 -16 31.6640 4.92594   9
  -2   2 -16 41.9587 4.35212   8
  -3  -2 -16 85.0184 9.05424  11
  -3  -2 -16 79.1377 6.55806   8
  -3  -2 -16 77.2965 7.96470   9
  -3  -2 -16 64.3873 8.44883  10
  -3   2 -16 72.5938 7.76387   9
  -3   2 -16 65.8145 6.38821   8
  -3   2 -16 70.2246 8.30766  10
  -4  -2 -16 3.47408 2.67257  11
  -4  -2 -16 7.45011 2.98217  10
  -4   2 -16 10.2523 2.08364   9
  -4   2 -16 14.2451 3.54619  11
  -4   2 -16 10.5383 2.94908  10
  -4   2 -16 1.38355 3.02928  18
  -5  -2 -16 72.0718 7.39513  11
  -5  -2 -16 62.7316 6.36796  10
  -5   2 -16 62.1640 7.14194  11
  -5   2 -16 68.9776 7.32473  18
  -5   2 -16 59.6813 6.30551  10
  -5  -3  16 0.14551 3.29863  14
  -5  -3  16 1.84565 1.25149  10
  -5   3  16 3.13519 1.72467  15
  -4  -3  16 2.46271 2.62302  10
  -4  -3  16 6.82275 3.06096  14
  -4  -3  16 0.87970 3.29837  15
  -4   3  16 5.51792 2.27742  10
  -4   3  16 8.57844 2.42494  15
  -3  -3  16 17.5124 3.78742  15
  -3  -3  16 19.1453 3.19671   9
  -3  -3  16 8.38221 4.51349  14
  -3  -3  16 17.8289 3.56704  10
  -3   3  16 19.5829 2.89017   9
  -3   3  16 16.9224 3.65788  10
  -3   3  16 21.5539 3.95695  15
  -2  -3  16 6.48843 3.01692  10
  -2  -3  16 6.85181 1.78548   8
  -2  -3  16 4.02175 3.16840   9
  -2  -3  16 1.57564 3.61400  14
  -2   3  16 6.43148 1.72674   8
  -2   3  16 1.43649 1.92499   9
  -2   3  16 9.27505 3.21182  15
  -2   3  16 2.56912 2.51860  10
  -1  -3  16 3.07034 2.48770   8
  -1  -3  16 -1.9296 2.47839   9
  -1  -3  16 0.91182 3.29963  14
  -1   3  16 2.32516 10.2416   6
  -1   3  16 0.95714 2.54116  15
  -1   3  16 3.89338 2.11329   8
  -1   3  16 0.40467 2.19988   9
   0  -3  16 11.0610 3.46298   8
   0   3  16 14.8444 3.21636   8
   0   3  16 2.89757 9.71330   6
  -1  -3 -16 3.31967 10.3739   4
  -1  -3 -16 5.18654 2.67800   8
  -1   3 -16 1.04550 2.25538   8
  -2  -3 -16 12.4255 3.58864   9
  -2  -3 -16 6.64083 2.32573   8
  -2  -3 -16 12.6090 3.60660  11
  -2   3 -16 7.24803 2.97828   9
  -2   3 -16 1.23049 1.85971   8
  -3  -3 -16 40.4856 5.47497  11
  -3  -3 -16 36.6237 3.86239   8
  -3  -3 -16 47.5974 5.30953   9
  -3  -3 -16 39.3216 5.60263  10
  -3   3 -16 38.5356 5.24366  18
  -3   3 -16 45.3226 4.95998   9
  -3   3 -16 34.2587 5.14618  10
  -3   3 -16 40.5558 3.76503   8
  -4  -3 -16 2.76076 3.23735  11
  -4  -3 -16 0.42970 1.78238   9
  -4  -3 -16 0.53058 2.72243  10
  -4   3 -16 -1.4128 1.62826   9
  -4   3 -16 4.54342 2.82104  11
  -4   3 -16 3.08219 2.46620  10
  -4   3 -16 1.30599 2.08486  18
  -5  -3 -16 1.39824 1.37355  10
  -5  -3 -16 4.09206 2.61534  11
  -5   3 -16 1.51957 1.21749  10
  -5   3 -16 3.29242 1.70732  11
  -5   3 -16 1.62559 1.74658  18
  -5  -4  16 16.4578 1.90462  10
  -5  -4  16 14.9070 3.09017  14
  -5   4  16 15.3391 2.94476  15
  -4  -4  16 11.5217 3.03088  10
  -4  -4  16 11.6237 3.28286  14
  -4   4  16 14.6434 2.64256  10
  -4   4  16 6.06971 2.91046  15
  -3  -4  16 14.4894 4.13688  10
  -3  -4  16 17.0654 4.00569  14
  -3  -4  16 18.0790 4.29266  15
  -3  -4  16 18.6556 3.19357   9
  -3   4  16 22.3965 3.73668  10
  -3   4  16 20.1366 3.05109   9
  -3   4  16 28.1483 4.59659  16
  -3   4  16 12.1153 3.42735  15
  -2  -4  16 86.5855 10.6507  14
  -2  -4  16 88.2247 7.93460   8
  -2  -4  16 86.6198 9.57485   9
  -2   4  16 91.2659 8.68056   9
  -2   4  16 83.5051 9.21869  15
  -2   4  16 91.9939 7.58893   8
  -2   4  16 81.2816 9.11806  10
  -1  -4  16 47.9556 6.64581   9
  -1  -4  16 54.3720 5.92827   8
  -1  -4  16 45.1745 6.74898  14
  -1   4  16 46.9842 6.04885  15
  -1   4  16 54.0964 6.00900   9
  -1   4  16 50.6663 5.28237   8
   0  -4  16 47.5313 6.37079   8
   0   4  16 65.3143 6.28387   8
  -1  -4 -16 17.2879 2.85736   8
  -1   4 -16 18.7918 3.11745   8
  -2  -4 -16 46.2521 4.56662   8
  -2  -4 -16 38.0112 5.59561  11
  -2  -4 -16 46.0310 5.69270   9
  -2   4 -16 39.7200 4.31604   8
  -2   4 -16 29.7285 5.13016  18
  -2   4 -16 34.1586 4.96514   9
  -3  -4 -16 94.9104 8.10365   8
  -3  -4 -16 97.6267 10.7135  11
  -3   4 -16 101.886 9.47052   9
  -3   4 -16 100.493 10.5588  18
  -3   4 -16 100.660 10.5584  11
  -3   4 -16 90.2600 9.54538  10
  -3   4 -16 89.8022 7.86018   8
  -4  -4 -16 0.92422 2.81131  11
  -4  -4 -16 2.97763 1.71985   9
  -4  -4 -16 5.97979 2.79651  10
  -4  -4 -16 0.54316 2.53539  12
  -4   4 -16 2.91084 1.71930   9
  -4   4 -16 2.65531 1.87577  11
  -4   4 -16 3.07683 1.77933  10
  -4   4 -16 4.66540 2.11235  18
  -5  -4 -16 23.6618 2.82747  10
  -5  -4 -16 15.1246 3.08017  11
  -5   4 -16 16.7268 2.81887  18
  -5   4 -16 21.2670 2.55310  10
  -5  -5  16 5.15791 2.19573  14
  -4  -5  16 3.11001 3.72175  14
  -4  -5  16 6.91194 2.68726  10
  -4   5  16 5.47738 2.99789  16
  -4   5  16 5.81046 1.84919  15
  -3  -5  16 10.7541 3.43592  14
  -3  -5  16 9.23495 2.92228  10
  -3  -5  16 5.87734 2.48890   9
  -3   5  16 13.9999 3.63811  16
  -3   5  16 8.95778 2.92176  10
  -3   5  16 7.51663 1.85067   9
  -3   5  16 9.58042 2.25909  15
  -2  -5  16 0.38705 3.07934   9
  -2  -5  16 7.71927 4.09539  14
  -2  -5  16 -0.2399 1.33871   8
  -2   5  16 -0.3873 2.22815  16
  -2   5  16 1.84599 1.12750   8
  -2   5  16 4.14530 2.34794  10
  -2   5  16 -1.3865 1.66922   9
  -2   5  16 3.84339 1.81247  15
  -1  -5  16 26.0921 4.00194   8
  -1  -5  16 36.8165 4.97527   9
  -1  -5  16 22.6555 5.30129  14
  -1   5  16 32.7752 3.64873   8
  -1   5  16 31.3733 4.53847   9
   0  -5  16 28.3738 5.18887   8
   0   5  16 51.4850 4.96975   8
  -1  -5 -16 32.2518 4.09187   8
   1   5  16 27.2116 4.51224   8
  -1   5 -16 29.1215 3.81186   8
  -2  -5 -16 1.43676 1.83948   8
  -2   5 -16 5.49386 3.15044  18
  -2   5 -16 6.74022 1.80486   8
  -2   5 -16 6.48810 2.90514   9
  -3  -5 -16 3.12562 0.94189   8
  -3  -5 -16 6.90467 3.04502  12
  -3  -5 -16 2.90003 2.63745   9
  -3   5 -16 4.29569 2.07167  10
  -3   5 -16 5.58589 3.14188  18
  -3   5 -16 0.32793 1.68647   9
  -3   5 -16 1.91134 2.47725  11
  -4  -5 -16 9.81618 2.99532  10
  -4  -5 -16 14.2694 2.16899   9
  -4  -5 -16 15.8140 2.83245  12
  -4   5 -16 13.7345 2.46925  10
  -4   5 -16 15.9946 2.88622  18
  -4   5 -16 15.6868 1.94412   9
  -5  -5 -16 4.56915 1.23678  10
  -5   5 -16 4.45126 1.24948  10
  -4  -6  16 12.5189 2.82549  10
  -4  -6  16 14.7939 3.94756  14
  -4   6  16 13.1616 1.94825  10
  -4   6  16 18.5189 3.14129  16
  -3  -6  16 48.6562 5.35485   9
  -3  -6  16 57.4101 6.82198  14
  -3  -6  16 48.0209 6.48031  10
  -3   6  16 56.4598 5.08202   9
  -3   6  16 48.6361 6.62823  16
  -2  -6  16 13.3365 4.73523  14
  -2  -6  16 20.7203 3.97429   9
  -2  -6  16 15.7088 2.15721   8
  -2   6  16 16.8326 3.81373  10
  -2   6  16 22.6844 3.96158  16
  -2   6  16 22.0005 3.27237   9
  -1  -6  16 37.7867 6.20515   9
  -1  -6  16 44.4040 5.15423   8
  -1  -6  16 49.1277 6.91377  14
  -1   6  16 45.0462 5.38519   9
  -1   6  16 47.4914 4.67748   8
   0  -6  16 14.9583 3.86361   8
   0   6  16 16.7586 2.91586   8
   0   6 -16 13.3509 3.09288   8
  -1  -6 -16 2.87784 2.37370   8
   1   6  16 4.44403 2.87964   8
  -1   6 -16 6.07851 2.34195   8
  -2  -6 -16 22.3172 3.33538   8
  -2  -6 -16 30.1064 4.58981   9
  -2   6 -16 29.3435 3.90454   9
  -2   6 -16 33.1726 4.66509  18
  -2   6 -16 33.0907 3.27505   8
  -3  -6 -16 33.1778 4.32194   9
  -3  -6 -16 38.6594 5.20242  12
  -3   6 -16 20.7834 4.34784  10
  -3   6 -16 46.2623 4.44715   9
  -3   6 -16 37.0737 4.94641  18
  -4  -6 -16 7.03937 2.48828  12
  -4  -6 -16 5.47994 2.41262  10
  -4   6 -16 3.93885 1.94000  18
  -4   6 -16 1.98295 1.48951  10
  -4  -7  16 1.70244 1.79203  10
  -4  -7  16 -2.5699 3.01712  14
  -4   7  16 0.16295 1.21743  10
  -3  -7  16 2.57352 1.86127   9
  -3  -7  16 5.84057 2.34398  10
  -3  -7  16 -3.1448 3.61431  14
  -3   7  16 4.61554 1.00903   9
  -3   7  16 1.71474 2.68314  16
  -3   7  16 2.58795 2.16561  10
  -2  -7  16 8.58282 3.26127   9
  -2  -7  16 1.31745 4.03423  14
  -2   7  16 3.07163 2.23739   9
  -2   7  16 7.00622 2.98175  16
  -1  -7  16 3.99960 2.75165   9
  -1  -7  16 1.99212 4.01338  14
  -1  -7  16 5.91823 2.23014   8
  -1   7  16 -0.8343 1.95001   9
  -1   7  16 1.40108 1.41933   8
   0  -7  16 4.17648 3.22064   8
   0  -7 -16 2.16268 3.09343   8
   0   7  16 -2.2958 2.03103   8
   0   7 -16 0.57259 2.38283   8
  -1  -7 -16 0.80161 2.35260   8
   1  -7  16 8.67218 3.69932   8
   1   7  16 4.54878 1.82573   8
  -1   7 -16 -1.4229 1.89749   8
  -2  -7 -16 10.3407 1.82136   8
  -2  -7 -16 5.91384 3.14859   9
  -2   7 -16 9.19586 1.48470   8
  -2   7 -16 7.00048 2.23023   9
  -2   7 -16 8.57471 2.33793  18
  -3  -7 -16 6.86691 2.30273  12
  -3  -7 -16 6.27393 2.33028   9
  -3   7 -16 5.24013 2.72177  10
  -3   7 -16 8.96977 2.18862  18
  -3   7 -16 5.92566 1.56093   9
  -4   7 -16 -0.4068 1.41440  18
  -3  -8  16 25.6872 3.87048  14
  -3   8  16 30.8089 3.51629  10
  -3   8  16 26.0475 3.51864  16
  -2  -8  16 47.1835 7.06170  14
  -2   8  16 64.4187 6.84450  16
  -2   8  16 56.4190 6.35261  10
  -2   8  16 73.0306 6.08049   9
  -1  -8  16 15.4511 4.41863  14
  -1  -8  16 11.0762 2.24628   8
  -1  -8  16 12.0664 4.12796   9
  -1   8  16 11.6757 3.17100  16
  -1   8  16 15.0406 1.55890   8
  -1   8  16 15.7819 3.04033   9
   0  -8  16 41.7473 5.07716   8
   0  -8 -16 46.3601 5.10512   8
   0   8 -16 41.9586 4.77903   8
   0   8  16 45.7833 4.22391   8
  -1  -8 -16 9.06687 1.79159   8
   1  -8  16 4.28435 3.40932   8
  -1   8 -16 12.1979 2.94644  18
   1   8  16 5.92471 2.26720   8
  -1   8 -16 9.23682 1.52475   8
  -2  -8 -16 24.5272 3.47800  12
  -2  -8 -16 20.1073 2.11508   8
  -2  -8 -16 19.6032 3.00738   9
  -2   8 -16 20.3772 3.02597  18
  -2   8 -16 18.3815 2.75130   9
  -3  -8 -16 14.6223 3.10632  12
  -3  -8 -16 16.6790 2.40039   9
  -3   8 -16 15.2008 1.87578   9
  -3   8 -16 15.5656 2.48915  18
  -1  -9  16 29.4411 4.57576  14
  -1   9  16 24.3464 3.20848   9
  -1   9  16 23.9525 3.31633  16
   0  -9  16 3.02209 2.55520  14
   0  -9 -16 1.76366 1.49920   8
   0  -9  16 2.53533 2.06712   8
   0   9  16 0.92246 1.34309  16
   0   9 -16 1.29108 1.57902   8
   0   9  16 2.31140 1.03873   8
  -1  -9 -16 7.37090 1.60435   8
  -1  -9 -16 6.87576 2.03711  12
   1  -9  16 3.88402 2.01551   8
  -1   9 -16 6.08390 1.07036   8
   1   9  16 4.69749 1.35423   8
  -1   9 -16 6.17529 2.20446  18
  -5   0  17 -2.8010 2.52595  15
  -5   0  17 2.07733 1.99506  14
  -4   0  17 3.51558 2.31351  10
  -4   0  17 0.12078 3.29834  14
  -4   0  17 0.00678 3.05569  15
  -3   0  17 -4.6627 3.24714  15
  -3   0  17 -1.3155 2.37318   9
  -3   0  17 1.34290 2.15919  10
  -2   0  17 1.87355 2.94665   9
  -2   0  17 1.41157 3.63471  10
  -1   0  17 -2.5020 2.05023   8
  -1   0  17 -2.1761 3.32768   9
   0   0  17 -2.3535 2.73206   8
  -1   0 -17 -2.7416 2.41327   8
  -2   0 -17 2.04647 3.09777   9
  -2   0 -17 -3.0380 2.25948   8
  -3   0 -17 1.36439 3.08629  10
  -3   0 -17 -1.2950 2.36196  11
  -3   0 -17 1.86886 2.64989   9
  -4   0 -17 1.78186 2.30849  11
  -4   0 -17 1.50996 2.59748  10
  -4   0 -17 -0.8307 1.64705   9
  -5   0 -17 0.79881 2.75477  11
  -5   0 -17 -1.6014 1.66808  10
  -5  -1  17 13.7258 3.50165  14
  -5  -1  17 13.4392 3.24190  15
  -5   1  17 18.3114 2.81275  15
  -5   1  17 12.9233 3.34874  14
  -4  -1  17 62.3256 8.05061  14
  -4  -1  17 65.2619 6.87521  10
  -4  -1  17 65.1788 7.41018  15
  -4   1  17 63.1825 7.79682  15
  -4   1  17 60.4118 6.74860  10
  -3  -1  17 141.689 16.6473  14
  -3  -1  17 160.818 16.5313  15
  -3  -1  17 166.726 14.7983   9
  -3  -1  17 164.045 15.4839  10
  -3   1  17 163.873 16.3300  15
  -3   1  17 163.836 14.7117   9
  -2  -1  17 -1.6979 3.66766  10
  -2  -1  17 6.22045 3.11797   9
  -2  -1  17 2.89966 1.48642   8
  -2   1  17 4.27528 2.91274   9
  -2   1  17 1.46144 2.95834  15
  -2   1  17 2.76572 3.63780  10
  -2   1  17 3.69687 1.60062   8
  -1  -1  17 17.0365 4.21195   9
  -1  -1  17 14.5982 2.94769   8
  -1   1  17 17.1564 3.44002   9
  -1   1  17 13.9412 2.87237   8
   0  -1  17 5.94082 2.34213   8
   0   1  17 0.12592 11.7300   6
   0   1  17 10.5965 3.07747   8
  -1  -1 -17 62.8837 6.60705   8
  -1   1 -17 62.1858 6.54157   8
  -2  -1 -17 3.73661 3.28447   9
  -2  -1 -17 5.77115 2.25710   8
  -2   1 -17 3.12771 1.94228   8
  -2   1 -17 3.20970 3.15793   9
  -3  -1 -17 233.245 23.1551  10
  -3  -1 -17 214.199 25.0114  11
  -3  -1 -17 276.524 22.3894   9
  -3   1 -17 230.172 20.2499   8
  -3   1 -17 270.062 22.3452   9
  -3   1 -17 282.412 25.2424  11
  -3   1 -17 229.275 22.9276  10
  -4  -1 -17 14.6542 2.38567   9
  -4  -1 -17 9.33185 2.94686  11
  -4  -1 -17 16.9466 3.22304  10
  -4   1 -17 9.95397 3.50228  11
  -4   1 -17 13.3566 2.27971   9
  -4   1 -17 15.4789 3.13995  10
  -5  -1 -17 75.6515 6.86019  10
  -5  -1 -17 75.8891 8.03756  11
  -5   1 -17 68.0013 7.92466  11
  -5   1 -17 61.4226 6.64477  10
  -5  -2  17 1.82607 2.02188  14
  -5   2  17 -0.0262 1.54686  15
  -4  -2  17 0.58417 1.61563  10
  -4  -2  17 2.57161 3.48450  14
  -4  -2  17 1.44660 3.18314  15
  -4   2  17 0.75678 1.42935  10
  -4   2  17 -3.3746 1.94440  15
  -3  -2  17 4.14862 3.28390  10
  -3  -2  17 5.69790 3.55767  15
  -3  -2  17 -0.4094 2.00157   9
  -3  -2  17 5.21469 2.79736  14
  -3   2  17 4.96899 2.98697  10
  -3   2  17 2.30672 1.91255   9
  -3   2  17 -2.4448 2.92529  15
  -2  -2  17 0.67233 3.46737  14
  -2  -2  17 -1.4221 1.65111   8
  -2  -2  17 2.74424 3.95536  10
  -2  -2  17 7.71179 3.27982   9
  -2   2  17 -2.1345 3.29197  10
  -2   2  17 2.36880 1.42659   8
  -2   2  17 7.65583 2.93192   9
  -2   2  17 1.81340 3.08974  15
  -1  -2  17 0.91782 3.61119   9
  -1  -2  17 3.08715 2.46452   8
  -1   2  17 0.30463 3.17694   9
   0  -2  17 25.9961 4.35758   8
   0   2  17 30.1421 4.14163   8
  -1  -2 -17 5.04975 2.61130   8
  -1   2 -17 1.23695 2.38197   8
  -2  -2 -17 -0.7936 3.18154   9
  -2  -2 -17 1.57866 2.00570   8
  -2   2 -17 1.01798 2.91678   9
  -2   2 -17 1.14624 1.92358   8
  -3  -2 -17 4.47885 1.40047   8
  -3  -2 -17 10.6527 3.10421   9
  -3  -2 -17 14.1315 3.69509  11
  -3   2 -17 7.91590 3.15359  10
  -3   2 -17 8.74857 2.86068   9
  -3   2 -17 7.50334 1.31461   8
  -3   2 -17 10.7356 2.88812  11
  -4  -2 -17 2.97128 2.60994  10
  -4  -2 -17 -0.0385 2.11237  11
  -4   2 -17 0.54935 2.49732  10
  -4   2 -17 2.75773 1.64403   9
  -4   2 -17 2.84247 3.03490  11
  -5  -2 -17 11.8466 2.32179  11
  -5  -2 -17 5.79754 1.52060  10
  -5   2 -17 8.13971 1.53781  10
  -5   2 -17 5.50179 1.96442  11
  -5  -3  17 8.77911 2.98144  14
  -5   3  17 5.16667 1.76994  15
  -4  -3  17 51.7822 5.18726  10
  -4  -3  17 32.0096 5.40239  15
  -4  -3  17 41.6810 5.38371  14
  -4   3  17 40.5695 4.42871  10
  -4   3  17 36.5223 4.89361  15
  -3  -3  17 0.61882 2.70949  14
  -3  -3  17 0.62768 3.21093  10
  -3  -3  17 1.18775 2.50964  15
  -3  -3  17 5.00144 2.38636   9
  -3   3  17 -2.4734 2.70588  10
  -3   3  17 1.60909 1.71519   9
  -3   3  17 1.74509 2.83409  15
  -2  -3  17 92.4944 7.86902   8
  -2  -3  17 89.7486 10.4320  14
  -2  -3  17 79.8437 10.2275  10
  -2  -3  17 99.9084 9.66740   9
  -2   3  17 81.3854 10.0583  16
  -2   3  17 89.2557 8.78654   9
  -2   3  17 86.1964 7.56594   8
  -2   3  17 86.3909 9.80323  10
  -2   3  17 91.7583 9.86470  15
  -1  -3  17 14.6050 4.04836   9
  -1  -3  17 10.7555 2.92339   8
  -1   3  17 12.4421 2.93551   9
  -1   3  17 6.07191 2.99618  15
  -1   3  17 14.3919 2.53384   8
   0  -3  17 26.9175 4.35540   8
  -1  -3 -17 28.6854 4.00268   8
  -1   3 -17 28.0269 3.81232   8
  -2  -3 -17 60.3037 8.58231  11
  -2  -3 -17 66.5254 7.68507   9
  -2  -3 -17 73.8292 6.88617   8
  -2   3 -17 81.4958 6.80877   8
  -2   3 -17 77.8669 8.06281   9
  -3  -3 -17 6.58525 1.31408   8
  -3  -3 -17 11.0801 3.14095   9
  -3  -3 -17 8.37231 2.59839  11
  -3  -3 -17 4.79743 2.78306  12
  -3   3 -17 7.74585 3.23944  11
  -3   3 -17 4.03014 2.68981   9
  -3   3 -17 6.98184 3.10319  10
  -3   3 -17 6.91964 1.03665   8
  -4  -3 -17 43.4966 5.60552  10
  -4  -3 -17 54.7421 5.34584   9
  -4  -3 -17 55.2191 6.78101  11
  -4   3 -17 54.7972 5.11685   9
  -4   3 -17 45.2362 6.42088  18
  -4   3 -17 58.2568 6.12896  10
  -4   3 -17 54.8374 6.56376  11
  -5  -3 -17 3.67701 1.63961  10
  -5  -3 -17 6.75646 2.35346  11
  -5   3 -17 3.51803 1.56588  10
  -5  -4  17 8.71855 2.19265  14
  -4  -4  17 3.52265 2.29824  10
  -4  -4  17 0.82996 2.27557  14
  -4   4  17 5.17180 2.47612  15
  -4   4  17 -0.3948 1.31815  10
  -3  -4  17 2.33842 3.35269  15
  -3  -4  17 7.07232 2.23553   9
  -3  -4  17 -0.6373 2.55081  14
  -3  -4  17 5.20661 3.34645  10
  -3   4  17 1.21285 3.04958  16
  -3   4  17 2.59534 2.76568  10
  -3   4  17 2.81596 1.63672   9
  -3   4  17 5.64113 2.75179  15
  -2  -4  17 8.81103 4.04015  14
  -2  -4  17 2.77986 2.37910   9
  -2  -4  17 3.33142 1.53203   8
  -2   4  17 8.64648 3.33576  16
  -2   4  17 4.23057 2.48502  10
  -2   4  17 1.99008 1.82944   9
  -2   4  17 1.40234 1.06181   8
  -2   4  17 4.52447 2.04069  15
  -1  -4  17 6.71005 4.03203   9
  -1  -4  17 9.03640 2.68537   8
  -1  -4  17 6.20495 2.75805  14
  -1   4  17 8.55476 3.44231   9
  -1   4  17 7.33289 2.17684   8
  -1   4  17 7.24286 2.78103  15
   0  -4  17 10.7791 3.64291   8
   0   4  17 20.2051 3.20934   8
  -1  -4 -17 28.4005 3.66088   8
   1   4  17 25.6961 4.49437   8
  -1   4 -17 33.7102 3.58759   8
  -2  -4 -17 -5.5945 3.35320   9
  -2  -4 -17 -2.8304 1.85532   8
  -2   4 -17 1.64851 2.74663   9
  -2   4 -17 0.63415 1.61021   8
  -3  -4 -17 7.37522 2.91737  12
  -3  -4 -17 6.13538 1.10134   8
  -3  -4 -17 8.00789 3.08326  11
  -3   4 -17 6.13754 3.09728  18
  -3   4 -17 9.84729 2.05240   9
  -3   4 -17 6.25644 2.91351  10
  -3   4 -17 6.27998 2.85583  11
  -4  -4 -17 1.86592 1.49655   9
  -4  -4 -17 -2.5936 2.43478  11
  -4  -4 -17 1.62031 2.47607  10
  -4   4 -17 2.54968 1.66278  10
  -4   4 -17 1.67333 1.56754  11
  -4   4 -17 3.17275 1.99358  18
  -4   4 -17 2.63716 1.25499   9
  -5  -4 -17 3.18516 1.43497  10
  -5   4 -17 0.35284 1.12490  10
  -4  -5  17 24.2566 4.11137  14
  -4  -5  17 23.2625 3.52720  10
  -4   5  17 28.3489 3.43388  15
  -4   5  17 28.0346 3.23688  10
  -3  -5  17 11.0743 2.23939   9
  -3  -5  17 4.24657 3.31991  10
  -3  -5  17 6.66164 2.89771  14
  -3   5  17 7.91852 2.27990  16
  -3   5  17 7.66082 2.83764  10
  -3   5  17 5.30667 2.03746  15
  -3   5  17 5.12932 1.43102   9
  -2  -5  17 81.3233 10.7357  14
  -2  -5  17 89.9626 7.77035   8
  -2  -5  17 102.445 9.71188   9
  -2   5  17 87.8114 9.43223  15
  -2   5  17 91.2630 9.37299  10
  -2   5  17 90.4552 8.77482   9
  -2   5  17 96.1832 10.2348  16
  -1  -5  17 15.7829 4.66841   9
  -1  -5  17 30.4056 4.45339  14
  -1  -5  17 22.7152 3.48870   8
  -1   5  17 26.1141 3.02359   8
  -1   5  17 21.9456 4.11408   9
   0  -5  17 19.4482 4.06325   8
   0   5  17 24.0862 3.44279   8
   0   5 -17 21.2909 3.63057   8
  -1  -5 -17 52.8503 5.67276   8
   1   5  17 49.8475 5.66490   8
  -1   5 -17 55.4929 5.50327   8
  -1   5 -17 44.4835 6.18278  18
  -2  -5 -17 20.3501 2.78651   8
  -2   5 -17 20.0408 2.52256   8
  -2   5 -17 18.4187 3.67722   9
  -2   5 -17 22.1372 3.85108  18
  -3  -5 -17 33.7906 4.18488   9
  -3  -5 -17 26.5221 4.75179  12
  -3   5 -17 47.1082 5.40666  18
  -3   5 -17 38.5169 4.25766   9
  -3   5 -17 32.2516 4.54564  10
  -4  -5 -17 1.37441 2.28163  10
  -4  -5 -17 3.40626 2.15986  12
  -4   5 -17 1.62968 2.04499  10
  -4   5 -17 3.39470 2.43520  18
  -4  -6  17 9.55972 3.35081  14
  -4  -6  17 13.6550 2.39714  10
  -3  -6  17 5.56105 2.67607  14
  -3  -6  17 5.12715 3.13016  10
  -3  -6  17 6.31479 1.93942   9
  -3   6  17 5.85960 2.09656  16
  -2  -6  17 4.54087 3.13637   9
  -2  -6  17 6.35749 4.03204  14
  -2   6  17 11.9634 2.59740   9
  -2   6  17 7.08330 2.51587  10
  -2   6  17 13.9797 2.72805  16
  -1  -6  17 4.99454 2.26308   8
  -1  -6  17 2.55927 3.87536  14
  -1  -6  17 3.11412 3.77369   9
  -1   6  17 0.52127 2.91396   9
  -1   6  17 2.52275 1.43932   8
   0  -6  17 3.33842 3.00233   8
   0   6 -17 2.67971 1.82392   8
   0   6  17 0.58430 2.18952   8
   1  -6  17 28.1237 4.39940   8
  -1  -6 -17 34.2373 4.13294   8
  -1   6 -17 41.2706 4.71751  18
   1   6  17 33.2042 4.33729   8
  -1   6 -17 37.1566 3.80284   8
  -2  -6 -17 24.3406 2.98094   8
  -2  -6 -17 24.2595 4.14621   9
  -2   6 -17 28.6934 4.14846  18
  -2   6 -17 24.9325 3.91840   9
  -2   6 -17 27.6013 2.77798   8
  -3  -6 -17 2.25922 1.94644  12
  -3  -6 -17 5.22395 2.15065   9
  -3   6 -17 2.43810 1.88988  10
  -3   6 -17 2.01053 2.69596  18
  -3   6 -17 -0.3323 1.41785   9
  -4  -6 -17 33.0276 4.23761  12
  -4   6 -17 37.0817 4.11222  10
  -3  -7  17 1.89135 3.28414  14
  -3  -7  17 4.26051 2.05177  10
  -3   7  17 4.96843 1.81228  16
  -3   7  17 6.91552 1.56132  10
  -2  -7  17 43.9845 5.76136  14
  -2  -7  17 50.0685 5.71220   9
  -2   7  17 43.1842 4.56160   9
  -2   7  17 46.1586 5.37331  16
  -1  -7  17 8.47163 2.10996   8
  -1  -7  17 4.66598 3.71867   9
  -1  -7  17 9.64943 3.09963  14
  -1   7  17 11.5267 1.61744   8
  -1   7  17 13.3378 2.75369  16
  -1   7  17 9.50989 2.33455   9
   0  -7 -17 58.6065 6.15168   8
   0  -7  17 52.0683 7.02055  14
   0  -7  17 77.7664 6.47539   8
   0   7 -17 59.1011 5.64151   8
   0   7  17 52.1011 5.53298   8
   1  -7  17 31.6642 5.10130   8
  -1  -7 -17 40.8845 4.44957   8
  -1   7 -17 45.7578 4.18316   8
   1   7  17 35.0770 4.12219   8
  -1   7 -17 41.6717 5.11393  18
  -2  -7 -17 36.4861 5.06411   9
  -2  -7 -17 47.2511 4.02619   8
  -2   7 -17 41.7984 3.73949   8
  -2   7 -17 44.8906 5.29240   9
  -2   7 -17 49.1188 5.19468  18
  -3  -7 -17 28.2590 3.35399   9
  -3  -7 -17 30.0791 4.15127  12
  -3   7 -17 34.2145 3.96120  18
  -3   7 -17 32.7570 3.38966   9
  -2  -8  17 2.19035 1.58678   9
  -2  -8  17 5.25796 2.33929  14
  -2   8  17 2.83986 1.58542  16
  -2   8  17 2.58464 1.31632   9
  -1  -8  17 9.78021 3.44985   9
  -1  -8  17 12.0263 3.06983  14
  -1  -8  17 12.9082 1.65368   8
  -1   8  17 19.7823 2.78540  16
  -1   8  17 11.1176 2.62229   9
   0  -8  17 9.68766 2.87713  14
   0  -8 -17 7.57796 2.44011   8
   0  -8  17 8.06438 1.89722   8
   0   8  17 10.8308 1.69836   8
   0   8 -17 7.55562 1.60007   8
   1  -8  17 2.52852 2.04309   8
  -1  -8 -17 1.57139 1.15895   8
  -1   8 -17 3.71003 1.29429   8
  -1   8 -17 3.34136 1.69337  18
   1   8  17 4.32487 1.38064   8
  -2  -8 -17 4.79116 2.71519  12
  -2  -8 -17 3.56958 1.68863   9
  -2   8 -17 4.38753 1.41589   9
  -2   8 -17 2.55692 2.20874  18
  -5   0  18 69.7206 7.15987  15
  -4   0  18 37.4126 4.48353  10
  -4   0  18 31.9554 4.96016  15
  -3   0  18 16.5522 3.25040   9
  -3   0  18 26.0268 4.26032  15
  -3   0  18 22.6161 4.14601  10
  -2   0  18 35.9779 5.65923  10
  -2   0  18 35.1922 4.91762   9
  -2   0  18 36.1247 4.92066  15
  -2   0  18 36.8128 3.67095   8
  -1   0  18 1.25678 2.21809   8
  -1   0  18 3.55841 3.53464   9
   0   0  18 7.16674 3.10293   8
  -1   0 -18 -1.2782 2.36084   8
  -2   0 -18 150.398 14.7016   9
  -2   0 -18 163.599 13.5130   8
  -3   0 -18 6.77210 2.66386  11
  -3   0 -18 5.92262 2.88635   9
  -4   0 -18 17.9537 3.31653  11
  -4   0 -18 17.8940 2.88444  10
  -5   0 -18 45.8275 5.28043  11
  -5   1  18 3.44120 1.64961  15
  -4  -1  18 10.4536 2.03185  10
  -4  -1  18 7.84805 2.62877  14
  -4  -1  18 12.3070 2.78511  15
  -4   1  18 9.82288 1.96322  10
  -4   1  18 11.8104 2.69905  15
  -3  -1  18 -0.2101 1.82441   9
  -3  -1  18 2.33810 2.20728  10
  -3  -1  18 3.22602 3.29361  15
  -3   1  18 1.76070 2.06972  10
  -3   1  18 2.94903 2.94148  15
  -3   1  18 3.48481 1.92622   9
  -2  -1  18 51.7411 6.78868  10
  -2  -1  18 51.1682 6.10545   9
  -2  -1  18 51.0290 6.34152  15
  -2   1  18 60.9932 6.92733  15
  -2   1  18 46.3897 5.88791   9
  -2   1  18 48.2423 6.44838  10
  -2   1  18 47.6281 4.50375   8
  -1  -1  18 7.15069 3.84431   9
  -1  -1  18 7.11314 2.50017   8
  -1   1  18 10.1733 2.50643   8
  -1   1  18 9.60322 3.62122   9
   0  -1  18 9.69156 2.47997   8
   0   1  18 15.8626 3.40319   8
  -1  -1 -18 10.2485 2.12908   8
  -1   1 -18 5.13795 2.68593   8
  -2  -1 -18 22.2350 3.11754   8
  -2  -1 -18 27.1841 4.41258   9
  -2   1 -18 26.3795 3.14931   8
  -2   1 -18 25.7322 4.30937   9
  -3  -1 -18 7.86696 3.35049  11
  -3  -1 -18 5.73165 2.91423   9
  -3   1 -18 9.08129 2.82795   9
  -3   1 -18 6.73775 1.07061   8
  -3   1 -18 11.9866 3.53284  11
  -4  -1 -18 9.38085 2.54066  11
  -4  -1 -18 8.28059 2.22143  10
  -4   1 -18 10.4860 2.80772  10
  -4   1 -18 12.2326 3.30283  11
  -5  -1 -18 -0.1810 1.54398  11
  -5  -1 -18 -0.2107 1.41578  10
  -5   1 -18 1.25630 1.58814  11
  -5   2  18 17.3359 2.78549  15
  -4  -2  18 10.1781 3.56474  14
  -4  -2  18 13.3806 2.69311  10
  -4  -2  18 10.1201 3.42841  15
  -4   2  18 17.0428 2.66257  10
  -4   2  18 15.2277 2.68857  15
  -3  -2  18 53.0768 5.18620   9
  -3  -2  18 42.7664 6.06476  15
  -3  -2  18 38.6514 5.71106  10
  -3  -2  18 50.1433 6.31883  14
  -3   2  18 40.8054 5.64080  15
  -3   2  18 50.7701 5.19054   9
  -3   2  18 40.6849 5.57161  10
  -2  -2  18 28.2131 5.78633  10
  -2  -2  18 38.6243 4.98377   9
  -2   2  18 54.5794 5.84465   9
  -2   2  18 40.6073 3.71279   8
  -2   2  18 41.9876 5.66638  15
  -2   2  18 43.8928 5.83296  10
  -1  -2  18 4.25129 2.29063   8
  -1  -2  18 -1.1096 3.56795   9
  -1   2  18 6.78654 3.42786   9
  -1   2  18 1.20736 2.11634  15
  -1   2  18 2.34097 2.06797   8
   0  -2  18 104.204 10.2850   8
   0   2  18 110.466 10.1443   8
  -1  -2 -18 10.3375 2.86101   8
  -1   2 -18 9.31630 2.66856   8
  -2  -2 -18 206.997 19.3553   9
  -2  -2 -18 212.999 17.8036   8
  -2  -2 -18 209.075 21.6896  11
  -2   2 -18 216.788 17.7688   8
  -2   2 -18 208.745 19.4869   9
  -3  -2 -18 12.6663 1.58581   8
  -3  -2 -18 22.0686 3.83212  11
  -3  -2 -18 19.1880 3.35811   9
  -3   2 -18 17.0332 3.09789   9
  -3   2 -18 20.8872 3.28537  11
  -4  -2 -18 37.5051 4.33957  10
  -4  -2 -18 39.4115 3.88224   9
  -4  -2 -18 37.9345 4.75303  11
  -4   2 -18 38.1296 3.74229   9
  -4   2 -18 26.4111 4.38781  10
  -4   2 -18 35.8163 5.00552  11
  -5  -2 -18 6.93977 1.30455  10
  -5  -2 -18 6.79785 2.37649  11
  -5   2 -18 6.31140 1.21554  10
  -4  -3  18 0.53480 2.07724  10
  -4  -3  18 3.08384 2.13642  14
  -4   3  18 -0.3267 1.70044  10
  -4   3  18 -0.5034 1.69692  15
  -3  -3  18 4.60025 2.06588   9
  -3  -3  18 7.46633 3.55420  14
  -3  -3  18 -0.0466 3.05770  15
  -3  -3  18 5.21076 3.30505  10
  -3   3  18 2.94347 1.93606   9
  -3   3  18 1.33321 1.86899  10
  -3   3  18 -6.0861 2.51550  15
  -2  -3  18 1.29833 1.11606   8
  -2  -3  18 -1.0582 2.07772   9
  -2  -3  18 2.73641 3.49488  14
  -2   3  18 -1.4601 3.19559  10
  -2   3  18 6.78797 2.71663   9
  -2   3  18 -0.9730 1.93485  15
  -1  -3  18 -3.3581 3.46944   9
  -1  -3  18 -1.1469 2.11727   8
  -1   3  18 0.73259 2.81351  15
  -1   3  18 -3.4522 3.13191   9
  -1   3  18 -1.1541 1.86556   8
   0  -3  18 5.52797 3.25848   8
  -1  -3 -18 1.26465 2.57805   8
  -1   3 -18 3.27207 2.37252   8
  -2  -3 -18 7.95221 1.96251   8
  -2  -3 -18 7.12674 3.10681  11
  -2  -3 -18 -1.6164 3.25322   9
  -2   3 -18 7.96083 3.02730   9
  -2   3 -18 3.35093 1.78020   8
  -3  -3 -18 4.68068 2.11249   9
  -3  -3 -18 7.70335 2.47854  11
  -3   3 -18 10.2920 2.62895   9
  -3   3 -18 2.66466 2.93212  11
  -4  -3 -18 -1.5165 2.20255  10
  -4  -3 -18 0.87142 1.29298   9
  -4  -3 -18 1.32218 2.40163  11
  -4   3 -18 0.20619 2.33279  11
  -4   3 -18 2.01652 1.64192  10
  -4   3 -18 2.13653 1.08449   9
  -4  -4  18 18.2786 2.82932  10
  -4  -4  18 16.0984 3.07667  14
  -4   4  18 21.7028 3.13517  15
  -3  -4  18 44.8599 5.78318  10
  -3  -4  18 44.3850 6.08106  14
  -3  -4  18 52.0225 5.23827   9
  -3   4  18 51.2646 5.48685  10
  -3   4  18 51.3324 4.82063   9
  -3   4  18 48.1988 6.09234  15
  -2  -4  18 17.4305 3.74330   9
  -2  -4  18 12.8753 3.03957  15
  -2  -4  18 14.3839 3.37631  14
  -2   4  18 15.6398 2.91735  15
  -2   4  18 23.3269 3.44286  10
  -2   4  18 18.3483 3.24637   9
  -2   4  18 14.8383 3.02657  16
  -1  -4  18 41.6313 4.76067   8
  -1  -4  18 38.4417 6.17791   9
  -1   4  18 43.7361 4.48958   8
  -1   4  18 47.8082 5.39043   9
   0  -4  18 64.2228 7.51689   8
   0   4  18 74.4526 7.05864   8
   0   4 -18 71.9563 7.20290   8
  -1  -4 -18 16.4008 2.92469   8
   1  -4  18 15.6669 3.13058   8
  -1   4 -18 9.80413 2.65345   8
   1   4  18 6.37299 3.12701   8
  -2  -4 -18 79.1181 6.67123   8
  -2  -4 -18 72.8139 8.14987   9
  -2   4 -18 68.0548 6.49964   8
  -2   4 -18 68.3216 7.33863   9
  -3  -4 -18 7.63866 2.68766  12
  -3  -4 -18 9.37866 2.57017   9
  -3  -4 -18 6.03085 2.98643  11
  -3   4 -18 8.47983 2.10448  11
  -3   4 -18 11.4392 2.54844   9
  -4  -4 -18 16.0988 2.38199  10
  -4  -4 -18 9.80338 2.82352  11
  -4  -4 -18 17.4947 1.88269   9
  -4   4 -18 9.43676 2.15732  10
  -4  -5  18 1.24716 2.84227  14
  -4  -5  18 1.74618 1.19895  10
  -3  -5  18 1.01054 2.51676  14
  -3  -5  18 4.02075 1.95197   9
  -3  -5  18 5.06963 3.01671  10
  -3   5  18 3.40976 2.60808  16
  -3   5  18 5.44146 2.27835  15
  -3   5  18 7.49192 1.99838  10
  -2  -5  18 4.87550 2.93544   9
  -2  -5  18 5.07096 2.65358  14
  -2   5  18 1.14130 2.10879  10
  -2   5  18 1.12026 2.26227   9
  -2   5  18 3.30142 2.11699  16
  -1  -5  18 3.14212 2.05424   8
  -1  -5  18 2.03556 3.58868  14
  -1  -5  18 5.84210 3.83705   9
  -1   5  18 3.85891 3.14549   9
  -1   5  18 8.17953 1.64669   8
   0  -5  18 3.16448 2.85978   8
   0   5  18 0.20589 2.21541   8
   0   5 -18 0.87468 2.38620   8
   1  -5  18 20.5676 3.42496   8
  -1  -5 -18 19.3429 2.78487   8
   1   5  18 21.3150 3.36727   8
  -1   5 -18 15.9526 2.90131   8
  -2  -5 -18 0.18770 1.10521   8
  -2  -5 -18 5.15800 2.92513   9
  -2   5 -18 -0.1141 1.23121   8
  -2   5 -18 2.73077 1.97275   9
  -3  -5 -18 6.22488 2.03587  12
  -3  -5 -18 6.67048 2.26517   9
  -3   5 -18 8.13624 1.69879   9
  -3   5 -18 5.88065 2.97040  18
  -4  -5 -18 2.24174 1.71389  10
  -4   5 -18 0.18596 1.38536  10
  -3  -6  18 20.3958 3.00323  10
  -3  -6  18 18.8313 3.30347  14
  -3   6  18 14.3441 2.66489  10
  -3   6  18 18.9251 2.71814  16
  -2  -6  18 22.1107 3.71078  14
  -2  -6  18 23.5613 3.29603   9
  -2   6  18 24.6171 3.15475   9
  -2   6  18 22.8120 3.78418  16
  -1  -6  18 5.07236 2.53353  14
  -1  -6  18 -0.1639 1.64021   8
  -1  -6  18 -0.1594 3.42116   9
  -1   6  18 0.26631 1.93611   9
   0  -6 -18 13.7821 2.95388   8
   0  -6  18 16.6821 2.83002   8
   0   6  18 20.6063 2.41602   8
   0   6 -18 17.2695 2.92255   8
   1  -6  18 3.83467 2.29271   8
  -1  -6 -18 3.61949 1.63263   8
   1   6  18 0.85456 1.57796   8
  -1   6 -18 4.47449 1.95699   8
  -2   6 -18 35.3673 4.10920   9
  -2   6 -18 34.8240 4.40222  18
  -3  -6 -18 2.95565 1.36082   9
  -3  -6 -18 3.55416 2.34144  12
  -3   6 -18 4.10824 1.55312   9
  -2  -7  18 4.82473 2.99006  14
  -2  -7  18 3.20966 1.68244   9
  -2   7  18 1.59058 1.77429  10
  -2   7  18 2.30798 2.40897  16
  -2   7  18 1.14739 0.97505   9
  -1  -7  18 4.08190 3.35049  14
  -1  -7  18 4.41939 3.41627   9
  -1   7  18 5.12050 2.69187  16
  -1   7  18 5.01426 1.89442   9
   0  -7 -18 1.38529 1.66762   8
   0  -7  18 -0.1882 2.29039  14
   0  -7  18 1.48100 1.59901   8
   0   7 -18 -2.2553 1.27390   8
   0   7  18 1.03681 1.09198   8
   1  -7  18 3.83813 2.13775   8
  -1  -7 -18 2.92038 1.84847   8
  -1   7 -18 2.85021 1.07694   8
  -1   7 -18 2.04219 2.31770  18
   1   7  18 0.56049 1.82098   8
  -2  -7 -18 -2.0188 1.75249  12
  -2  -7 -18 4.53010 1.74351   9
  -2   7 -18 1.04521 1.55554  18
   2   7  18 -2.2351 1.47991   8
  -2   7 -18 -0.1116 1.50829   9
  -1   8  18 1.63769 1.48655  16
  -1   8  18 -1.3951 1.22656   9
   0  -8  18 65.4986 5.73302   8
   0  -8 -18 59.8439 5.60045   8
   0   8 -18 63.9365 5.65365   8
   0   8  18 62.5773 5.33912   8
   0   8  18 61.6771 6.75348  16
  -1  -8 -18 0.72597 1.15136   8
  -1   8 -18 1.50924 0.98856   8
   1   8  18 0.19895 0.97917   8
  -4   0  19 -0.7655 1.73222  10
  -4   0  19 0.39065 1.70868  15
  -3   0  19 -0.2650 2.81058  15
  -3   0  19 0.75204 1.66380   9
  -3   0  19 -5.1404 2.68597  10
  -2   0  19 -2.2392 2.76951  15
  -2   0  19 2.26017 3.43738  10
  -2   0  19 0.80063 2.00056   9
  -1   0  19 -1.5074 3.36227   9
  -1   0  19 -3.2555 1.90021   8
   0   0  19 -0.3303 2.72489   8
  -1   0 -19 0.42285 1.69225   8
   1   0  19 3.29357 3.32121   8
  -2   0 -19 0.76016 3.22157   9
  -2   0 -19 1.22475 1.79247   8
  -3   0 -19 1.88180 2.98373  11
  -3   0 -19 -1.4002 2.32151   9
  -4   0 -19 1.81702 1.58020  10
  -4   0 -19 -1.0005 2.46765  11
  -4  -1  19 7.44791 2.69258  15
  -4  -1  19 5.84301 2.07841  10
  -4   1  19 7.69300 2.02498  10
  -4   1  19 9.72214 2.76351  15
  -3  -1  19 4.95451 2.25039  15
  -3  -1  19 1.11876 2.18611  10
  -3  -1  19 7.99964 1.89007   9
  -3   1  19 3.01465 2.80403  10
  -3   1  19 6.09688 2.22697  15
  -3   1  19 4.85966 1.71170   9
  -2  -1  19 36.3286 4.65599   9
  -2  -1  19 35.3335 4.96183  15
  -2  -1  19 28.0243 5.17199  10
  -2   1  19 37.9165 4.30121   9
  -2   1  19 24.3251 5.02559  10
  -2   1  19 28.3833 4.86607  15
  -1  -1  19 134.202 13.5968   9
  -1  -1  19 136.443 11.8150   8
  -1   1  19 133.790 12.9915   9
   0  -1  19 -2.2028 2.70150   8
   0   1  19 4.55567 2.78109   8
   1  -1  19 40.9883 5.92726   8
  -1  -1 -19 53.3626 5.68829   8
   1   1  19 47.6131 5.61461   8
  -1   1 -19 58.7956 5.64771   8
  -2  -1 -19 9.17460 3.45764   9
  -2  -1 -19 9.30575 2.04405   8
  -2   1 -19 12.7165 3.44449   9
  -2   1 -19 8.81969 2.01176   8
  -3  -1 -19 3.28864 2.46282   9
  -3  -1 -19 -2.4230 1.95382  11
  -3   1 -19 1.64870 2.33867   9
  -3   1 -19 -0.2720 1.85404  11
  -4  -1 -19 -0.5817 1.20241   9
  -4  -1 -19 0.91150 2.62681  11
  -4  -1 -19 0.44183 1.48095  10
  -4   1 -19 -0.7034 1.68271  11
  -4   1 -19 1.39494 1.58636  10
  -4  -2  19 4.34498 1.77725  10
  -4  -2  19 4.46413 2.44810  15
  -4   2  19 3.62790 1.26513  10
  -4   2  19 1.37766 1.79741  15
  -3  -2  19 1.44484 1.99205  15
  -3  -2  19 2.33711 1.65789   9
  -3  -2  19 1.72776 2.01429  10
  -3   2  19 -2.4072 1.74054  10
  -3   2  19 3.66753 1.40035   9
  -3   2  19 1.96757 2.54981  15
  -2  -2  19 5.59778 2.97664   9
  -2  -2  19 5.94629 2.44321  15
  -2   2  19 0.87488 2.86926  15
  -2   2  19 4.88995 3.54892  10
  -2   2  19 4.85842 2.69456   9
  -1  -2  19 0.49398 1.99549   8
  -1  -2  19 0.93812 3.52013   9
  -1   2  19 0.58883 3.25123   9
  -1   2  19 2.92482 2.17366   8
  -1   2  19 1.43659 2.76581  15
   0  -2  19 4.46370 2.10618   8
  -1  -2 -19 3.85083 2.51930   8
   1  -2  19 0.30248 3.31922   8
   1   2  19 2.01314 3.06091   8
  -1   2 -19 6.71727 2.50598   8
  -2  -2 -19 22.3598 3.51031  11
  -2  -2 -19 18.6489 2.64071   8
  -2  -2 -19 17.2527 3.87483   9
  -2   2 -19 18.9227 2.51680   8
  -2   2 -19 18.2756 3.22000   9
  -3  -2 -19 4.69393 2.09114  11
  -3  -2 -19 8.82815 2.59734   9
  -3   2 -19 -1.6990 2.20158   9
  -3   2 -19 -0.7506 2.74303  11
  -4  -2 -19 6.24908 1.68884  10
  -4  -2 -19 7.01051 2.61066  11
  -4  -2 -19 5.83118 1.38403   9
  -4   2 -19 8.92378 2.11830  11
  -4   2 -19 5.20359 1.75362  10
  -4  -3  19 10.0289 1.94953  10
  -4   3  19 3.95569 1.23092  10
  -4   3  19 5.72391 2.18992  15
  -3  -3  19 34.6567 4.71339  14
  -3  -3  19 39.0681 4.70006  10
  -3  -3  19 35.2418 4.65807  15
  -3  -3  19 38.0626 4.19046   9
  -3   3  19 40.2384 3.79923   9
  -3   3  19 34.9686 4.61337  15
  -3   3  19 33.8572 4.66780  10
  -2  -3  19 -0.0261 2.79433   9
  -2  -3  19 2.13909 2.91272  15
  -2   3  19 2.00058 2.03497  15
  -2   3  19 6.82408 2.52687  10
  -2   3  19 3.19107 1.84712   9
  -1  -3  19 16.1478 4.40223   9
  -1  -3  19 21.6917 3.07510   8
  -1   3  19 18.1711 3.76749  15
  -1   3  19 23.9227 2.75634   8
  -1   3  19 26.2333 4.29101   9
   0  -3  19 47.6438 5.15419   8
   0   3  19 36.2371 5.07918  15
   0   3  19 37.8839 4.61677   8
   0   3 -19 49.6800 4.70917   8
   1  -3  19 9.70430 3.79532   8
  -1  -3 -19 15.3007 3.51775  11
  -1  -3 -19 12.3646 2.36625   8
  -1   3 -19 19.2488 2.45300   8
  -2  -3 -19 13.3727 3.54821   9
  -2  -3 -19 6.21241 1.83447   8
  -2  -3 -19 4.70251 2.10910  11
  -2   3 -19 4.65794 1.58750   8
  -2   3 -19 2.79586 2.94695   9
  -3  -3 -19 7.96270 2.91556  11
  -3   3 -19 13.5967 2.26361   9
  -3   3 -19 16.0506 2.69616  11
  -4  -3 -19 30.8028 3.81591  10
  -4  -3 -19 35.6713 3.14214   9
  -4  -3 -19 36.0702 4.48893  11
  -4   3 -19 27.0570 3.90404  10
  -4   3 -19 32.4990 4.03612  11
  -4  -4  19 1.64177 1.60868  10
  -4   4  19 0.54248 1.08969  10
  -3  -4  19 3.75144 1.61759   9
  -3  -4  19 2.41916 1.89041  10
  -3  -4  19 3.37655 3.00482  14
  -3   4  19 1.70138 2.38041  10
  -3   4  19 0.25939 1.61883  15
  -2  -4  19 -0.4960 2.76923  15
  -2  -4  19 0.33341 1.92152   9
  -2   4  19 -0.9295 2.25956   9
  -2   4  19 0.99051 3.14859  10
  -2   4  19 -3.6823 2.28050  15
  -2   4  19 -0.6878 2.48071  16
  -1  -4  19 2.26495 1.89535   8
  -1  -4  19 0.29252 2.58852   9
  -1   4  19 -0.3595 1.28031   8
  -1   4  19 -1.2478 1.69531  15
  -1   4  19 2.85003 3.04177   9
   0  -4 -19 0.55672 1.96242   8
   0  -4  19 2.44984 1.96878   8
   0   4 -19 1.55985 1.77696   8
   0   4  19 3.36516 2.19315   8
  -1  -4 -19 4.07278 2.39495   8
   1  -4  19 6.56943 3.36769   8
   1   4  19 2.10508 2.55198   8
  -1   4 -19 6.24185 1.70320   8
  -2  -4 -19 2.18693 1.30039   8
  -2   4 -19 -4.8043 2.60342   9
  -2   4 -19 0.52237 1.11107   8
  -3  -4 -19 3.91448 1.61276   9
  -3   4 -19 2.07481 1.40473   9
  -3   4 -19 2.95636 2.32201  11
  -3  -5  19 24.4160 3.35322  14
  -3  -5  19 18.1710 2.99257  10
  -2  -5  19 5.65834 3.28903  14
  -2  -5  19 -1.4078 2.50766   9
  -2   5  19 0.70594 1.65454  16
  -2   5  19 0.43474 2.86700  10
  -2   5  19 1.51450 1.39514   9
  -1  -5  19 16.4521 2.38105   8
  -1  -5  19 16.7524 4.00234   9
  -1   5  19 23.6621 3.20528   9
   0  -5 -19 16.2853 2.61064   8
   0  -5  19 12.5240 3.15538   8
   0   5 -19 17.8822 2.99377   8
   0   5  19 16.6290 2.59506   8
   1  -5  19 106.722 9.27982   8
  -1  -5 -19 83.3332 8.49552   8
  -1   5 -19 99.4983 8.51804   8
   1   5  19 99.1715 8.60876   8
  -2  -5 -19 3.10651 1.94829   9
  -2   5 -19 3.83663 1.74976  11
  -2   5 -19 1.50009 2.54952   9
  -3  -5 -19 1.92518 1.39592   9
  -3  -5 -19 3.66152 1.62623  12
  -3   5 -19 5.25066 1.26320   9
  -2  -6  19 4.85895 3.05656  14
  -2  -6  19 3.30885 2.29316   9
  -2   6  19 2.53968 1.57076   9
  -2   6  19 4.71453 2.32583  16
  -1  -6  19 4.01842 2.30137   9
  -1   6  19 2.80577 1.88755  16
  -1   6  19 1.61385 1.84770   9
   0  -6  19 -2.0627 2.16953   8
   0  -6 -19 -0.3455 1.60524   8
   0   6  19 1.83518 1.15001   8
   0   6 -19 0.50641 1.44870   8
   1  -6  19 5.70622 2.96417   8
  -1  -6 -19 8.07384 1.60380   8
   1   6  19 6.43895 2.20467   8
  -1   6 -19 8.92669 1.42916   8
  -2  -6 -19 3.97203 2.45279  12
  -2  -6 -19 4.11957 1.72373   9
  -2  -6 -19 0.70545 0.76672   8
  -2   6 -19 2.74832 2.23115   9
   2   6  19 1.16406 1.60715   8
  -1  -7  19 10.0346 3.28340   9
  -1   7  19 18.6438 2.30007   9
  -1   7  19 14.2262 2.89495  16
   0  -7  19 24.2454 2.97425   8
   0   7 -19 27.0177 2.79024   8
   1  -7  19 4.85439 2.37328   8
  -1  -7 -19 5.25904 1.14312   8
   1   7  19 6.61138 1.71150   8
  -1   7 -19 6.44390 1.28680   8
  -4   0  20 9.22552 2.43716  15
  -3   0  20 54.3240 6.28571  15
  -3   0  20 58.7364 6.04381  10
  -2   0  20 0.39169 2.46733   9
  -2   0  20 7.54169 3.45873  10
  -2   0  20 1.19207 1.95776  15
   0   0 -20 0.30517 2.61038   8
   0   0  20 -1.4931 1.75452   8
  -1   0 -20 46.6929 4.59298   8
   1   0  20 39.9731 5.30623   8
  -2   0 -20 0.49938 1.43753   8
  -2   0 -20 0.39940 3.02003   9
  -3   0 -20 26.2317 3.36956   9
  -3   0 -20 33.2170 4.15851  11
  -4   0 -20 27.5185 4.27207  10
  -4   0 -20 46.6292 4.60412  11
  -4   1  20 3.53046 2.04448  15
  -4   1  20 0.45894 1.28656  10
  -3  -1  20 5.23124 2.70905  15
  -3  -1  20 3.02748 2.64421  10
  -3   1  20 4.76058 1.98869  10
  -3   1  20 6.23011 1.44790   9
  -3   1  20 5.48244 2.08576  15
  -2  -1  20 1.48626 2.76849   9
  -2  -1  20 8.28747 2.50714  15
  -2   1  20 7.37308 2.06304   9
  -2   1  20 10.0210 2.68303  10
  -2   1  20 4.86917 2.30831  15
  -1  -1  20 9.93939 2.07600   8
  -1  -1  20 4.23478 3.65102   9
  -1   1  20 11.8564 1.91286   8
  -1   1  20 7.68828 2.47373  15
  -1   1  20 9.61716 2.77058   9
   0  -1  20 14.2515 3.07375   8
   0  -1 -20 10.3164 2.52907   8
   0   1  20 16.6047 3.02407   8
   0   1 -20 14.9305 2.59961   8
  -1  -1 -20 3.97984 2.42494   8
   1  -1  20 1.27811 2.19083   8
  -1   1 -20 6.24175 2.33632   8
   1   1  20 1.49495 2.09950   8
  -2  -1 -20 3.43472 2.25324  11
  -2  -1 -20 3.57221 1.59283   8
  -2  -1 -20 5.10104 2.38274   9
  -2   1 -20 0.54966 2.94870   9
  -2   1 -20 3.33632 1.42503   8
  -3  -1 -20 0.86515 2.47689  11
  -3  -1 -20 3.02539 2.14174   9
  -3   1 -20 5.06241 2.08653  11
  -3   1 -20 -0.9990 2.10504   9
  -4  -1 -20 3.22808 2.19492  11
  -4  -1 -20 -0.0885 1.38718  10
  -4   1 -20 -0.1833 2.23519  11
  -4   1 -20 0.45401 1.44560  10
  -4  -2  20 9.35985 1.77481  10
  -4   2  20 8.01362 1.47736  10
  -3  -2  20 30.7305 3.14223   9
  -3  -2  20 30.3614 3.93779  15
  -3   2  20 36.4611 4.15623  15
  -3   2  20 35.1218 3.88559  10
  -3   2  20 26.6465 2.92307   9
  -2  -2  20 -0.6082 2.61969   9
  -2  -2  20 0.26276 1.89208  15
  -2   2  20 -0.3562 1.88009  15
  -2   2  20 2.01037 2.37059  10
  -2   2  20 1.52078 2.38989   9
  -1  -2  20 6.67666 3.59235   9
  -1  -2  20 4.76400 1.82513   8
  -1   2  20 9.77391 2.59128   9
  -1   2  20 5.81340 1.60086   8
  -1   2  20 3.68650 2.27098  15
   0  -2  20 13.8071 2.91811   8
   0  -2 -20 5.70485 2.30139   8
   0   2  20 11.7213 2.01588   8
   0   2 -20 8.17920 2.23287   8
   1  -2  20 8.13085 2.41728   8
  -1  -2 -20 3.53476 2.37196   8
  -1   2 -20 8.82291 2.43044   8
  -2  -2 -20 4.66634 1.54453   8
  -2  -2 -20 2.25177 2.26152   9
  -2  -2 -20 6.91901 2.69215  11
  -2   2 -20 2.94495 1.38978   8
  -2   2 -20 3.67196 2.91528   9
  -3  -2 -20 22.1590 3.91385  11
  -3   2 -20 34.9273 3.99332  11
  -3   2 -20 26.2059 3.26437   9
  -3  -3  20 10.2821 2.71345  15
  -3  -3  20 7.95076 2.15805  10
  -3  -3  20 9.86947 1.38882   9
  -3   3  20 10.4001 2.61287  10
  -3   3  20 9.48968 2.56874  15
  -2  -3  20 0.93192 1.89173  15
  -2  -3  20 -0.8184 1.72881   9
  -2   3  20 -0.5742 3.05287  10
  -2   3  20 -1.3102 1.67553  15
  -2   3  20 2.63050 1.60047   9
  -1  -3  20 9.08045 2.80128   9
  -1  -3  20 7.14252 1.78884   8
  -1   3  20 10.9627 1.63812   8
  -1   3  20 12.0176 2.47492  15
  -1   3  20 12.1318 3.29127   9
   0  -3 -20 4.16205 2.68520   8
   0  -3  20 0.71153 1.74611   8
   0   3  20 2.95980 2.05467   8
   0   3 -20 2.02684 2.50949   8
   0   3  20 4.59127 1.92752  15
   1  -3  20 2.79059 2.99066   8
  -1  -3 -20 12.3428 2.53031   8
   1   3  20 10.3320 2.73771   8
  -1   3 -20 8.07915 2.26523   8
  -2  -3 -20 1.25000 1.09230   8
  -2  -3 -20 2.32227 2.48380  11
  -2  -3 -20 5.17287 2.22190   9
  -2   3 -20 0.28666 1.84596   9
  -2   3 -20 4.39981 1.33787   8
  -3  -3 -20 1.88499 2.13717  11
  -3  -3 -20 3.20761 1.96231   9
  -3   3 -20 6.26335 1.91628   9
  -3   3 -20 2.87662 1.75424  11
  -3  -4  20 20.8102 2.98888  10
  -3   4  20 26.0888 3.17262  15
  -3   4  20 20.5334 3.12533  10
  -2  -4  20 0.79113 1.69832   9
  -2  -4  20 -1.5153 2.26378  15
  -2   4  20 2.56599 1.37814   9
  -2   4  20 5.21845 2.29806  15
  -2   4  20 0.82491 2.17918  10
  -1  -4  20 67.1918 6.11781   8
  -1  -4  20 79.7603 7.97453   9
  -1   4  20 69.0215 7.08282   9
  -1   4  20 69.1259 7.68783  16
  -1   4  20 68.4273 5.90725   8
   0  -4  20 9.53836 2.01708   8
   0  -4 -20 7.16138 2.70114   8
   0   4  20 10.0308 2.08900   8
   0   4 -20 5.61734 2.37929   8
   1  -4  20 59.6938 6.24986   8
  -1  -4 -20 69.1993 6.14947   8
   1   4  20 63.0722 5.98664   8
  -1   4 -20 62.7262 5.97974   8
  -2  -4 -20 4.83191 1.17250   8
  -2   4 -20 6.98020 2.00484  11
  -2   4 -20 4.76997 1.07944   8
  -2   4 -20 8.30072 2.05743   9
  -3  -4 -20 4.59910 1.82519   9
  -3   4 -20 7.95011 1.40760   9
  -2  -5  20 -2.9831 1.98944   9
  -2   5  20 0.49752 1.40255   9
  -2   5  20 1.50828 2.07438  10
  -1  -5  20 -1.8710 2.22163  15
  -1  -5  20 0.84433 2.14801   9
  -1  -5  20 2.00492 0.92440   8
  -1   5  20 -0.8865 1.68161   9
  -1   5  20 1.82248 2.33061  16
   0  -5 -20 0.73085 2.37714   8
   0  -5  20 2.09883 2.00041   8
   0   5  20 0.48084 1.54468   8
   0   5 -20 0.35185 1.38452   8
  -1  -5 -20 0.20161 1.70624   8
   1  -5  20 -1.0558 1.71644   8
  -1   5 -20 0.16859 1.47938   8
   1   5  20 2.22502 1.40643   8
  -2  -5 -20 1.06104 2.31154   9
  -2  -5 -20 4.60209 2.28589  12
   2   5  20 2.36426 1.50791   8
  -2   5 -20 0.13151 1.60782   9
  -1  -6  20 22.4900 3.38338   9
  -1   6  20 28.8341 3.66404  16
  -1   6  20 26.9774 3.19152   9
   0  -6 -20 4.52654 1.52056   8
   0  -6  20 5.00283 1.61143   8
   0   6 -20 1.72826 1.71086   8
   1  -6  20 20.5877 2.55320   8
  -1  -6 -20 18.4758 2.05761   8
   1   6  20 14.9245 2.06718   8
  -1   6 -20 21.4505 2.13064   8
  -3   0  21 -1.4897 1.41888  15
  -3   0  21 -1.9389 2.12583  10
  -2   0  21 -0.7586 1.51426   9
  -2   0  21 1.21642 2.50598  15
  -1   0  21 0.51887 1.84742  15
  -1   0  21 2.43555 2.98246   9
   0   0 -21 2.42888 2.41589   8
   0   0  21 1.05100 2.14205   8
  -1   0 -21 1.61548 1.96859   8
   1   0  21 -2.3586 2.62197   8
  -2   0 -21 -0.0946 2.73134  11
  -2   0 -21 -0.6484 2.75762   9
  -3   0 -21 0.81181 1.59622  11
  -3  -1  21 49.0907 5.11167  10
  -3  -1  21 47.4364 5.59874  15
  -3   1  21 47.6214 5.31770  15
  -2  -1  21 18.3855 2.93714  15
  -2  -1  21 19.2415 3.02369   9
  -2   1  21 17.9654 2.94767  15
  -2   1  21 19.3611 2.94258   9
  -2   1  21 12.9697 3.08148  10
  -1  -1  21 22.7344 3.39863  15
  -1  -1  21 20.4585 3.33591   9
  -1   1  21 17.7691 3.09462  15
  -1   1  21 21.4098 2.34933   8
  -1   1  21 15.7909 3.19067   9
   0  -1  21 22.0673 3.17750   8
   0  -1 -21 21.0153 2.99898   8
   0   1 -21 23.6208 3.38027   8
   1  -1  21 68.3609 6.62437   8
  -1  -1 -21 60.9393 5.80434   8
  -1   1 -21 62.7765 5.80403   8
  -2  -1 -21 3.05985 2.08171   9
  -2  -1 -21 4.51511 1.86107  11
  -2   1 -21 2.60443 1.18072   8
  -2   1 -21 1.97994 1.85750  11
  -2   1 -21 6.63249 2.75888   9
  -3  -1 -21 19.8177 2.59509   9
  -3  -1 -21 24.6417 3.48577  11
  -3   1 -21 24.8802 3.30116  11
  -3  -2  21 4.39282 1.75785  10
  -3  -2  21 5.88646 1.67257  15
  -3   2  21 3.72739 1.66329  15
  -3   2  21 9.77179 2.22533  10
  -2  -2  21 4.89413 2.20698   9
  -2  -2  21 3.98819 1.81156  15
  -2   2  21 4.18664 2.34635  10
  -2   2  21 3.26693 1.49527   9
  -2   2  21 7.44891 2.06623  15
  -1  -2  21 1.65832 2.19950   9
  -1   2  21 0.29788 0.92244   8
  -1   2  21 -0.0965 1.90301   9
  -1   2  21 1.52909 1.75377  15
   0  -2  21 1.56860 2.13291   8
   0  -2 -21 2.83732 1.83521   8
   0   2  21 2.02660 1.84041   8
   0   2  21 3.72145 1.82946  15
   0   2 -21 4.93920 2.36648   8
   1  -2  21 6.58249 2.79485   8
  -1  -2 -21 8.59792 2.22220   8
  -1  -2 -21 8.24418 2.66362  11
  -1   2 -21 5.62153 2.04651   8
   1   2  21 10.2741 2.46504   8
  -2  -2 -21 1.74678 0.78963   8
  -2  -2 -21 4.11334 2.02488   9
  -2  -2 -21 2.54124 2.29840  11
  -2   2 -21 0.68984 2.56558  11
  -2   2 -21 1.19228 1.79562   9
  -2   2 -21 -0.0183 0.88573   8
  -3  -2 -21 1.37747 1.13189   9
  -3   2 -21 1.44967 1.09093   9
  -3   2 -21 2.63474 1.62737  11
  -2  -3  21 4.83087 1.62325   9
  -2  -3  21 0.93252 2.21556  15
  -2   3  21 2.83859 1.64202  15
  -2   3  21 4.09265 2.99310  10
  -2   3  21 6.96773 1.79600   9
  -1  -3  21 53.7910 5.86036  15
  -1  -3  21 43.1806 5.95315   9
  -1   3  21 56.8164 5.75601  15
   0  -3 -21 13.0509 2.22080   8
   0  -3  21 11.9513 2.02960   8
   0   3  21 11.0269 1.75848   8
   0   3 -21 11.0328 2.08780   8
  -1  -3 -21 66.7671 6.20445   8
   1  -3  21 68.0478 6.54916   8
  -1   3 -21 75.0792 6.35130   8
  -2  -3 -21 2.73713 0.97254   8
  -2   3 -21 4.44740 1.79087  11
  -2   3 -21 4.50647 2.35849   9
   2   3  21 2.96378 2.37210   8
  -2  -4  21 1.00649 1.75729   9
  -2   4  21 -0.7506 1.33880   9
  -1  -4  21 0.49987 1.53984  15
  -1  -4  21 1.79686 2.78173   9
  -1   4  21 1.53234 1.71904   9
   0  -4 -21 0.92389 1.45182   8
   0  -4  21 -0.1697 1.66524   8
   0   4  21 1.67166 1.03828   8
   0   4 -21 1.95369 1.94848   8
  -1  -4 -21 2.91756 1.45778   8
   1  -4  21 0.14655 1.66252   8
   1   4  21 0.51795 1.85385   8
  -1   4 -21 -0.7978 0.94846   8
  -2  -4 -21 1.28804 1.57657   9
  -2   4 -21 2.20344 1.46450   9
  -1   5  21 27.2683 3.23561   9
   0  -5 -21 0.65640 1.24872   8
   0  -5  21 0.60805 1.39321   8
   0   5 -21 1.24449 1.21171   8
   0   5  21 2.21182 0.86221   8
   1  -5  21 5.72645 1.62636   8
  -1  -5 -21 6.24198 1.38036   8
  -1   5 -21 5.98940 1.19032   8
   1   5  21 6.08527 1.69391   8
  -2   0  22 18.8302 2.64644  15
  -1   0  22 16.3025 2.76281  15
  -1   0  22 13.7151 2.56363   9
   0   0  22 55.9921 5.92604  15
   0   0 -22 51.1105 5.06520   8
  -2   0 -22 6.87180 1.90697  11
  -2  -1  22 3.82311 1.62085  15
  -2   1  22 2.44198 1.72207  15
  -2   1  22 1.19941 1.61459   9
  -1  -1  22 2.12288 1.74611  15
  -1  -1  22 0.73463 2.49702   9
  -1   1  22 -4.8283 2.39490   9
  -1   1  22 0.32212 1.53231  15
   0  -1 -22 4.81734 2.24221   8
   0   1  22 1.57407 1.43173   8
   0   1 -22 0.23666 1.40537   8
   0   1  22 -3.2034 2.22777  15
  -1  -1 -22 1.30657 1.61087  11
   1  -1  22 1.69782 1.58249   8
  -1  -1 -22 -1.4830 1.54176   8
   1   1  22 2.03112 1.35941   8
  -2  -1 -22 1.31693 2.08619  11
  -2  -1 -22 -0.4385 2.40903   9
  -2   1 -22 2.52435 1.57027  11
  -2  -2  22 15.3363 2.24307  15
  -2  -2  22 13.7676 2.00513   9
  -2   2  22 11.2286 1.78320   9
  -2   2  22 9.25903 2.66373  15
  -1  -2  22 62.3995 5.81694  15
  -1  -2  22 46.2412 5.40318   9
  -1   2  22 48.6294 5.93937  15
   0  -2 -22 -1.0875 1.47950   8
   0  -2  22 2.58784 1.14756   8
   0   2  22 0.98078 1.32072   8
   0   2  22 2.12655 2.13803  15
   0   2 -22 1.06696 1.45107   8
   1  -2  22 12.8780 2.56073   8
  -1  -2 -22 13.8149 2.03925   8
  -1   2 -22 13.1734 1.70526   8
   1   2  22 15.0956 1.97736   8
  -2   2 -22 5.06013 1.63103  11
  -1  -3  22 4.47454 2.53590   9
  -1  -3  22 7.93124 2.30882  15
  -1   3  22 6.62279 1.75924   9
   0  -3  22 1.07404 0.98605   8
   0  -3 -22 1.50739 1.91922   8
   0   3 -22 4.52696 1.37120   8
   0   3  22 2.15603 1.10565   8
   1  -3  22 0.19078 1.92491   8
  -1  -3 -22 0.56713 0.93828   8
  -1   3 -22 2.80615 1.14494   8
   1   3  22 1.58909 1.59197   8
   0  -4  22 37.0089 3.34888   8
   0   4 -22 32.5016 3.34690   8
  -1   0  23 -0.1309 1.29272  15
   0   0  23 1.66168 1.99099  15
   1   0  23 -0.1072 1.00724   8
  -1   0 -23 1.19451 0.90651   8
   0  -1  23 55.3653 5.78937  15
   0   1  23 49.2293 4.40440   8
   0   0   0    0.00    0.00   0
;
_shelx_hkl_checksum              32516
loop_
_space_group_symop_operation_xyz
'x, y, z'
'-x, y+1/2, -z+1/2'
'-x, -y, -z'
'x, -y-1/2, z-1/2'
loop_
_atom_site_label
_atom_site_type_symbol
_atom_site_fract_x
_atom_site_fract_y
_atom_site_fract_z
_atom_site_U_iso_or_equiv
_atom_site_adp_type
_atom_site_occupancy
_atom_site_site_symmetry_order
_atom_site_calc_flag
_atom_site_refinement_flags_posn
_atom_site_refinement_flags_adp
N1 N 0.7718(4) 0.6327(2) 0.44375(13) 0.0204(5) Uani 1 1 d . .
S1 S 0.72159(12) 0.49343(7) 0.58462(4) 0.0235(2) Uani 1 1 d . .
O1 O 0.4924(3) 0.7782(2) 0.36314(12) 0.0276(5) Uani 1 1 d . .
C1 C 0.7788(5) 0.5044(3) 0.44216(17) 0.0213(6) Uani 1 1 d . .
C2 C 0.8160(5) 0.4399(3) 0.38000(17) 0.0242(7) Uani 1 1 d . .
H2A H 0.828(6) 0.480(4) 0.337(2) 0.029 Uiso 1 1 d . U
C3 C 0.8328(5) 0.3137(3) 0.37868(17) 0.0261(7) Uani 1 1 d . .
H3A H 0.8600 0.2732 0.3361 0.031 Uiso 1 1 calc R U
C4 C 0.8103(4) 0.2439(3) 0.43924(17) 0.0254(7) Uani 1 1 d . .
H4A H 0.8228 0.1566 0.4379 0.030 Uiso 1 1 calc R U
C5 C 0.7698(5) 0.3031(3) 0.50050(17) 0.0248(7) Uani 1 1 d . .
H5A H 0.7508 0.2561 0.5415 0.030 Uiso 1 1 calc R U
C6 C 0.7563(4) 0.4323(3) 0.50319(16) 0.0217(6) Uani 1 1 d . .
C7 C 0.7057(4) 0.6496(3) 0.56863(15) 0.0227(6) Uani 1 1 d . .
C8 C 0.6685(5) 0.7223(3) 0.62711(16) 0.0254(7) Uani 1 1 d . .
H8A H 0.6566 0.6842 0.6713 0.030 Uiso 1 1 calc R U
C9 C 0.6490(5) 0.8474(3) 0.62144(18) 0.0291(7) Uani 1 1 d . .
H9A H 0.6242 0.8964 0.6613 0.035 Uiso 1 1 calc R U
C10 C 0.6662(5) 0.9025(3) 0.55597(18) 0.0266(7) Uani 1 1 d . .
H10A H 0.6505 0.9893 0.5516 0.032 Uiso 1 1 calc R U
C11 C 0.7055(5) 0.8329(3) 0.49780(17) 0.0244(6) Uani 1 1 d . .
H11A H 0.712(5) 0.879(3) 0.454(2) 0.029 Uiso 1 1 d . U
C12 C 0.7274(4) 0.7033(3) 0.50263(15) 0.0209(6) Uani 1 1 d . .
C13 C 0.8146(5) 0.6979(3) 0.37761(16) 0.0234(7) Uani 1 1 d . .
H13A H 0.914(6) 0.654(4) 0.356(2) 0.028 Uiso 1 1 d . U
H13B H 0.857(5) 0.780(4) 0.389(2) 0.028 Uiso 1 1 d . U
C14 C 0.6399(5) 0.7074(3) 0.33013(16) 0.0268(7) Uani 1 1 d . .
H14A H 0.6784 0.7473 0.2860 0.032 Uiso 1 1 calc R U
H14B H 0.5896 0.6239 0.3195 0.032 Uiso 1 1 calc R U
C15 C 0.3409(5) 0.8110(3) 0.31649(18) 0.0288(7) Uani 1 1 d . .
H15A H 0.2415 0.8590 0.3412 0.043 Uiso 1 1 calc R U
H15B H 0.2815 0.7360 0.2975 0.043 Uiso 1 1 calc R U
H15C H 0.3950 0.8606 0.2786 0.043 Uiso 1 1 calc R U
B1 B -0.1246(6) 0.9999(4) 0.2847(2) 0.0272(8) Uani 1 1 d . .
F1 F -0.0553(3) 0.89005(18) 0.25697(11) 0.0322(5) Uani 1 1 d . .
F2 F -0.0063(3) 1.09651(19) 0.26225(11) 0.0345(5) Uani 1 1 d . .
F3 F -0.1212(4) 0.99273(19) 0.35632(11) 0.0431(6) Uani 1 1 d . .
F4 F -0.3149(3) 1.0171(2) 0.26102(14) 0.0473(6) Uani 1 1 d . .
loop_
_atom_site_aniso_label
_atom_site_aniso_U_11
_atom_site_aniso_U_22
_atom_site_aniso_U_33
_atom_site_aniso_U_23
_atom_site_aniso_U_13
_atom_site_aniso_U_12
N1 0.0198(13) 0.0206(13) 0.0208(12) -0.0012(10) 0.0017(10) -0.0003(10)
S1 0.0281(4) 0.0225(4) 0.0199(4) 0.0004(3) 0.0011(3) 0.0019(3)
O1 0.0259(12) 0.0333(13) 0.0237(11) -0.0015(10) 0.0009(9) 0.0012(10)
C1 0.0193(16) 0.0172(16) 0.0273(15) -0.0018(11) 0.0013(12) -0.0024(11)
C2 0.0237(17) 0.0251(18) 0.0238(16) -0.0003(13) 0.0033(12) -0.0008(12)
C3 0.0246(17) 0.0266(18) 0.0272(17) -0.0068(13) 0.0053(13) -0.0012(13)
C4 0.0212(16) 0.0208(16) 0.0342(17) -0.0038(13) 0.0021(13) -0.0007(13)
C5 0.0243(17) 0.0218(17) 0.0283(16) 0.0024(12) -0.0004(12) -0.0024(12)
C6 0.0192(16) 0.0204(16) 0.0255(15) -0.0021(12) 0.0008(12) -0.0002(11)
C7 0.0216(16) 0.0234(16) 0.0230(15) -0.0014(12) -0.0005(12) 0.0010(13)
C8 0.0293(18) 0.0266(18) 0.0203(15) -0.0004(12) 0.0006(12) 0.0015(13)
C9 0.0327(18) 0.0283(19) 0.0263(17) -0.0067(13) -0.0004(13) 0.0039(14)
C10 0.0277(17) 0.0202(17) 0.0318(17) -0.0039(13) -0.0023(13) 0.0025(13)
C11 0.0226(16) 0.0241(16) 0.0266(16) 0.0014(12) 0.0002(12) 0.0001(13)
C12 0.0194(15) 0.0215(16) 0.0219(14) -0.0032(11) -0.0016(11) 0.0013(12)
C13 0.0286(18) 0.0202(17) 0.0213(15) 0.0001(11) 0.0067(13) -0.0027(13)
C14 0.0356(18) 0.0250(17) 0.0197(15) 0.0006(13) 0.0048(13) -0.0032(13)
C15 0.0321(19) 0.0253(18) 0.0291(17) 0.0023(13) -0.0057(13) 0.0004(13)
B1 0.032(2) 0.022(2) 0.0271(19) 0.0005(14) 0.0054(15) -0.0005(14)
F1 0.0382(11) 0.0231(10) 0.0355(11) -0.0045(8) 0.0081(8) 0.0013(8)
F2 0.0440(12) 0.0239(10) 0.0355(11) 0.0010(8) 0.0094(9) -0.0075(8)
F3 0.0775(17) 0.0270(12) 0.0250(11) -0.0017(8) 0.0107(10) -0.009(1)
F4 0.0305(13) 0.0460(14) 0.0654(17) 0.0171(11) 0.0043(10) 0.0069(10)
loop_
_atom_type_symbol
_atom_type_description
_atom_type_scat_dispersion_real
_atom_type_scat_dispersion_imag
_atom_type_scat_source
C C 0.0181 0.0091 'International Tables Vol C Tables 4.2.6.8 and 6.1.1.4'
H H 0.0000 0.0000 'International Tables Vol C Tables 4.2.6.8 and 6.1.1.4'
B B 0.0090 0.0039 'International Tables Vol C Tables 4.2.6.8 and 6.1.1.4'
N N 0.0311 0.0180 'International Tables Vol C Tables 4.2.6.8 and 6.1.1.4'
O O 0.0492 0.0322 'International Tables Vol C Tables 4.2.6.8 and 6.1.1.4'
F F 0.0727 0.0534 'International Tables Vol C Tables 4.2.6.8 and 6.1.1.4'
S S 0.3331 0.5567 'International Tables Vol C Tables 4.2.6.8 and 6.1.1.4'
loop_
_geom_angle_atom_site_label_1
_geom_angle_atom_site_label_2
_geom_angle_atom_site_label_3
_geom_angle
C1 N1 C12 124.8(3)
C1 N1 C13 116.7(3)
C12 N1 C13 118.5(3)
C6 S1 C7 102.91(15)
C15 O1 C14 111.8(3)
N1 C1 C2 121.3(3)
N1 C1 C6 121.8(3)
C2 C1 C6 116.8(3)
C3 C2 C1 121.6(3)
C3 C2 H2A 116(2)
C1 C2 H2A 122(2)
C2 C3 C4 120.9(3)
C2 C3 H3A 119.5
C4 C3 H3A 119.5
C5 C4 C3 119.2(3)
C5 C4 H4A 120.4
C3 C4 H4A 120.4
C4 C5 C6 120.7(3)
C4 C5 H5A 119.6
C6 C5 H5A 119.6
C5 C6 C1 120.7(3)
C5 C6 S1 115.3(2)
C1 C6 S1 124.0(2)
C8 C7 C12 121.0(3)
C8 C7 S1 114.8(2)
C12 C7 S1 124.1(2)
C9 C8 C7 120.8(3)
C9 C8 H8A 119.6
C7 C8 H8A 119.6
C8 C9 C10 119.1(3)
C8 C9 H9A 120.4
C10 C9 H9A 120.4
C11 C10 C9 121.1(3)
C11 C10 H10A 119.4
C9 C10 H10A 119.4
C10 C11 C12 120.7(3)
C10 C11 H11A 115(2)
C12 C11 H11A 124(2)
N1 C12 C7 122.0(3)
N1 C12 C11 120.7(3)
C7 C12 C11 117.3(3)
N1 C13 C14 113.3(3)
N1 C13 H13A 107(2)
C14 C13 H13A 110(2)
N1 C13 H13B 108(2)
C14 C13 H13B 108(2)
H13A C13 H13B 111(3)
O1 C14 C13 109.2(3)
O1 C14 H14A 109.8
C13 C14 H14A 109.8
O1 C14 H14B 109.8
C13 C14 H14B 109.8
H14A C14 H14B 108.3
O1 C15 H15A 109.5
O1 C15 H15B 109.5
H15A C15 H15B 109.5
O1 C15 H15C 109.5
H15A C15 H15C 109.5
H15B C15 H15C 109.5
F3 B1 F1 109.3(3)
F3 B1 F2 110.0(3)
F1 B1 F2 109.0(3)
F3 B1 F4 110.5(3)
F1 B1 F4 108.0(3)
F2 B1 F4 110.0(3)
loop_
_geom_bond_atom_site_label_1
_geom_bond_atom_site_label_2
_geom_bond_distance
N1 C1 1.391(4)
N1 C12 1.403(4)
N1 C13 1.487(4)
S1 C6 1.721(3)
S1 C7 1.723(3)
O1 C15 1.419(4)
O1 C14 1.419(4)
C1 C2 1.411(4)
C1 C6 1.421(4)
C2 C3 1.372(5)
C2 H2A 0.93(4)
C3 C4 1.400(5)
C3 H3A 0.9500
C4 C5 1.372(5)
C4 H4A 0.9500
C5 C6 1.404(4)
C5 H5A 0.9500
C7 C8 1.399(4)
C7 C12 1.407(4)
C8 C9 1.366(5)
C8 H8A 0.9500
C9 C10 1.401(5)
C9 H9A 0.9500
C10 C11 1.378(5)
C10 H10A 0.9500
C11 C12 1.415(4)
C11 H11A 0.98(4)
C13 C14 1.510(5)
C13 H13A 0.93(4)
C13 H13B 0.96(4)
C14 H14A 0.9900
C14 H14B 0.9900
C15 H15A 0.9800
C15 H15B 0.9800
C15 H15C 0.9800
B1 F3 1.384(5)
B1 F1 1.388(4)
B1 F2 1.392(4)
B1 F4 1.393(5)
loop_
_geom_torsion_atom_site_label_1
_geom_torsion_atom_site_label_2
_geom_torsion_atom_site_label_3
_geom_torsion_atom_site_label_4
_geom_torsion
C12 N1 C1 C2 177.1(3)
C13 N1 C1 C2 -2.8(4)
C12 N1 C1 C6 -5.3(5)
C13 N1 C1 C6 174.8(3)
N1 C1 C2 C3 176.7(3)
C6 C1 C2 C3 -1.0(5)
C1 C2 C3 C4 1.0(5)
C2 C3 C4 C5 0.4(5)
C3 C4 C5 C6 -1.7(5)
C4 C5 C6 C1 1.8(5)
C4 C5 C6 S1 -175.7(2)
N1 C1 C6 C5 -178.1(3)
C2 C1 C6 C5 -0.4(4)
N1 C1 C6 S1 -0.8(4)
C2 C1 C6 S1 176.9(2)
C7 S1 C6 C5 -178.5(2)
C7 S1 C6 C1 4.1(3)
C6 S1 C7 C8 177.4(2)
C6 S1 C7 C12 -2.5(3)
C12 C7 C8 C9 1.1(5)
S1 C7 C8 C9 -178.8(3)
C7 C8 C9 C10 0.2(5)
C8 C9 C10 C11 -1.1(5)
C9 C10 C11 C12 0.7(5)
C1 N1 C12 C7 7.0(5)
C13 N1 C12 C7 -173.1(3)
C1 N1 C12 C11 -173.9(3)
C13 N1 C12 C11 6.0(4)
C8 C7 C12 N1 177.7(3)
S1 C7 C12 N1 -2.4(4)
C8 C7 C12 C11 -1.5(4)
S1 C7 C12 C11 178.5(2)
C10 C11 C12 N1 -178.6(3)
C10 C11 C12 C7 0.6(5)
C1 N1 C13 C14 83.3(3)
C12 N1 C13 C14 -96.6(3)
C15 O1 C14 C13 168.4(3)
N1 C13 C14 O1 62.7(4)
