#------------------------------------------------------------------------------
#$Date: 2016-11-19 04:21:44 +0200 (Sat, 19 Nov 2016) $
#$Revision: 188580 $
#$URL: file:///home/coder/svn-repositories/cod/cif/1/54/46/1544626.cif $
#------------------------------------------------------------------------------
#
# This file is available in the Crystallography Open Database (COD),
# http://www.crystallography.net/. The original data for this entry
# were provided by IUCr Journals, http://journals.iucr.org/.
#
# The file may be used within the scientific community so long as
# proper attribution is given to the journal article from which the
# data were obtained.
#
data_1544626
loop_
_publ_author_name
'Sebbar, Nada Kheira'
'Ellouz, Mohamed'
'Boulhaoua, Mohammed'
'Ouzidan, Younes'
'Essassi, El Mokhtar'
'Mague, Joel T.'
_publ_section_title
;
 (2<i>Z</i>)-2-Benzylidene-4-[(1-benzyl-1<i>H</i>-1,2,3-triazol-4-yl)methyl]-3,4-dihydro-2<i>H</i>-1,4-benzothiazin-3-one
;
_journal_coeditor_code           TK4023
_journal_issue                   11
_journal_name_full               IUCrData
_journal_page_first              x161823
_journal_paper_doi               10.1107/S241431461601823X
_journal_volume                  1
_journal_year                    2016
_chemical_formula_iupac          'C25 H20 N4 O S'
_chemical_formula_moiety         'C25 H20 N4 O S'
_chemical_formula_sum            'C25 H20 N4 O S'
_chemical_formula_weight         424.51
_chemical_name_systematic
(2<i>Z</i>)-2-Benzylidene-4-[(1-benzyl-1<i>H</i>-1,2,3-triazol-4-yl)methyl]-3,4-dihydro-2<i>H</i>-1,4-benzothiazin-3-one
_space_group_crystal_system      monoclinic
_space_group_IT_number           14
_space_group_name_Hall           '-P 2ybc'
_space_group_name_H-M_alt        'P 1 21/c 1'
_symmetry_space_group_name_Hall  '-P 2ybc'
_symmetry_space_group_name_H-M   'P 1 21/c 1'
_atom_sites_solution_hydrogens   geom
_atom_sites_solution_primary     direct
_atom_sites_solution_secondary   difmap
_audit_creation_method           SHELXL-2014/7
_cell_angle_alpha                90
_cell_angle_beta                 100.2340(10)
_cell_angle_gamma                90
_cell_formula_units_Z            4
_cell_length_a                   21.8833(8)
_cell_length_b                   5.7007(2)
_cell_length_c                   16.8054(6)
_cell_measurement_reflns_used    9969
_cell_measurement_temperature    150.(2)
_cell_measurement_theta_max      72.3115
_cell_measurement_theta_min      3.6476
_cell_volume                     2063.12(13)
_computing_cell_refinement
;
<i>SAINT</i> (Bruker, 2016)
;
_computing_data_collection
;
<i>APEX3</i> (Bruker, 2016)
;
_computing_data_reduction
;
<i>SAINT</i> (Bruker, 2016)
;
_computing_molecular_graphics
;
<i>DIAMOND</i> (Brandenburg & Putz, 2012)
;
_computing_publication_material
;
<i>SHELXTL</i> (Sheldrick, 2008<i>b</i>)
;
_computing_structure_refinement
;
<i>SHELXL2014</i> (Sheldrick, 2015b)
;
_computing_structure_solution
;
<i>SHELXT</i> (Sheldrick, 2015a)
;
_diffrn_ambient_temperature      150(2)
_diffrn_detector_area_resol_mean 10.4167
_diffrn_measured_fraction_theta_full 0.997
_diffrn_measured_fraction_theta_max 0.993
_diffrn_measurement_device_type  'Bruker D8 VENTURE PHOTON 100 CMOS'
_diffrn_measurement_method       '\w scans'
_diffrn_radiation_monochromator  mirror
_diffrn_radiation_type           CuK\a
_diffrn_radiation_wavelength     1.54178
_diffrn_reflns_av_R_equivalents  0.0460
_diffrn_reflns_limit_h_max       26
_diffrn_reflns_limit_h_min       -27
_diffrn_reflns_limit_k_max       6
_diffrn_reflns_limit_k_min       -6
_diffrn_reflns_limit_l_max       20
_diffrn_reflns_limit_l_min       -20
_diffrn_reflns_number            23953
_diffrn_reflns_theta_full        70.000
_diffrn_reflns_theta_max         72.397
_diffrn_reflns_theta_min         4.106
_exptl_absorpt_coefficient_mu    1.595
_exptl_absorpt_correction_T_max  0.93
_exptl_absorpt_correction_T_min  0.80
_exptl_absorpt_correction_type   multi-scan
_exptl_absorpt_process_details
;
(<i>TWINABS</i>; Sheldrick, 2009)
;
_exptl_crystal_colour            'pale yellow'
_exptl_crystal_density_diffrn    1.367
_exptl_crystal_density_method    'not measured'
_exptl_crystal_description       'thick plate'
_exptl_crystal_F_000             888
_exptl_crystal_size_max          0.200
_exptl_crystal_size_mid          0.140
_exptl_crystal_size_min          0.050
_refine_diff_density_max         0.300
_refine_diff_density_min         -0.446
_refine_ls_extinction_method     none
_refine_ls_goodness_of_fit_ref   1.102
_refine_ls_hydrogen_treatment    constr
_refine_ls_matrix_type           full
_refine_ls_number_parameters     276
_refine_ls_number_reflns         7028
_refine_ls_number_restraints     1
_refine_ls_restrained_S_all      1.102
_refine_ls_R_factor_all          0.0679
_refine_ls_R_factor_gt           0.0603
_refine_ls_shift/su_max          0.000
_refine_ls_shift/su_mean         0.000
_refine_ls_structure_factor_coef Fsqd
_refine_ls_weighting_details
'w=1/[\s^2^(Fo^2^)+(0.0465P)^2^+2.5618P] where P=(Fo^2^+2Fc^2^)/3'
_refine_ls_weighting_scheme      calc
_refine_ls_wR_factor_gt          0.1491
_refine_ls_wR_factor_ref         0.1540
_reflns_number_gt                6233
_reflns_number_total             7028
_reflns_threshold_expression     'I > 2\s(I)'
_cod_data_source_file            tk4023sup1.cif
_cod_data_source_block           I
_cod_database_code               1544626
_shelx_space_group_comment
;
The symmetry employed for this shelxl refinement is uniquely defined
by the following loop, which should always be used as a source of
symmetry information in preference to the above space-group names.
They are only intended as comments.
;
_shelx_estimated_absorpt_t_min   0.741
_shelx_estimated_absorpt_t_max   0.925
_shelx_hkl_file
;
   2   0   0 1540.64 47.5643  -2
   2   0   0 1540.64 47.5643   1
   3   0   0 2960.26 89.8711  -2
   3   0   0 2960.26 89.8711   1
   4   0   0 1400.62 42.2859  -2
   4   0   0 1400.62 42.2859   1
   5   0   0 4831.39 145.782  -2
   5   0   0 4831.39 145.782   1
   6   0   0 245.661 7.64909  -2
   6   0   0 245.661 7.64909   1
   7   0   0 212.739 6.72853  -2
   7   0   0 212.739 6.72853   1
   8   0   0 1810.26 54.4441  -2
   8   0   0 1810.26 54.4441   1
   9   0   0 2574.75 77.3015  -2
   9   0   0 2574.75 77.3015   1
  10   0   0 386.385 12.1643  -2
  10   0   0 386.385 12.1643   1
  11   0   0 480.111 21.2743  -2
  11   0   0 480.111 21.2743   1
  12   0   0 600.836 26.5683  -2
  12   0   0 600.836 26.5683   1
  13   0   0 49.1272 5.88499  -2
  13   0   0 49.1272 5.88499   1
  14   0   0 1283.07 50.4032  -2
  14   0   0 1283.07 50.4032   1
  15   0   0 435.847 18.2086  -2
  15   0   0 435.847 18.2086   1
  16   0   0 7.07159 2.22313  -2
  16   0   0 7.07159 2.22313   1
  17   0   0 1020.51 27.6517  -2
  17   0   0 1020.51 27.6517   1
  18   0   0 1012.20 27.4631  -2
  18   0   0 1012.20 27.4631   1
  19   0   0 336.466 10.0087  -2
  19   0   0 336.466 10.0087   1
  20   0   0 3.82145 1.58363  -2
  20   0   0 3.82145 1.58363   1
  21   0   0 9.52485 1.63335  -2
  21   0   0 9.52485 1.63335   1
  22   0   0 563.357 15.6761  -2
  22   0   0 563.357 15.6761   1
  23   0   0 161.762 5.24804  -2
  23   0   0 161.762 5.24804   1
  24   0   0 0.79775 1.02765  -2
  24   0   0 0.79775 1.02765   1
  25   0   0 2.52796 1.32633  -2
  25   0   0 2.52796 1.32633   1
  26   0   0 67.7801 3.67818  -2
  26   0   0 67.7801 3.67818   1
   0   1   0 0.80727 0.48766   1
   1   1   0 1042.44 25.7351  -2
   1   1   0 1042.44 25.7351   1
   2   1   0 25.5473 0.70469  -2
   2   1   0 25.5473 0.70469   1
   3   1   0 56.9989 1.37913  -2
   3   1   0 56.9989 1.37913   1
   4   1   0 330.930 7.18299  -2
   4   1   0 330.930 7.18299   1
   5   1   0 25.0020 0.79191  -2
   5   1   0 25.0020 0.79191   1
   6   1   0 5.63089 0.48814  -2
   6   1   0 5.63089 0.48814   1
   7   1   0 270.125 6.00848  -2
   7   1   0 270.125 6.00848   1
   8   1   0 405.080 8.89949  -2
   8   1   0 405.080 8.89949   1
   9   1   0 542.990 11.8693  -2
   9   1   0 542.990 11.8693   1
  10   1   0 28.1604 1.30266  -2
  10   1   0 28.1604 1.30266   1
  11   1   0 172.345 4.78228  -2
  11   1   0 172.345 4.78228   1
  12   1   0 12.0540 1.62226  -2
  12   1   0 12.0540 1.62226   1
  13   1   0 10.3936 1.73945  -2
  13   1   0 10.3936 1.73945   1
  14   1   0 3.17634 1.19082  -2
  14   1   0 3.17634 1.19082   1
  15   1   0 91.5345 2.51318  -2
  15   1   0 91.5345 2.51318   1
  16   1   0 250.835 4.96435  -2
  16   1   0 250.835 4.96435   1
  17   1   0 3.87774 1.14426  -2
  17   1   0 3.87774 1.14426   1
  18   1   0 213.204 5.66418  -2
  18   1   0 213.204 5.66418   1
  19   1   0 158.925 4.58546  -2
  19   1   0 158.925 4.58546   1
  20   1   0 32.7475 1.88484  -2
  20   1   0 32.7475 1.88484   1
  21   1   0 15.7538 1.58049  -2
  21   1   0 15.7538 1.58049   1
  22   1   0 8.72915 1.33181  -2
  22   1   0 8.72915 1.33181   1
  23   1   0 4.00150 1.12666  -2
  23   1   0 4.00150 1.12666   1
  24   1   0 71.4991 2.38588  -2
  24   1   0 71.4991 2.38588   1
  25   1   0 5.83467 1.00426  -2
  25   1   0 5.83467 1.00426   1
  26   1   0 46.0957 2.18019  -2
  26   1   0 46.0957 2.18019   1
   0   2   0 128.633 4.25358  -2
   0   2   0 128.633 4.25358   1
   1   2   0 42.3427 1.41885  -2
   1   2   0 42.3427 1.41885   1
   2   2   0 21.2147 1.16405  -2
   2   2   0 21.2147 1.16405   1
   3   2   0 124.037 3.37910  -2
   3   2   0 124.037 3.37910   1
   4   2   0 651.949 16.2337  -2
   4   2   0 651.949 16.2337   1
   5   2   0 183.826 3.76308  -2
   5   2   0 183.826 3.76308   1
   6   2   0 73.4499 1.80157  -2
   6   2   0 73.4499 1.80157   1
   7   2   0 23.0667 1.05395  -2
   7   2   0 23.0667 1.05395   1
   8   2   0 190.135 4.46275  -2
   8   2   0 190.135 4.46275   1
   9   2   0 338.262 8.68455  -2
   9   2   0 338.262 8.68455   1
  10   2   0 58.5567 2.45087  -2
  10   2   0 58.5567 2.45087   1
  11   2   0 14.2532 1.37062  -2
  11   2   0 14.2532 1.37062   1
  12   2   0 184.348 3.79205  -2
  12   2   0 184.348 3.79205   1
  13   2   0 18.0654 1.39583  -2
  13   2   0 18.0654 1.39583   1
  14   2   0 13.3918 1.37233  -2
  14   2   0 13.3918 1.37233   1
  15   2   0 217.775 5.67335  -2
  15   2   0 217.775 5.67335   1
  16   2   0 71.7128 2.02054  -2
  16   2   0 71.7128 2.02054   1
  17   2   0 189.151 4.04350  -2
  17   2   0 189.151 4.04350   1
  18   2   0 48.5325 1.97677  -2
  18   2   0 48.5325 1.97677   1
  19   2   0 6.64745 1.22533  -2
  19   2   0 6.64745 1.22533   1
  20   2   0 6.83411 1.58533  -2
  20   2   0 6.83411 1.58533   1
  21   2   0 -0.6317 1.37372  -2
  21   2   0 -0.6317 1.37372   1
  22   2   0 31.1853 1.80746  -2
  22   2   0 31.1853 1.80746   1
  23   2   0 0.81110 0.90351  -2
  23   2   0 0.81110 0.90351   1
  24   2   0 2.69717 0.90633  -2
  24   2   0 2.69717 0.90633   1
  25   2   0 2.57157 0.89720  -2
  25   2   0 2.57157 0.89720   1
   0   3   0 0.93824 1.03457   1
   1   3   0 117.309 2.51144  -2
   1   3   0 117.309 2.51144   1
   2   3   0 751.484 12.9964  -2
   2   3   0 751.484 12.9964   1
   3   3   0 11.2823 1.26376  -2
   3   3   0 11.2823 1.26376   1
   4   3   0 46.8455 2.45819  -2
   4   3   0 46.8455 2.45819   1
   5   3   0 -0.4051 1.22877  -2
   5   3   0 -0.4051 1.22877   1
   6   3   0 227.274 7.44664  -2
   6   3   0 227.274 7.44664   1
   7   3   0 107.561 2.92911  -2
   7   3   0 107.561 2.92911   1
   8   3   0 44.2821 1.64297  -2
   8   3   0 44.2821 1.64297   1
   9   3   0 33.5305 1.53220  -2
   9   3   0 33.5305 1.53220   1
  10   3   0 10.4566 1.28587  -2
  10   3   0 10.4566 1.28587   1
  11   3   0 314.968 5.92837  -2
  11   3   0 314.968 5.92837   1
  12   3   0 8.54297 1.17647  -2
  12   3   0 8.54297 1.17647   1
  13   3   0 44.1040 1.73573  -2
  13   3   0 44.1040 1.73573   1
  14   3   0 9.76243 1.22779  -2
  14   3   0 9.76243 1.22779   1
  15   3   0 0.82074 1.08225  -2
  15   3   0 0.82074 1.08225   1
  16   3   0 515.141 8.51357  -2
  16   3   0 515.141 8.51357   1
  17   3   0 1.33630 1.04674  -2
  17   3   0 1.33630 1.04674   1
  18   3   0 114.234 2.82989  -2
  18   3   0 114.234 2.82989   1
  19   3   0 7.97520 1.27012  -2
  19   3   0 7.97520 1.27012   1
  20   3   0 67.3073 2.24315  -2
  20   3   0 67.3073 2.24315   1
  21   3   0 42.8107 2.62040  -2
  21   3   0 42.8107 2.62040   1
  22   3   0 12.2106 1.50545  -2
  22   3   0 12.2106 1.50545   1
  23   3   0 2.91870 1.19830  -2
  23   3   0 2.91870 1.19830   1
  24   3   0 3.59283 1.04268  -2
  24   3   0 3.59283 1.04268   1
   0   4   0 414.032 12.0116  -2
   0   4   0 414.032 12.0116   1
   1   4   0 43.4139 2.06969  -2
   1   4   0 43.4139 2.06969   1
   2   4   0 40.3257 2.09159  -2
   2   4   0 40.3257 2.09159   1
   3   4   0 0.77393 1.62416  -2
   3   4   0 0.77393 1.62416   1
   4   4   0 29.1427 1.70298  -2
   4   4   0 29.1427 1.70298   1
   5   4   0 9.23308 1.43771  -2
   5   4   0 9.23308 1.43771   1
   6   4   0 4.73801 1.20551  -2
   6   4   0 4.73801 1.20551   1
   7   4   0 9.20246 1.28907  -2
   7   4   0 9.20246 1.28907   1
   8   4   0 6.99600 1.25191  -2
   8   4   0 6.99600 1.25191   1
   9   4   0 67.7116 2.09425  -2
   9   4   0 67.7116 2.09425   1
  10   4   0 47.8636 1.82040  -2
  10   4   0 47.8636 1.82040   1
  11   4   0 93.5351 2.46383  -2
  11   4   0 93.5351 2.46383   1
  12   4   0 58.6021 1.94054  -2
  12   4   0 58.6021 1.94054   1
  13   4   0 22.3026 1.47315  -2
  13   4   0 22.3026 1.47315   1
  14   4   0 5.21954 1.09342  -2
  14   4   0 5.21954 1.09342   1
  15   4   0 114.865 2.74702  -2
  15   4   0 114.865 2.74702   1
  16   4   0 52.8692 2.00557  -2
  16   4   0 52.8692 2.00557   1
  17   4   0 102.751 2.77920  -2
  17   4   0 102.751 2.77920   1
  18   4   0 171.457 3.91876  -2
  18   4   0 171.457 3.91876   1
  19   4   0 4.81132 0.95684  -2
  19   4   0 4.81132 0.95684   1
  20   4   0 31.4496 1.80287  -2
  20   4   0 31.4496 1.80287   1
  21   4   0 5.58983 1.01893  -2
  21   4   0 5.58983 1.01893   1
   0   5   0 0.00466 2.87245   1
   1   5   0 86.3022 3.28880  -2
   1   5   0 86.3022 3.28880   1
   2   5   0 94.5342 3.35483  -2
   2   5   0 94.5342 3.35483   1
   3   5   0 253.115 6.44262  -2
   3   5   0 253.115 6.44262   1
   4   5   0 46.6122 2.16663  -2
   4   5   0 46.6122 2.16663   1
   5   5   0 73.6950 2.47716  -2
   5   5   0 73.6950 2.47716   1
   6   5   0 135.973 3.47354  -2
   6   5   0 135.973 3.47354   1
   7   5   0 2.88393 1.15302  -2
   7   5   0 2.88393 1.15302   1
   8   5   0 11.7239 1.50846  -2
   8   5   0 11.7239 1.50846   1
   9   5   0 84.9284 2.37881  -2
   9   5   0 84.9284 2.37881   1
  10   5   0 0.60991 0.96784  -2
  10   5   0 0.60991 0.96784   1
  11   5   0 51.0288 1.78721  -2
  11   5   0 51.0288 1.78721   1
  12   5   0 61.0804 1.84097  -2
  12   5   0 61.0804 1.84097   1
  13   5   0 44.6015 1.55941  -2
  13   5   0 44.6015 1.55941   1
  14   5   0 32.7796 1.54629  -2
  14   5   0 32.7796 1.54629   1
  15   5   0 110.304 2.77597  -2
  15   5   0 110.304 2.77597   1
  16   5   0 1.54115 0.73016  -2
  16   5   0 1.54115 0.73016   1
  17   5   0 0.15404 0.71057  -2
  17   5   0 0.15404 0.71057   1
  18   5   0 40.8375 1.79462  -2
  18   5   0 40.8375 1.79462   1
   4   6   0 78.1131 3.27308  -2
   4   6   0 78.1131 3.27308   1
   5   6   0 5.13012 1.64822  -2
   5   6   0 5.13012 1.64822   1
   6   6   0 0.32274 1.47333  -2
   6   6   0 0.32274 1.47333   1
   7   6   0 0.43467 1.31717  -2
   7   6   0 0.43467 1.31717   1
   8   6   0 86.3906 2.74514  -2
   8   6   0 86.3906 2.74514   1
   9   6   0 2.25067 1.17798  -2
   9   6   0 2.25067 1.17798   1
  10   6   0 13.4944 1.32659  -2
  10   6   0 13.4944 1.32659   1
  11   6   0 13.2164 1.25026  -2
  11   6   0 13.2164 1.25026   1
  12   6   0 -1.0647 1.16274  -2
  12   6   0 -1.0647 1.16274   1
  13   6   0 30.5718 1.59346  -2
  13   6   0 30.5718 1.59346   1
 -26   0   1 0.88023 1.23335   1
 -26   0   1 0.52954 1.22205   2
 -25   0   1 0.77929 0.95733   2
 -25   0   1 -0.7648 1.30758   1
 -24   0   1 1.72246 1.23714   1
 -24   0   1 1.32275 1.02348   2
 -23   0   1 3.60337 1.32460   1
 -23   0   1 3.97865 1.14650   2
 -22   0   1 4.63137 1.41705   1
 -22   0   1 2.61852 1.17528   2
 -21   0   1 1.45619 1.53047   1
 -21   0   1 3.62550 1.24935   2
 -20   0   1 16.9036 3.64679   1
 -20   0   1 2.74085 1.28549   2
 -19   0   1 0.89380 1.54858   1
 -19   0   1 -0.0344 1.27930   2
 -18   0   1 13.2647 2.43980   1
 -18   0   1 37.6449 2.60614   2
 -17   0   1 3.92037 2.11576   1
 -17   0   1 4.85460 1.43667   2
 -16   0   1 4.36367 1.98186   2
 -16   0   1 3.02628 1.95656   1
 -15   0   1 16.7834 3.12578   2
 -15   0   1 3.89875 2.39164   1
 -14   0   1 3.08087 1.75935   1
 -14   0   1 1.25358 1.70063   2
 -13   0   1 1.46181 1.51699   1
 -13   0   1 11.8814 3.32779   2
 -12   0   1 2.46877 1.25643   1
 -12   0   1 1.51265 1.40286   2
 -11   0   1 0.35966 0.81879   1
 -11   0   1 0.50606 1.10556   2
 -10   0   1 0.00040 0.75820   1
 -10   0   1 1.73853 0.68670   2
  -9   0   1 0.27167 0.52560   2
  -9   0   1 0.46718 0.57709   1
  -8   0   1 0.46951 0.42602   2
  -8   0   1 3.16470 0.66043   1
  -7   0   1 0.99332 0.47463   1
  -7   0   1 0.51890 0.39326   2
  -6   0   1 2.14012 0.48178   1
  -6   0   1 0.07615 0.34434   2
  -5   0   1 3.58218 0.48421   1
  -5   0   1 1.16669 0.32118   2
  -4   0   1 4.40729 0.40718   2
  -4   0   1 2.08040 0.32786   1
  -3   0   1 0.39535 0.15678   2
  -3   0   1 0.47017 0.19002   1
  -2   0   1 2.37878 0.19611   1
  -2   0   1 0.45836 0.10866   2
  -1   0   1 0.16465 0.06292   2
  -1   0   1 1.12751 0.10607   1
   0   0   1 0.36112 0.08451   1
   1   0   1 0.56923 0.12037   2
   1   0   1 0.28539 0.09001   1
   2   0   1 2.51968 0.23788   2
   2   0   1 0.60669 0.15589   1
   3   0   1 1.19586 0.25489   1
   3   0   1 2.09773 0.48405   2
   4   0   1 0.36276 0.27477   1
   4   0   1 0.48698 0.25520   2
   5   0   1 3.22959 0.53411   1
   5   0   1 12.5295 0.98775   2
   6   0   1 1.44889 0.40016   2
   6   0   1 0.60189 0.37132   1
   7   0   1 5.39036 0.75757   1
   7   0   1 2.98540 0.67242   2
   8   0   1 4.62770 0.82813   2
   8   0   1 1.78079 0.59400   1
   9   0   1 1.27054 0.66631   1
   9   0   1 4.34984 0.86315   2
  10   0   1 0.45994 0.81425   2
  10   0   1 2.80273 0.92765   1
  11   0   1 4.06172 1.33852   1
  11   0   1 2.73455 1.15021   2
  12   0   1 0.73993 1.39009   2
  12   0   1 7.53911 2.72692   1
  13   0   1 0.96272 1.55034   2
  13   0   1 5.71474 2.54509   1
  14   0   1 2.41751 2.26111   1
  14   0   1 11.7446 2.84703   2
  15   0   1 9.55462 2.67359   1
  15   0   1 1.01036 1.78984   2
  16   0   1 -0.3928 1.63309   1
  16   0   1 0.69844 1.66016   2
  17   0   1 11.1480 2.04866   1
  17   0   1 4.92054 1.76104   2
  18   0   1 9.36174 1.85196   1
  18   0   1 7.43471 1.54681   2
  19   0   1 4.61032 1.35221   2
  19   0   1 1.03385 1.54607   1
  20   0   1 5.97061 1.61110   1
  20   0   1 -0.5376 1.26369   2
  21   0   1 0.52248 1.27790   2
  21   0   1 1.29138 1.41479   1
  22   0   1 1.55116 1.28580   1
  22   0   1 8.77712 1.41113   2
  23   0   1 1.57776 1.15096   1
  23   0   1 0.94885 1.06746   2
  24   0   1 -0.6534 1.10615   2
  24   0   1 3.29091 1.20643   1
  25   0   1 1.85980 1.13095   1
  25   0   1 1.29854 1.10470   2
  26   0   1 1.52473 1.10902   2
  26   0   1 1.27392 1.38050   1
 -26   1   1 9.32159 1.08189   2
 -26   1   1 36.1871 2.01150   1
 -25   1   1 99.8021 2.87594   1
 -25   1   1 23.8644 1.34434   2
 -24   1   1 17.7366 1.34773   2
 -24   1   1 74.4397 2.54279   1
 -23   1   1 9.35063 1.22645   2
 -23   1   1 37.7587 1.99725   1
 -22   1   1 12.0877 1.05357   2
 -22   1   1 36.9135 2.13592   1
 -21   1   1 91.6447 3.27057   1
 -21   1   1 22.9563 1.58531   2
 -20   1   1 10.2616 1.93031   1
 -20   1   1 3.76021 0.97966   2
 -19   1   1 -0.4050 1.12702   2
 -19   1   1 1.92952 1.30400   1
 -18   1   1 192.940 4.17987   1
 -18   1   1 48.1512 2.32009   2
 -17   1   1 92.4862 2.65759   1
 -17   1   1 20.1470 1.56853   2
 -16   1   1 58.1367 2.18892   1
 -16   1   1 16.5055 1.43519   2
 -15   1   1 86.1111 2.27001   1
 -15   1   1 23.4476 1.52880   2
 -14   1   1 38.2546 1.68862   2
 -14   1   1 158.711 3.86198   1
 -13   1   1 10.2610 1.63642   1
 -13   1   1 2.13074 1.17479   2
 -12   1   1 115.304 3.58845   2
 -12   1   1 463.113 11.6780   1
 -11   1   1 22.1419 1.49194   2
 -11   1   1 51.7764 2.06329   1
 -10   1   1 27.6265 1.18513   2
 -10   1   1 97.9717 2.34725   1
  -9   1   1 9.72030 0.80516   1
  -9   1   1 4.17774 0.60703   2
  -8   1   1 783.826 16.8586   1
  -8   1   1 199.029 4.54677   2
  -7   1   1 245.312 5.47208   1
  -7   1   1 64.9918 1.69776   2
  -6   1   1 49.8192 1.34505   1
  -6   1   1 14.5595 0.63790   2
  -5   1   1 1131.07 24.0410   1
  -5   1   1 291.362 6.35426   2
  -4   1   1 30.9865 0.86684   1
  -4   1   1 12.3042 0.48643   2
  -3   1   1 350.258 7.53309   2
  -3   1   1 1334.82 28.3051   1
  -2   1   1 1584.53 38.9253   1
  -2   1   1 410.173 8.77693   2
  -1   1   1 21.8286 0.71364   2
  -1   1   1 79.2921 2.55082   1
   0   1   1 602.105 18.1189   1
   0   1   1 162.364 5.01253   2
   1   1   1 2.04837 0.27353   2
   1   1   1 9.40027 0.52999   1
   2   1   1 206.304 4.49899   1
   2   1   1 52.7491 1.25982   2
   3   1   1 1318.39 27.9453   1
   3   1   1 357.040 7.68385   2
   4   1   1 4.63076 0.40405   1
   4   1   1 1.06088 0.22070   2
   5   1   1 0.67346 0.25457   2
   6   1   1 452.671 9.79375   2
   6   1   1 1677.01 35.6050   1
   7   1   1 506.487 10.9995   1
   7   1   1 124.810 2.95612   2
   8   1   1 130.200 3.17033   1
   8   1   1 32.1314 1.05958   2
   9   1   1 5.25950 0.76500   2
   9   1   1 6.53726 0.80495   1
  10   1   1 134.310 3.32340   2
  10   1   1 546.213 13.5109   1
  11   1   1 344.047 8.78461   2
  11   1   1 1428.64 34.4287   1
  12   1   1 161.610 4.75140   1
  12   1   1 44.9844 2.20045   2
  13   1   1 37.1401 1.65324   1
  13   1   1 9.10190 1.43400   2
  14   1   1 34.7758 1.57494   2
  14   1   1 131.104 3.12405   1
  15   1   1 7.57606 1.03506   2
  15   1   1 22.3355 1.71355   1
  16   1   1 13.7292 1.66360   1
  16   1   1 9.44805 1.18254   2
  17   1   1 10.9229 1.42348   1
  17   1   1 3.91282 0.98586   2
  18   1   1 20.8990 2.23515   1
  18   1   1 7.91385 1.20894   2
  19   1   1 13.3503 1.79240   1
  19   1   1 4.21364 1.29436   2
  20   1   1 9.88943 1.65569   2
  20   1   1 33.8739 1.97095   1
  21   1   1 112.647 3.09456   1
  21   1   1 28.7639 1.84995   2
  22   1   1 11.8761 1.26295   1
  22   1   1 2.56445 0.88317   2
  23   1   1 93.6983 3.00859   1
  23   1   1 25.2924 1.50876   2
  24   1   1 23.8819 1.58456   1
  24   1   1 7.79393 1.15958   2
  25   1   1 49.6916 1.88323   1
  25   1   1 12.5598 1.18513   2
  26   1   1 18.1217 1.43785   2
  26   1   1 75.7810 3.93541   1
 -25   2   1 35.5173 1.64241   1
 -25   2   1 9.51805 1.11872   2
 -24   2   1 4.94577 0.83389   2
 -24   2   1 14.2501 1.39423   1
 -23   2   1 70.0583 2.51517   1
 -23   2   1 19.6579 1.42632   2
 -22   2   1 14.6154 1.48403   2
 -22   2   1 59.1467 2.39387   1
 -21   2   1 1.54248 1.21354   2
 -21   2   1 11.2511 2.40471   1
 -20   2   1 28.7127 2.51814   2
 -20   2   1 116.212 3.29142   1
 -19   2   1 17.0920 1.83369   1
 -19   2   1 4.90677 1.08072   2
 -18   2   1 2.93584 0.95947   2
 -18   2   1 14.1271 1.44379   1
 -17   2   1 151.175 3.15895   1
 -17   2   1 38.3293 1.72145   2
 -16   2   1 42.0367 1.69357   1
 -16   2   1 10.2302 1.16335   2
 -15   2   1 68.2012 1.77320   2
 -15   2   1 271.980 5.29929   1
 -14   2   1 64.3898 2.05500   1
 -14   2   1 16.9893 1.14366   2
 -13   2   1 18.4520 1.33177   2
 -13   2   1 74.6889 2.20585   1
 -12   2   1 17.0381 1.27701   2
 -12   2   1 75.2715 2.17050   1
 -11   2   1 44.8952 1.63468   2
 -11   2   1 168.018 3.68520   1
 -10   2   1 63.8408 2.51628   1
 -10   2   1 18.8152 1.58298   2
  -9   2   1 13.1613 1.36621   2
  -9   2   1 30.3247 1.47181   1
  -8   2   1 325.297 7.20783   1
  -8   2   1 80.7679 2.05927   2
  -7   2   1 213.524 4.37313   2
  -7   2   1 823.028 17.4276   1
  -6   2   1 5.54684 0.68401   2
  -6   2   1 21.1049 0.92429   1
  -5   2   1 1256.52 26.2568   1
  -5   2   1 327.379 6.38321   2
  -4   2   1 0.92292 0.40021   2
  -4   2   1 3.35651 0.52702   1
  -3   2   1 14.1493 0.79916   2
  -3   2   1 41.7050 1.71836   1
  -2   2   1 8.31216 0.73005   1
  -2   2   1 4.01383 0.70701   2
  -1   2   1 62.4199 1.86460   2
  -1   2   1 244.550 6.30329   1
   0   2   1 163.878 3.73439   2
   0   2   1 615.657 15.2988   1
   1   2   1 44.6876 1.48137   1
   1   2   1 11.4496 0.94265   2
   2   2   1 0.20783 0.43633   2
   2   2   1 1.48851 0.45515   1
   3   2   1 8.20548 0.67606   2
   3   2   1 33.9723 1.27660   1
   4   2   1 38.5673 1.19824   2
   4   2   1 152.178 3.53276   1
   5   2   1 1278.26 24.0250   1
   5   2   1 335.996 7.27876   2
   6   2   1 140.396 3.04321   1
   6   2   1 36.1335 1.16312   2
   7   2   1 8.27790 0.82541   2
   7   2   1 26.6746 1.15531   1
   8   2   1 18.3323 1.16438   2
   8   2   1 75.6103 2.28989   1
   9   2   1 10.8149 1.20043   2
   9   2   1 26.3341 1.72773   1
  10   2   1 65.6989 2.63003   2
  10   2   1 261.521 7.06657   1
  11   2   1 102.654 2.58583   1
  11   2   1 25.2314 1.36679   2
  12   2   1 32.4646 1.64117   1
  12   2   1 12.1134 1.20925   2
  13   2   1 39.4402 1.57683   1
  13   2   1 9.91602 1.13488   2
  14   2   1 459.287 7.07276   1
  14   2   1 115.012 2.70958   2
  15   2   1 9.38784 1.05948   1
  15   2   1 1.56552 0.89168   2
  16   2   1 23.1043 1.34848   2
  16   2   1 78.5091 2.24989   1
  17   2   1 60.3414 2.01809   2
  17   2   1 241.681 4.96834   1
  18   2   1 8.77207 1.31546   2
  18   2   1 19.1793 1.96241   1
  19   2   1 9.61365 1.30238   2
  19   2   1 20.9635 2.49847   1
  20   2   1 44.9005 3.17140   1
  20   2   1 8.86146 1.28714   2
  21   2   1 1.94075 1.03424   1
  21   2   1 1.73165 1.45663   2
  22   2   1 72.0369 2.63816   1
  22   2   1 19.1138 1.46512   2
  23   2   1 60.1672 2.07387   1
  23   2   1 15.2516 1.26747   2
  24   2   1 0.82189 0.69223   2
  24   2   1 2.87910 0.93856   1
  25   2   1 2.46596 0.82648   1
  25   2   1 -0.2013 0.75333   2
 -24   3   1 2.56802 0.71106   2
 -24   3   1 12.6078 1.73899   1
 -23   3   1 92.5626 3.22548   1
 -23   3   1 22.7790 1.50260   2
 -22   3   1 2.50102 0.88271   2
 -22   3   1 7.30812 2.23662   1
 -21   3   1 -0.0556 1.13085   2
 -21   3   1 1.93970 1.20539   1
 -20   3   1 14.9267 1.37949   2
 -20   3   1 59.5508 1.96008   1
 -19   3   1 8.98311 1.14506   1
 -19   3   1 2.67549 0.88998   2
 -18   3   1 54.3492 2.00337   1
 -18   3   1 14.3958 1.48746   2
 -17   3   1 14.2029 1.44680   2
 -17   3   1 53.9934 1.79414   1
 -16   3   1 25.6159 1.46427   1
 -16   3   1 14.0194 1.64810   2
 -15   3   1 1151.24 19.7780   1
 -15   3   1 284.507 6.12836   2
 -14   3   1 3.78829 0.88955   2
 -14   3   1 17.3975 1.46435   1
 -13   3   1 3.82945 0.93981   1
 -13   3   1 0.66093 0.82373   2
 -12   3   1 102.854 2.61170   1
 -12   3   1 26.1985 1.41836   2
 -11   3   1 18.5371 1.30403   2
 -11   3   1 63.8419 1.92030   1
 -10   3   1 35.0365 1.58532   1
 -10   3   1 9.21405 1.21233   2
  -9   3   1 17.6164 1.28797   2
  -9   3   1 66.1697 1.96054   1
  -8   3   1 29.0708 1.59650   1
  -8   3   1 8.42418 1.00042   2
  -7   3   1 94.1274 2.63790   2
  -7   3   1 380.087 7.04327   1
  -6   3   1 43.3570 2.43679   2
  -6   3   1 192.252 6.49914   1
  -5   3   1 3.64586 1.07605   2
  -5   3   1 10.9176 1.34314   1
  -4   3   1 83.7814 2.83263   2
  -4   3   1 326.328 8.38862   1
  -3   3   1 291.780 6.47434   1
  -3   3   1 76.7863 2.60887   2
  -2   3   1 129.849 2.94159   2
  -2   3   1 505.619 9.67570   1
  -1   3   1 32.9257 1.29946   1
  -1   3   1 10.0692 0.97773   2
   0   3   1 212.173 4.05967   1
   0   3   1 54.2478 1.55243   2
   1   3   1 17.4239 1.14115   2
   1   3   1 62.4459 1.71024   1
   2   3   1 203.038 4.19541   2
   2   3   1 829.223 20.2258   1
   3   3   1 174.808 4.12838   2
   3   3   1 754.003 18.4854   1
   4   3   1 7.86118 1.39172   1
   4   3   1 4.96617 1.08731   2
   5   3   1 62.8452 2.47533   2
   5   3   1 277.433 8.82074   1
   6   3   1 22.5593 1.86393   1
   6   3   1 6.01442 1.01900   2
   7   3   1 635.172 10.6717   1
   7   3   1 163.960 3.75054   2
   8   3   1 21.2979 1.34437   2
   8   3   1 75.8853 2.21655   1
   9   3   1 292.104 5.56431   1
   9   3   1 70.2892 1.93570   2
  10   3   1 1.27246 0.79744   2
  10   3   1 9.45259 1.13317   1
  11   3   1 22.3028 1.48596   1
  11   3   1 7.18583 0.98424   2
  12   3   1 93.7483 2.47609   1
  12   3   1 22.5733 1.36950   2
  13   3   1 139.841 3.19070   1
  13   3   1 36.0969 1.56433   2
  14   3   1 3.02885 0.86595   2
  14   3   1 13.4379 1.41973   1
  15   3   1 2.78273 0.94811   1
  15   3   1 2.99474 1.00730   2
  16   3   1 96.1673 2.88853   1
  16   3   1 27.8822 1.37475   2
  17   3   1 47.0622 1.59483   2
  17   3   1 204.097 4.79119   1
  18   3   1 4.68376 0.87852   2
  18   3   1 4.04799 1.03593   1
  19   3   1 15.5327 1.50387   2
  19   3   1 77.7476 2.47505   1
  20   3   1 76.4306 3.01453   1
  20   3   1 18.8483 1.46828   2
  21   3   1 2.64679 1.00265   2
  21   3   1 11.4159 1.67752   1
  22   3   1 1.97348 0.93705   1
  22   3   1 0.81351 0.79525   2
  23   3   1 9.59902 1.25849   2
  23   3   1 33.5475 1.51304   1
 -22   4   1 2.04723 0.74632   2
 -22   4   1 4.13946 1.15127   1
 -21   4   1 8.71147 1.10267   2
 -21   4   1 29.0969 2.27139   1
 -20   4   1 19.6872 1.37186   1
 -20   4   1 6.47338 1.14414   2
 -19   4   1 86.5850 2.39250   1
 -19   4   1 22.0711 1.27540   2
 -18   4   1 21.8799 1.33842   2
 -18   4   1 87.0988 2.49146   1
 -17   4   1 1.22515 0.77643   2
 -17   4   1 0.84673 0.86150   1
 -16   4   1 74.4157 2.12800   1
 -16   4   1 23.9986 1.47344   2
 -15   4   1 17.2586 1.28560   2
 -15   4   1 70.7655 2.12904   1
 -14   4   1 30.8380 1.48162   2
 -14   4   1 121.909 2.93469   1
 -13   4   1 253.618 5.05540   1
 -13   4   1 62.6835 1.93465   2
 -12   4   1 81.0587 2.21949   2
 -12   4   1 316.004 6.06632   1
 -11   4   1 22.1742 1.37373   2
 -11   4   1 83.9274 2.39307   1
 -10   4   1 35.7494 1.56320   2
 -10   4   1 149.782 3.39245   1
  -9   4   1 273.404 5.35685   1
  -9   4   1 67.0259 1.98536   2
  -8   4   1 28.1696 1.63260   1
  -8   4   1 7.82085 1.02328   2
  -7   4   1 34.5540 1.72738   1
  -7   4   1 12.8928 1.27771   2
  -6   4   1 13.7915 1.58976   1
  -6   4   1 5.49079 1.03405   2
  -5   4   1 11.2393 1.17753   2
  -5   4   1 35.1528 1.85789   1
  -4   4   1 1.05424 0.99381   2
  -4   4   1 6.58618 1.25664   1
  -3   4   1 2.33817 1.14221   2
  -3   4   1 11.8459 1.33754   1
  -2   4   1 3.89215 1.17590   1
  -2   4   1 0.84294 1.04745   2
  -1   4   1 12.8293 1.30526   1
  -1   4   1 2.26564 1.00185   2
   0   4   1 156.922 3.30697   1
   0   4   1 39.2820 1.70117   2
   1   4   1 33.0085 1.70403   2
   1   4   1 115.537 2.71566   1
   2   4   1 29.7665 1.58783   2
   2   4   1 111.582 2.95869   1
   3   4   1 75.8341 2.62025   1
   3   4   1 16.5301 1.56406   2
   4   4   1 288.210 5.56965   1
   4   4   1 71.5654 2.34020   2
   5   4   1 56.8920 2.09611   1
   5   4   1 15.1694 1.44408   2
   6   4   1 207.452 4.29558   1
   6   4   1 54.8747 2.03302   2
   7   4   1 3.09967 1.03305   1
   7   4   1 3.31805 0.94010   2
   8   4   1 60.3618 2.01218   1
   8   4   1 14.7552 1.29333   2
   9   4   1 94.7201 2.54183   1
   9   4   1 23.7590 1.43966   2
  10   4   1 141.292 3.23660   1
  10   4   1 36.1478 1.60430   2
  11   4   1 72.3948 2.19755   1
  11   4   1 20.5032 1.39146   2
  12   4   1 56.9982 1.87217   2
  12   4   1 238.956 4.81130   1
  13   4   1 327.951 6.24796   1
  13   4   1 83.5157 2.57262   2
  14   4   1 21.8467 1.46175   1
  14   4   1 7.24235 0.98407   2
  15   4   1 42.8761 1.96351   1
  15   4   1 9.03891 0.95882   2
  16   4   1 3.37729 0.76838   2
  16   4   1 8.99948 1.24130   1
  17   4   1 9.13690 1.03715   2
  17   4   1 28.1344 1.54393   1
  18   4   1 41.4396 1.69791   1
  18   4   1 10.8320 1.15819   2
  19   4   1 21.0319 1.39310   1
  19   4   1 4.25323 0.72514   2
  20   4   1 9.51678 1.51399   2
  20   4   1 29.7744 1.62158   1
  21   4   1 2.00547 0.91470   1
  21   4   1 1.21781 0.82722   2
 -18   5   1 0.56136 0.75390   2
 -18   5   1 8.63986 1.19473   1
 -17   5   1 1.32603 0.75304   1
 -17   5   1 1.27070 0.60983   2
 -16   5   1 17.8848 1.12213   2
 -16   5   1 66.4151 2.24294   1
 -15   5   1 8.38572 1.14754   2
 -15   5   1 2.23899 0.89234   1
 -14   5   1 2.42447 0.73134   2
 -14   5   1 4.08921 0.78567   1
 -13   5   1 0.50599 0.84538   1
 -13   5   1 0.05433 0.73068   2
 -12   5   1 126.331 3.18892   1
 -12   5   1 30.9620 1.39603   2
 -11   5   1 355.197 7.34127   1
 -11   5   1 86.3426 2.22347   2
 -10   5   1 40.7733 1.86385   1
 -10   5   1 11.3254 1.22597   2
  -9   5   1 18.3259 1.58929   1
  -9   5   1 4.15871 0.92114   2
  -8   5   1 25.4676 1.70834   1
  -8   5   1 8.37682 1.14657   2
  -7   5   1 177.122 4.20951   1
  -7   5   1 43.6852 1.78987   2
  -6   5   1 216.727 4.90348   1
  -6   5   1 53.5686 2.09424   2
  -5   5   1 2.14617 1.11985   1
  -5   5   1 1.23332 1.00282   2
  -4   5   1 11.5227 1.40253   2
  -4   5   1 36.7679 2.00652   1
  -3   5   1 5.70255 1.33118   2
  -3   5   1 18.3420 1.86771   1
  -2   5   1 64.7544 2.86812   1
  -2   5   1 17.3082 2.07240   2
  -1   5   1 24.8644 2.78875   2
  -1   5   1 100.312 3.60042   1
   0   5   1 124.688 4.94902   1
   0   5   1 34.8498 2.95607   2
   1   5   1 71.5261 3.11816   1
   1   5   1 18.5757 2.16337   2
   2   5   1 7.26012 1.27109   2
   2   5   1 26.2564 2.36159   1
   3   5   1 86.5185 2.64704   2
   3   5   1 349.435 8.49139   1
   4   5   1 18.0017 1.65204   2
   4   5   1 75.9494 2.69202   1
   5   5   1 167.813 4.16232   1
   5   5   1 43.4429 1.90638   2
   6   5   1 80.4145 2.45011   2
   6   5   1 312.705 5.99910   1
   7   5   1 -0.0938 0.88453   2
   7   5   1 0.68112 1.00235   1
   8   5   1 9.44230 1.16520   2
   8   5   1 34.2914 1.76207   1
   9   5   1 0.65968 0.87095   2
   9   5   1 2.85822 0.99784   1
  10   5   1 148.100 3.31630   1
  10   5   1 35.6428 1.65169   2
  11   5   1 25.8564 1.47335   2
  11   5   1 100.686 2.54291   1
  12   5   1 56.5102 2.07087   1
  12   5   1 13.8510 1.23101   2
  13   5   1 3.44403 0.90616   1
  13   5   1 1.41985 0.74239   2
  14   5   1 12.3563 1.29120   1
  14   5   1 2.88418 0.70249   2
  15   5   1 3.83284 0.77544   2
  15   5   1 14.9366 1.26078   1
  16   5   1 4.11163 0.82193   1
  16   5   1 0.94910 0.67251   2
  17   5   1 38.7958 1.53782   1
  17   5   1 10.8833 1.04018   2
  18   5   1 6.12684 0.99717   2
  18   5   1 25.7639 1.59095   1
 -14   6   1 3.15477 0.83339   1
 -14   6   1 -1.3191 0.94160   2
 -13   6   1 50.1385 2.03994   1
 -13   6   1 11.7050 1.23990   2
 -12   6   1 0.23018 0.80176   1
 -12   6   1 -0.1329 0.74536   2
 -11   6   1 0.97537 0.81358   2
 -11   6   1 0.94615 0.82751   1
 -10   6   1 2.09987 0.85240   2
 -10   6   1 0.09101 0.84008   1
  -9   6   1 10.9074 1.27525   2
  -9   6   1 45.3849 2.03098   1
  -8   6   1 14.0230 1.59468   1
  -8   6   1 4.96181 0.94736   2
  -7   6   1 137.762 3.90156   1
  -7   6   1 33.1335 1.81878   2
  -6   6   1 35.1111 2.08689   1
  -6   6   1 12.0215 1.63881   2
  -5   6   1 26.4626 2.02119   2
  -5   6   1 119.392 4.18163   1
  -4   6   1 4.44974 1.81764   2
  -4   6   1 16.2059 2.03128   1
  -3   6   1 25.8613 3.42279   1
   2   6   1 6.36601 1.97271   2
   3   6   1 21.2862 2.24875   2
   4   6   1 2.39957 1.26343   2
   4   6   1 2.95935 1.79222   1
   5   6   1 1.13778 1.07949   2
   5   6   1 1.78356 1.27823   1
   6   6   1 2.60002 1.03034   2
   6   6   1 10.7237 1.43561   1
   7   6   1 3.01697 1.09057   1
   7   6   1 2.01326 0.92563   2
   8   6   1 7.32959 1.26065   2
   8   6   1 29.3497 1.75992   1
   9   6   1 -0.3937 0.92910   1
   9   6   1 -0.4640 0.80170   2
  10   6   1 12.1232 1.44607   1
  10   6   1 0.89666 0.77530   2
  11   6   1 6.92908 1.03508   2
  11   6   1 23.1037 1.50770   1
  12   6   1 4.87133 0.90658   2
  12   6   1 24.3320 1.61297   1
  13   6   1 8.94781 1.28727   1
  13   6   1 1.95641 0.71715   2
  25   0   2 132.343 6.26151  -2
 -26   0   2 132.343 6.26151   1
  24   0   2 15.1604 2.62455  -2
 -25   0   2 15.1604 2.62455   1
  23   0   2 88.0947 5.15202  -2
 -24   0   2 88.0947 5.15202   1
  22   0   2 124.123 4.50949  -2
 -23   0   2 124.123 4.50949   1
  21   0   2 18.7625 2.58559  -2
 -22   0   2 18.7625 2.58559   1
  20   0   2 36.6323 3.05586  -2
 -21   0   2 36.6323 3.05586   1
  19   0   2 113.216 4.64685  -2
 -20   0   2 113.216 4.64685   1
  18   0   2 39.1663 2.99196  -2
 -19   0   2 39.1663 2.99196   1
  17   0   2 532.909 22.0870  -2
 -18   0   2 532.909 22.0870   1
  16   0   2 263.607 11.9215  -2
 -17   0   2 263.607 11.9215   1
  15   0   2 90.8214 5.85150  -2
 -16   0   2 90.8214 5.85150   1
  14   0   2 453.159 13.4325  -2
 -15   0   2 453.159 13.4325   1
  13   0   2 177.151 6.21607  -2
 -14   0   2 177.151 6.21607   1
  12   0   2 724.554 21.5557  -2
 -13   0   2 724.554 21.5557   1
  11   0   2 2505.60 72.2664  -2
 -12   0   2 2505.60 72.2664   1
  10   0   2 16.9957 1.60926  -2
 -11   0   2 16.9957 1.60926   1
   9   0   2 785.836 24.0116  -2
 -10   0   2 785.836 24.0116   1
   8   0   2 109.348 3.81993  -2
  -9   0   2 109.348 3.81993   1
   7   0   2 5765.92 173.679  -2
  -8   0   2 5765.92 173.679   1
   6   0   2 262.324 8.17995  -2
  -7   0   2 262.324 8.17995   1
   5   0   2 5165.61 155.694  -2
  -6   0   2 5165.61 155.694   1
   4   0   2 2505.31 75.8142  -2
  -5   0   2 2505.31 75.8142   1
   3   0   2 2106.90 63.6674  -2
  -4   0   2 2106.90 63.6674   1
   2   0   2 4143.80 125.921  -2
  -3   0   2 4143.80 125.921   1
  -1   0   2 321.953 9.66555   2
  -1   0   2 1019.51 43.3665   1
   0   0   2 748.394 22.5575   1
   0   0   2 135.253 5.79681   2
  -2   0   2 905.931 27.7996  -2
   1   0   2 905.931 27.7996   1
   1   0   2 235.672 7.11155   2
  -3   0   2 1109.72 33.7569  -2
   2   0   2 1109.72 33.7569   1
  -4   0   2 1935.01 58.3506  -2
   3   0   2 1935.01 58.3506   1
  -5   0   2 649.977 19.6774  -2
   4   0   2 649.977 19.6774   1
  -6   0   2 1953.10 58.6393  -2
   5   0   2 1953.10 58.6393   1
  -7   0   2 390.289 12.0169  -2
   6   0   2 390.289 12.0169   1
  -8   0   2 1599.42 48.1429  -2
   7   0   2 1599.42 48.1429   1
  -9   0   2 219.617 7.11517  -2
   8   0   2 219.617 7.11517   1
 -10   0   2 202.741 6.73414  -2
   9   0   2 202.741 6.73414   1
 -11   0   2 6.85255 2.18236  -2
  10   0   2 6.85255 2.18236   1
 -12   0   2 818.963 35.7123  -2
  11   0   2 818.963 35.7123   1
 -13   0   2 338.188 15.8726  -2
  12   0   2 338.188 15.8726   1
 -14   0   2 48.4571 5.08900  -2
  13   0   2 48.4571 5.08900   1
 -15   0   2 287.431 12.8813  -2
  14   0   2 287.431 12.8813   1
 -16   0   2 115.832 4.60130  -2
  15   0   2 115.832 4.60130   1
 -17   0   2 465.955 13.4132  -2
  16   0   2 465.955 13.4132   1
 -18   0   2 1058.29 28.7104  -2
  17   0   2 1058.29 28.7104   1
 -19   0   2 100.311 3.58850  -2
  18   0   2 100.311 3.58850   1
 -20   0   2 33.1900 2.48634  -2
  19   0   2 33.1900 2.48634   1
 -21   0   2 17.9501 2.48439  -2
  20   0   2 17.9501 2.48439   1
 -22   0   2 23.3533 2.54896  -2
  21   0   2 23.3533 2.54896   1
 -23   0   2 284.216 8.51026  -2
  22   0   2 284.216 8.51026   1
 -24   0   2 334.669 9.68396  -2
  23   0   2 334.669 9.68396   1
 -25   0   2 32.8418 2.23834  -2
  24   0   2 32.8418 2.23834   1
 -26   0   2 64.4508 2.75691  -2
  25   0   2 64.4508 2.75691   1
  25   1   2 9.17465 1.66596  -2
 -26   1   2 9.17465 1.66596   1
  24   1   2 33.9939 1.85060  -2
 -25   1   2 33.9939 1.85060   1
  23   1   2 26.5615 2.18764  -2
 -24   1   2 26.5615 2.18764   1
  22   1   2 5.18023 1.64261  -2
 -23   1   2 5.18023 1.64261   1
  21   1   2 9.26196 1.92472  -2
 -22   1   2 9.26196 1.92472   1
  20   1   2 82.1531 3.95641  -2
 -21   1   2 82.1531 3.95641   1
  19   1   2 31.4941 2.84227  -2
 -20   1   2 31.4941 2.84227   1
  18   1   2 26.5001 2.39661  -2
 -19   1   2 26.5001 2.39661   1
  17   1   2 36.4933 2.58020  -2
 -18   1   2 36.4933 2.58020   1
  16   1   2 166.084 4.26310  -2
 -17   1   2 166.084 4.26310   1
  15   1   2 174.487 4.39309  -2
 -16   1   2 174.487 4.39309   1
  14   1   2 160.709 4.72954  -2
 -15   1   2 160.709 4.72954   1
  13   1   2 103.439 3.45734  -2
 -14   1   2 103.439 3.45734   1
  12   1   2 29.0161 2.32508  -2
 -13   1   2 29.0161 2.32508   1
  11   1   2 139.206 4.22265  -2
 -12   1   2 139.206 4.22265   1
  10   1   2 1258.83 26.4712  -2
 -11   1   2 1258.83 26.4712   1
   9   1   2 9.19375 1.03936  -2
 -10   1   2 9.19375 1.03936   1
   8   1   2 1.66296 0.83972  -2
  -9   1   2 1.66296 0.83972   1
   7   1   2 177.213 4.10707  -2
  -8   1   2 177.213 4.10707   1
   6   1   2 108.428 2.60671  -2
  -7   1   2 108.428 2.60671   1
   5   1   2 502.831 10.8650  -2
  -6   1   2 502.831 10.8650   1
   4   1   2 430.643 9.30822  -2
  -5   1   2 430.643 9.30822   1
   3   1   2 2.29216 0.38170  -2
  -4   1   2 2.29216 0.38170   1
   2   1   2 243.617 6.13669  -2
  -3   1   2 243.617 6.13669   1
   1   1   2 3012.75 74.8269  -2
  -2   1   2 3012.75 74.8269   1
  -1   1   2 62.8523 3.03421   2
  -1   1   2 222.361 9.74766   1
   0   1   2 386.852 16.9350  -2
  -1   1   2 386.852 16.9350   1
   0   1   2 707.178 30.1749   1
  -1   1   2 668.366 29.0445  -2
   0   1   2 668.366 29.0445   1
   0   1   2 188.940 8.32343   2
  -2   1   2 3327.55 82.3795  -2
   1   1   2 3327.55 82.3795   1
   1   1   2 3130.78 133.163   1
  -3   1   2 779.723 16.6885  -2
   2   1   2 779.723 16.6885   1
  -4   1   2 4.48478 0.43550  -2
   3   1   2 4.48478 0.43550   1
  -5   1   2 1000.29 21.3513  -2
   4   1   2 1000.29 21.3513   1
  -6   1   2 239.061 5.30930  -2
   5   1   2 239.061 5.30930   1
  -7   1   2 245.833 5.49978  -2
   6   1   2 245.833 5.49978   1
  -8   1   2 666.615 14.4077  -2
   7   1   2 666.615 14.4077   1
  -9   1   2 4.14651 0.94806  -2
   8   1   2 4.14651 0.94806   1
 -10   1   2 10.0816 1.09196  -2
   9   1   2 10.0816 1.09196   1
 -11   1   2 657.367 16.1729  -2
  10   1   2 657.367 16.1729   1
 -12   1   2 41.4192 2.29205  -2
  11   1   2 41.4192 2.29205   1
 -13   1   2 18.7165 2.69108  -2
  12   1   2 18.7165 2.69108   1
 -14   1   2 34.4252 1.96961  -2
  13   1   2 34.4252 1.96961   1
 -15   1   2 90.7289 2.98031  -2
  14   1   2 90.7289 2.98031   1
 -16   1   2 85.2492 2.91577  -2
  15   1   2 85.2492 2.91577   1
 -17   1   2 430.641 10.3263  -2
  16   1   2 430.641 10.3263   1
 -18   1   2 44.3156 2.72996  -2
  17   1   2 44.3156 2.72996   1
 -19   1   2 43.0943 2.65513  -2
  18   1   2 43.0943 2.65513   1
 -20   1   2 12.7056 1.81348  -2
  19   1   2 12.7056 1.81348   1
 -21   1   2 45.8825 2.13267  -2
  20   1   2 45.8825 2.13267   1
 -22   1   2 21.4655 1.63276  -2
  21   1   2 21.4655 1.63276   1
 -23   1   2 13.0809 1.43368  -2
  22   1   2 13.0809 1.43368   1
 -24   1   2 7.90786 1.38835  -2
  23   1   2 7.90786 1.38835   1
 -25   1   2 17.9784 1.62093  -2
  24   1   2 17.9784 1.62093   1
 -26   1   2 31.2662 1.89087  -2
  25   1   2 31.2662 1.89087   1
  24   2   2 63.5442 2.20075  -2
 -25   2   2 63.5442 2.20075   1
  23   2   2 25.9035 1.66618  -2
 -24   2   2 25.9035 1.66618   1
  22   2   2 15.7568 1.66798  -2
 -23   2   2 15.7568 1.66798   1
  21   2   2 10.0418 2.33289  -2
 -22   2   2 10.0418 2.33289   1
  20   2   2 16.5825 3.04463  -2
 -21   2   2 16.5825 3.04463   1
  19   2   2 10.8518 2.21086  -2
 -20   2   2 10.8518 2.21086   1
  18   2   2 105.616 3.24101  -2
 -19   2   2 105.616 3.24101   1
  17   2   2 147.759 3.56270  -2
 -18   2   2 147.759 3.56270   1
  16   2   2 11.3292 1.80118  -2
 -17   2   2 11.3292 1.80118   1
  15   2   2 17.5385 1.72314  -2
 -16   2   2 17.5385 1.72314   1
  14   2   2 216.299 4.45416  -2
 -15   2   2 216.299 4.45416   1
  13   2   2 21.7888 1.68740  -2
 -14   2   2 21.7888 1.68740   1
  12   2   2 469.185 8.46954  -2
 -13   2   2 469.185 8.46954   1
  11   2   2 17.6575 1.63527  -2
 -12   2   2 17.6575 1.63527   1
  10   2   2 148.249 4.30246  -2
 -11   2   2 148.249 4.30246   1
   9   2   2 16.5459 1.68594  -2
 -10   2   2 16.5459 1.68594   1
   8   2   2 248.955 5.73368  -2
  -9   2   2 248.955 5.73368   1
   7   2   2 435.565 9.47949  -2
  -8   2   2 435.565 9.47949   1
   6   2   2 306.276 6.76110  -2
  -7   2   2 306.276 6.76110   1
   5   2   2 60.2312 1.77229  -2
  -6   2   2 60.2312 1.77229   1
   4   2   2 439.694 9.42735  -2
  -5   2   2 439.694 9.42735   1
   3   2   2 436.991 13.4624  -2
  -4   2   2 436.991 13.4624   1
   2   2   2 150.844 4.94274  -2
  -3   2   2 150.844 4.94274   1
   1   2   2 295.709 9.24329  -2
  -2   2   2 295.709 9.24329   1
   0   2   2 500.933 10.8658  -2
  -1   2   2 500.933 10.8658   1
  -1   2   2 624.687 15.5508  -2
   0   2   2 624.687 15.5508   1
  -2   2   2 85.8212 3.04087  -2
   1   2   2 85.8212 3.04087   1
  -3   2   2 111.042 3.80623  -2
   2   2   2 111.042 3.80623   1
  -4   2   2 220.324 5.67622  -2
   3   2   2 220.324 5.67622   1
  -5   2   2 463.142 8.93565  -2
   4   2   2 463.142 8.93565   1
  -6   2   2 75.2197 1.90760  -2
   5   2   2 75.2197 1.90760   1
  -7   2   2 295.661 5.93259  -2
   6   2   2 295.661 5.93259   1
  -8   2   2 141.983 3.55486  -2
   7   2   2 141.983 3.55486   1
  -9   2   2 564.140 14.0029  -2
   8   2   2 564.140 14.0029   1
 -10   2   2 17.8817 1.86531  -2
   9   2   2 17.8817 1.86531   1
 -11   2   2 540.327 9.80855  -2
  10   2   2 540.327 9.80855   1
 -12   2   2 53.8781 1.98443  -2
  11   2   2 53.8781 1.98443   1
 -13   2   2 127.780 3.05211  -2
  12   2   2 127.780 3.05211   1
 -14   2   2 36.9854 1.91408  -2
  13   2   2 36.9854 1.91408   1
 -15   2   2 644.046 10.4701  -2
  14   2   2 644.046 10.4701   1
 -16   2   2 38.4414 2.02927  -2
  15   2   2 38.4414 2.02927   1
 -17   2   2 48.0342 2.03484  -2
  16   2   2 48.0342 2.03484   1
 -18   2   2 148.943 3.62749  -2
  17   2   2 148.943 3.62749   1
 -19   2   2 103.982 3.02817  -2
  18   2   2 103.982 3.02817   1
 -20   2   2 16.2558 2.42385  -2
  19   2   2 16.2558 2.42385   1
 -21   2   2 14.9810 2.03174  -2
  20   2   2 14.9810 2.03174   1
 -22   2   2 7.11039 1.95429  -2
  21   2   2 7.11039 1.95429   1
 -23   2   2 8.69148 1.83145  -2
  22   2   2 8.69148 1.83145   1
 -24   2   2 77.4363 2.54549  -2
  23   2   2 77.4363 2.54549   1
 -25   2   2 54.0784 2.33508  -2
  24   2   2 54.0784 2.33508   1
  23   3   2 53.9229 2.39829  -2
 -24   3   2 53.9229 2.39829   1
  22   3   2 14.6006 1.74777  -2
 -23   3   2 14.6006 1.74777   1
  21   3   2 37.4660 2.25828  -2
 -22   3   2 37.4660 2.25828   1
  20   3   2 62.0740 2.78479  -2
 -21   3   2 62.0740 2.78479   1
  19   3   2 60.6361 2.43761  -2
 -20   3   2 60.6361 2.43761   1
  18   3   2 126.301 3.09222  -2
 -19   3   2 126.301 3.09222   1
  17   3   2 32.8730 1.88418  -2
 -18   3   2 32.8730 1.88418   1
  16   3   2 46.7278 2.04518  -2
 -17   3   2 46.7278 2.04518   1
  15   3   2 283.591 5.55278  -2
 -16   3   2 283.591 5.55278   1
  14   3   2 53.6747 2.07067  -2
 -15   3   2 53.6747 2.07067   1
  13   3   2 53.6705 2.03730  -2
 -14   3   2 53.6705 2.03730   1
  12   3   2 6.54101 1.68931  -2
 -13   3   2 6.54101 1.68931   1
  11   3   2 143.732 3.32223  -2
 -12   3   2 143.732 3.32223   1
  10   3   2 148.799 3.38638  -2
 -11   3   2 148.799 3.38638   1
   9   3   2 50.4090 1.85966  -2
 -10   3   2 50.4090 1.85966   1
   8   3   2 138.454 3.00908  -2
  -9   3   2 138.454 3.00908   1
   7   3   2 30.7053 1.80143  -2
  -8   3   2 30.7053 1.80143   1
   6   3   2 64.7305 2.23133  -2
  -7   3   2 64.7305 2.23133   1
   5   3   2 117.341 3.90250  -2
  -6   3   2 117.341 3.90250   1
   4   3   2 264.310 7.06083  -2
  -5   3   2 264.310 7.06083   1
   3   3   2 137.436 3.55017  -2
  -4   3   2 137.436 3.55017   1
   2   3   2 24.6212 1.42831  -2
  -3   3   2 24.6212 1.42831   1
   1   3   2 836.056 15.6894  -2
  -2   3   2 836.056 15.6894   1
   0   3   2 775.137 14.5834  -2
  -1   3   2 775.137 14.5834   1
  -1   3   2 241.669 4.95911  -2
   0   3   2 241.669 4.95911   1
  -2   3   2 510.282 11.0826  -2
   1   3   2 510.282 11.0826   1
  -3   3   2 16.2158 1.73133  -2
   2   3   2 16.2158 1.73133   1
  -4   3   2 120.708 4.39625  -2
   3   3   2 120.708 4.39625   1
  -5   3   2 83.8524 3.52727  -2
   4   3   2 83.8524 3.52727   1
  -6   3   2 32.7196 2.41983  -2
   5   3   2 32.7196 2.41983   1
  -7   3   2 206.196 4.76026  -2
   6   3   2 206.196 4.76026   1
  -8   3   2 40.5896 1.76588  -2
   7   3   2 40.5896 1.76588   1
  -9   3   2 95.5240 2.50546  -2
   8   3   2 95.5240 2.50546   1
 -10   3   2 29.3504 1.64965  -2
   9   3   2 29.3504 1.64965   1
 -11   3   2 166.953 3.61696  -2
  10   3   2 166.953 3.61696   1
 -12   3   2 145.415 3.30963  -2
  11   3   2 145.415 3.30963   1
 -13   3   2 4.63249 1.66155  -2
  12   3   2 4.63249 1.66155   1
 -14   3   2 75.5312 2.57828  -2
  13   3   2 75.5312 2.57828   1
 -15   3   2 46.0761 2.17288  -2
  14   3   2 46.0761 2.17288   1
 -16   3   2 252.882 5.68511  -2
  15   3   2 252.882 5.68511   1
 -17   3   2 85.0921 2.79970  -2
  16   3   2 85.0921 2.79970   1
 -18   3   2 127.911 4.12240  -2
  17   3   2 127.911 4.12240   1
 -19   3   2 54.9216 2.66368  -2
  18   3   2 54.9216 2.66368   1
 -20   3   2 101.979 3.48602  -2
  19   3   2 101.979 3.48602   1
 -21   3   2 56.7448 2.44043  -2
  20   3   2 56.7448 2.44043   1
 -22   3   2 35.5938 2.21049  -2
  21   3   2 35.5938 2.21049   1
 -23   3   2 18.2700 1.72670  -2
  22   3   2 18.2700 1.72670   1
 -24   3   2 31.6306 1.49942  -2
  23   3   2 31.6306 1.49942   1
  21   4   2 5.24997 1.82708  -2
 -22   4   2 5.24997 1.82708   1
  20   4   2 24.2984 2.61405  -2
 -21   4   2 24.2984 2.61405   1
  19   4   2 10.1901 1.89990  -2
 -20   4   2 10.1901 1.89990   1
  18   4   2 35.0088 1.80041  -2
 -19   4   2 35.0088 1.80041   1
  17   4   2 3.74022 1.46350  -2
 -18   4   2 3.74022 1.46350   1
  16   4   2 31.1126 1.74126  -2
 -17   4   2 31.1126 1.74126   1
  15   4   2 18.1518 1.67870  -2
 -16   4   2 18.1518 1.67870   1
  14   4   2 69.2474 2.24573  -2
 -15   4   2 69.2474 2.24573   1
  13   4   2 181.909 3.96266  -2
 -14   4   2 181.909 3.96266   1
  12   4   2 12.3584 1.57804  -2
 -13   4   2 12.3584 1.57804   1
  11   4   2 269.564 5.36817  -2
 -12   4   2 269.564 5.36817   1
  10   4   2 228.097 4.71988  -2
 -11   4   2 228.097 4.71988   1
   9   4   2 22.2947 1.63599  -2
 -10   4   2 22.2947 1.63599   1
   8   4   2 11.6451 1.56428  -2
  -9   4   2 11.6451 1.56428   1
   7   4   2 15.2410 1.62386  -2
  -8   4   2 15.2410 1.62386   1
   6   4   2 113.400 2.87344  -2
  -7   4   2 113.400 2.87344   1
   5   4   2 69.3381 2.24666  -2
  -6   4   2 69.3381 2.24666   1
   4   4   2 96.2505 2.60342  -2
  -5   4   2 96.2505 2.60342   1
   3   4   2 30.2227 1.82286  -2
  -4   4   2 30.2227 1.82286   1
   2   4   2 32.4049 1.71334  -2
  -3   4   2 32.4049 1.71334   1
   1   4   2 6.22945 1.53295  -2
  -2   4   2 6.22945 1.53295   1
   0   4   2 77.9958 2.32985  -2
  -1   4   2 77.9958 2.32985   1
  -1   4   2 105.018 2.61316  -2
   0   4   2 105.018 2.61316   1
  -2   4   2 21.8356 1.88911  -2
   1   4   2 21.8356 1.88911   1
  -3   4   2 67.1262 2.18672  -2
   2   4   2 67.1262 2.18672   1
  -4   4   2 40.8041 2.00815  -2
   3   4   2 40.8041 2.00815   1
  -5   4   2 283.535 6.18973  -2
   4   4   2 283.535 6.18973   1
  -6   4   2 251.234 5.02348  -2
   5   4   2 251.234 5.02348   1
  -7   4   2 422.182 7.76716  -2
   6   4   2 422.182 7.76716   1
  -8   4   2 6.53221 1.57196  -2
   7   4   2 6.53221 1.57196   1
  -9   4   2 14.5928 1.60968  -2
   8   4   2 14.5928 1.60968   1
 -10   4   2 12.5750 1.58394  -2
   9   4   2 12.5750 1.58394   1
 -11   4   2 148.437 3.39629  -2
  10   4   2 148.437 3.39629   1
 -12   4   2 73.2991 2.53109  -2
  11   4   2 73.2991 2.53109   1
 -13   4   2 7.19245 1.64599  -2
  12   4   2 7.19245 1.64599   1
 -14   4   2 205.417 4.81401  -2
  13   4   2 205.417 4.81401   1
 -15   4   2 38.1820 1.97144  -2
  14   4   2 38.1820 1.97144   1
 -16   4   2 7.64834 1.58599  -2
  15   4   2 7.64834 1.58599   1
 -17   4   2 8.04946 1.44926  -2
  16   4   2 8.04946 1.44926   1
 -18   4   2 1.62520 1.63999  -2
  17   4   2 1.62520 1.63999   1
 -19   4   2 22.1207 1.87813  -2
  18   4   2 22.1207 1.87813   1
 -20   4   2 9.84297 1.40472  -2
  19   4   2 9.84297 1.40472   1
 -21   4   2 5.13527 1.34570  -2
  20   4   2 5.13527 1.34570   1
 -22   4   2 5.86496 1.46429  -2
  21   4   2 5.86496 1.46429   1
  17   5   2 15.4491 2.31393  -2
 -18   5   2 15.4491 2.31393   1
  16   5   2 23.7332 1.58445  -2
 -17   5   2 23.7332 1.58445   1
  15   5   2 6.05124 1.35682  -2
 -16   5   2 6.05124 1.35682   1
  14   5   2 29.8193 1.79078  -2
 -15   5   2 29.8193 1.79078   1
  13   5   2 56.7206 2.31924  -2
 -14   5   2 56.7206 2.31924   1
  12   5   2 115.905 3.01660  -2
 -13   5   2 115.905 3.01660   1
  11   5   2 49.1405 1.96427  -2
 -12   5   2 49.1405 1.96427   1
  10   5   2 12.0225 1.53775  -2
 -11   5   2 12.0225 1.53775   1
   9   5   2 12.9604 1.59113  -2
 -10   5   2 12.9604 1.59113   1
   8   5   2 25.4094 1.81657  -2
  -9   5   2 25.4094 1.81657   1
   7   5   2 3.32460 1.49178  -2
  -8   5   2 3.32460 1.49178   1
   6   5   2 85.0147 2.68165  -2
  -7   5   2 85.0147 2.68165   1
   5   5   2 98.3633 2.91709  -2
  -6   5   2 98.3633 2.91709   1
   4   5   2 124.914 3.39171  -2
  -5   5   2 124.914 3.39171   1
   3   5   2 73.4790 2.67781  -2
  -4   5   2 73.4790 2.67781   1
   2   5   2 147.505 3.87059  -2
  -3   5   2 147.505 3.87059   1
   1   5   2 70.9811 3.14855  -2
  -2   5   2 70.9811 3.14855   1
   0   5   2 111.885 3.37749  -2
  -1   5   2 111.885 3.37749   1
  -1   5   2 41.0547 2.79213  -2
   0   5   2 41.0547 2.79213   1
  -2   5   2 49.9217 2.46438  -2
   1   5   2 49.9217 2.46438   1
  -3   5   2 156.888 4.03658  -2
   2   5   2 156.888 4.03658   1
  -4   5   2 47.1636 2.30143  -2
   3   5   2 47.1636 2.30143   1
  -5   5   2 127.512 3.40777  -2
   4   5   2 127.512 3.40777   1
  -6   5   2 65.9270 2.45020  -2
   5   5   2 65.9270 2.45020   1
  -7   5   2 117.795 3.28257  -2
   6   5   2 117.795 3.28257   1
  -8   5   2 3.50073 1.56716  -2
   7   5   2 3.50073 1.56716   1
  -9   5   2 81.4559 2.69952  -2
   8   5   2 81.4559 2.69952   1
 -10   5   2 1.80127 1.59890  -2
   9   5   2 1.80127 1.59890   1
 -11   5   2 24.9659 1.75593  -2
  10   5   2 24.9659 1.75593   1
 -12   5   2 41.5476 1.90309  -2
  11   5   2 41.5476 1.90309   1
 -13   5   2 410.632 8.42951  -2
  12   5   2 410.632 8.42951   1
 -14   5   2 24.8124 1.52384  -2
  13   5   2 24.8124 1.52384   1
 -15   5   2 69.7291 2.17992  -2
  14   5   2 69.7291 2.17992   1
 -16   5   2 8.02144 1.53457  -2
  15   5   2 8.02144 1.53457   1
 -17   5   2 16.1965 1.61190  -2
  16   5   2 16.1965 1.61190   1
 -18   5   2 21.1791 1.53118  -2
  17   5   2 21.1791 1.53118   1
  18   5   2 11.7797 1.77769   1
  13   6   2 59.2914 2.25988  -2
 -14   6   2 59.2914 2.25988   1
  12   6   2 1.77425 1.29526  -2
 -13   6   2 1.77425 1.29526   1
  11   6   2 12.3403 1.45281  -2
 -12   6   2 12.3403 1.45281   1
  10   6   2 33.9491 1.78049  -2
 -11   6   2 33.9491 1.78049   1
   9   6   2 7.99911 1.43271  -2
 -10   6   2 7.99911 1.43271   1
   8   6   2 1.80671 1.42594  -2
  -9   6   2 1.80671 1.42594   1
   7   6   2 3.77475 1.37863  -2
  -8   6   2 3.77475 1.37863   1
   6   6   2 84.6975 2.83637  -2
  -7   6   2 84.6975 2.83637   1
   5   6   2 68.2815 2.88506  -2
  -6   6   2 68.2815 2.88506   1
   4   6   2 136.414 4.64880  -2
  -5   6   2 136.414 4.64880   1
   3   6   2 154.094 5.14446  -2
  -4   6   2 154.094 5.14446   1
   2   6   2 15.0423 2.71214  -2
  -3   6   2 15.0423 2.71214   1
   1   6   2 124.101 6.03237  -2
  -2   6   2 124.101 6.03237   1
  -4   6   2 32.6591 4.82841  -2
   3   6   2 32.6591 4.82841   1
  -5   6   2 53.8594 3.24341  -2
   4   6   2 53.8594 3.24341   1
  -6   6   2 55.5328 3.01675  -2
   5   6   2 55.5328 3.01675   1
  -7   6   2 65.0724 2.47620  -2
   6   6   2 65.0724 2.47620   1
  -8   6   2 4.80264 1.59255  -2
   7   6   2 4.80264 1.59255   1
  -9   6   2 1.10686 1.58929  -2
   8   6   2 1.10686 1.58929   1
 -10   6   2 15.5732 1.68633  -2
   9   6   2 15.5732 1.68633   1
 -11   6   2 112.625 4.11950  -2
  10   6   2 112.625 4.11950   1
 -12   6   2 9.73338 2.32325  -2
  11   6   2 9.73338 2.32325   1
 -13   6   2 5.90558 1.94322  -2
  12   6   2 5.90558 1.94322   1
 -14   6   2 25.8116 2.26972  -2
  13   6   2 25.8116 2.26972   1
 -27   0   3 -0.7973 1.11513   1
 -26   0   3 1.82369 1.51358   2
 -26   0   3 1.99771 1.17626   1
 -25   0   3 -0.6096 0.94254   2
 -25   0   3 -0.5585 1.21877   1
 -24   0   3 7.56100 1.99576   2
 -24   0   3 3.89738 1.61653   1
 -23   0   3 0.96777 1.10317   2
 -23   0   3 -0.3270 1.71243   1
 -22   0   3 0.27869 1.90812   1
 -22   0   3 1.07958 1.30010   2
 -21   0   3 0.45746 1.71521   1
 -21   0   3 0.45962 1.17215   2
 -20   0   3 5.04649 1.29875   2
 -20   0   3 1.19025 1.95935   1
 -19   0   3 2.19216 1.65666   1
 -19   0   3 12.0764 1.99407   2
 -18   0   3 1.76083 1.38919   2
 -18   0   3 0.50650 2.02522   1
 -17   0   3 2.07895 1.34520   2
 -17   0   3 1.52884 1.78232   1
 -16   0   3 1.09301 1.39609   2
 -16   0   3 4.83175 1.75884   1
 -15   0   3 2.00565 1.60676   1
 -15   0   3 -2.0319 1.42885   2
 -14   0   3 1.06514 1.44084   1
 -14   0   3 -0.0238 1.53734   2
 -13   0   3 -0.6420 1.85860   2
 -13   0   3 1.45256 1.32844   1
 -12   0   3 9.10064 1.43003   1
 -12   0   3 6.38051 2.26901   2
 -11   0   3 6.09152 1.02666   1
 -11   0   3 2.03809 1.20170   2
 -10   0   3 1.61167 0.79037   2
 -10   0   3 6.28475 0.82787   1
  -9   0   3 0.29157 0.64561   1
  -9   0   3 0.34086 0.59357   2
  -8   0   3 1.86769 0.53185   1
  -8   0   3 0.67578 0.45965   2
  -7   0   3 1.20544 0.42216   1
  -7   0   3 0.55131 0.38651   2
  -6   0   3 1.62783 0.38081   1
  -6   0   3 2.44682 0.65904   2
  -5   0   3 2.74405 0.45209   2
  -5   0   3 0.76944 0.28985   1
  -4   0   3 2.44507 0.40671   1
  -4   0   3 2.67720 0.57538   2
  -3   0   3 0.42970 0.19502   2
  -3   0   3 1.04670 0.25651   1
  -2   0   3 0.31272 0.24451   1
  -2   0   3 -0.0484 0.16080   2
  -1   0   3 0.31967 0.17596   2
  -1   0   3 1.55775 0.37614   1
   0   0   3 0.56047 0.17479   2
   0   0   3 2.75177 0.29879   1
   1   0   3 1.77541 0.31899   1
   1   0   3 0.46687 0.18797   2
   2   0   3 3.84096 0.40979   1
   2   0   3 0.99963 0.25734   2
   3   0   3 1.47212 0.33224   2
   3   0   3 4.40928 0.47072   1
   4   0   3 2.67124 0.47651   1
   4   0   3 0.94976 0.33931   2
   5   0   3 0.84710 0.36198   2
   5   0   3 0.25355 0.40218   1
   6   0   3 0.64287 0.47283   1
   6   0   3 0.16360 0.39580   2
   7   0   3 8.15054 1.28419   2
   7   0   3 4.83544 1.48890   1
   8   0   3 2.80888 0.79815   2
   8   0   3 2.55500 0.72801   1
   9   0   3 2.69116 0.85333   2
   9   0   3 0.33573 0.82961   1
  10   0   3 0.62691 0.88159   2
  10   0   3 3.45509 1.37180   1
  11   0   3 4.56757 1.96768   1
  11   0   3 9.85260 2.87049   2
  12   0   3 0.66572 1.08840   2
  13   0   3 -0.0074 1.37103   2
  13   0   3 1.36093 1.80532   1
  14   0   3 -1.1273 1.65583   1
  14   0   3 -0.3637 1.39249   2
  15   0   3 0.59653 1.60964   1
  15   0   3 2.79302 1.48974   2
  16   0   3 0.01575 1.57467   1
  16   0   3 3.85874 1.92243   2
  17   0   3 -0.8325 1.50840   1
  17   0   3 -0.6857 1.56511   2
  18   0   3 9.05976 1.49942   1
  18   0   3 3.03053 1.36587   2
  19   0   3 5.10280 1.70978   1
  19   0   3 -1.7998 1.38557   2
  20   0   3 -0.1986 1.29100   1
  20   0   3 1.28221 1.26138   2
  21   0   3 0.72785 1.49978   2
  21   0   3 1.36164 1.28433   1
  22   0   3 0.61496 1.22581   1
  22   0   3 -1.5128 1.29834   2
  23   0   3 0.52667 1.21115   2
  23   0   3 1.23591 1.11784   1
  24   0   3 0.32901 1.05193   2
  24   0   3 0.50624 1.06922   1
  25   0   3 1.91033 1.19112   1
  25   0   3 6.65230 1.56669   2
 -26   1   3 17.6544 1.55187   1
 -26   1   3 5.72294 1.11974   2
 -25   1   3 2.50746 0.74739   2
 -25   1   3 7.13608 2.36838   1
 -24   1   3 34.1854 1.31473   2
 -24   1   3 134.177 3.73711   1
 -23   1   3 17.0621 1.19828   2
 -23   1   3 68.5768 2.54055   1
 -22   1   3 10.1338 1.21280   2
 -22   1   3 25.1528 1.99273   1
 -21   1   3 18.7969 1.54390   2
 -21   1   3 64.0505 3.37179   1
 -20   1   3 32.3163 1.74990   2
 -20   1   3 114.128 3.91099   1
 -19   1   3 16.0423 2.17165   1
 -19   1   3 5.13244 1.04423   2
 -18   1   3 289.870 7.54268   1
 -18   1   3 75.4371 2.82517   2
 -17   1   3 18.8943 1.73040   2
 -17   1   3 21.2024 1.75964   1
 -16   1   3 289.072 6.27123   1
 -16   1   3 67.4250 2.12255   2
 -15   1   3 362.250 7.55135   1
 -15   1   3 87.3352 2.21350   2
 -14   1   3 87.0712 3.02930   1
 -14   1   3 26.7898 1.54919   2
 -13   1   3 88.5206 3.12835   1
 -13   1   3 28.2699 1.71794   2
 -12   1   3 84.6235 2.51541   1
 -12   1   3 21.5875 1.78484   2
 -11   1   3 251.824 6.61365   2
 -11   1   3 888.470 16.6144   1
 -10   1   3 93.4636 2.24822   1
 -10   1   3 23.6631 1.27588   2
  -9   1   3 454.178 8.78979   2
  -9   1   3 1810.17 33.8808   1
  -8   1   3 33.6011 1.04009   1
  -8   1   3 12.3928 0.76958   2
  -7   1   3 56.7827 1.53685   2
  -7   1   3 233.000 5.21012   1
  -6   1   3 805.168 17.2048   1
  -6   1   3 210.452 4.69113   2
  -5   1   3 82.1300 1.95893   2
  -5   1   3 327.404 7.10410   1
  -4   1   3 50.0683 1.40497   1
  -4   1   3 16.1004 0.57531   2
  -3   1   3 225.596 5.62625   1
  -3   1   3 61.4688 1.46751   2
  -2   1   3 750.358 15.9434   2
  -2   1   3 2971.83 89.0868   1
  -1   1   3 2801.98 83.7322   2
  -1   1   3 9999.99 423.555   1
   0   1   3 144.203 6.50572   2
   0   1   3 522.133 15.7481   1
   1   1   3 91.6191 2.91344   2
   1   1   3 331.780 7.14298   1
   2   1   3 952.671 23.3159   2
   2   1   3 3844.61 81.6304   1
   3   1   3 738.751 15.7697   1
   3   1   3 194.776 4.91461   2
   4   1   3 10.8056 0.58506   1
   4   1   3 3.94372 0.40773   2
   5   1   3 11.6300 0.57671   2
   5   1   3 39.7215 1.18131   1
   6   1   3 83.6142 2.13598   1
   6   1   3 20.6725 0.75994   2
   7   1   3 0.03502 0.37165   2
   7   1   3 2.72153 0.49885   1
   8   1   3 4.33441 0.76492   1
   8   1   3 3.22068 0.64537   2
   9   1   3 46.1986 1.77298   1
   9   1   3 13.6239 1.05412   2
  10   1   3 5.99677 0.89880   2
  10   1   3 18.3587 1.67179   1
  11   1   3 846.467 20.7917   1
  11   1   3 216.349 5.04975   2
  12   1   3 45.1975 2.37667   2
  12   1   3 196.131 4.54035   1
 -14   1   3 47.1076 8.28985  -2
  13   1   3 47.1076 8.28985   1
  13   1   3 12.4568 1.46994   2
  13   1   3 37.7385 1.84050   1
  14   1   3 16.4669 1.38606   1
  14   1   3 9.83802 1.34877   2
  15   1   3 203.231 4.84750   1
  15   1   3 58.1835 1.98958   2
  16   1   3 178.649 4.44032   1
  16   1   3 45.6406 2.27403   2
  17   1   3 5.57400 1.22018   2
  17   1   3 21.7042 1.82741   1
  18   1   3 186.789 4.49626   1
  18   1   3 51.0121 2.51197   2
  19   1   3 16.5878 1.71552   1
  19   1   3 7.37752 1.57333   2
  20   1   3 189.609 4.48646   1
  20   1   3 46.6978 2.61311   2
  21   1   3 124.656 2.87508   1
  21   1   3 31.7311 1.80192   2
  22   1   3 -0.4495 0.79044   1
  22   1   3 0.25354 0.79011   2
  23   1   3 2.42347 0.79159   1
  23   1   3 0.78311 0.73903   2
  24   1   3 21.4511 1.53903   2
  24   1   3 90.6030 2.67646   1
  25   1   3 18.2951 1.33108   2
  25   1   3 79.0774 2.78448   1
 -25   2   3 76.8457 2.33907   1
 -25   2   3 19.8884 1.20137   2
 -24   2   3 2.60312 0.85326   1
 -24   2   3 2.47485 0.71856   2
 -23   2   3 109.076 3.27674   1
 -23   2   3 26.0812 1.77724   2
 -22   2   3 29.6499 2.27481   1
 -22   2   3 7.77794 1.09018   2
 -21   2   3 17.3521 2.03376   1
 -21   2   3 7.83479 1.22605   2
 -20   2   3 84.2658 2.76860   1
 -20   2   3 21.6227 1.75471   2
 -19   2   3 102.929 3.03592   2
 -19   2   3 406.583 8.61567   1
 -18   2   3 4.07669 0.95291   2
 -18   2   3 15.9956 1.38929   1
 -17   2   3 37.3674 1.79777   1
 -17   2   3 12.4130 1.29654   2
 -16   2   3 198.426 4.05431   2
 -16   2   3 775.251 15.1919   1
 -15   2   3 2.10105 0.93444   1
 -15   2   3 1.46410 0.89317   2
 -14   2   3 38.8897 1.76319   1
 -14   2   3 15.9443 1.36186   2
 -13   2   3 96.8390 2.19292   2
 -13   2   3 351.986 6.56613   1
 -12   2   3 8.03564 1.07783   1
 -12   2   3 1.89321 0.80139   2
 -11   2   3 7.51295 1.02249   2
 -11   2   3 4.68210 0.90389   1
 -10   2   3 34.4411 1.73116   1
 -10   2   3 9.06800 1.55258   2
  -9   2   3 57.0807 1.95345   2
  -9   2   3 221.326 5.14340   1
  -8   2   3 19.0997 1.13898   1
  -8   2   3 6.81663 0.98864   2
  -7   2   3 97.9283 2.29977   2
  -7   2   3 383.284 8.31388   1
  -6   2   3 18.4136 0.88397   2
  -6   2   3 65.5648 1.81659   1
  -5   2   3 22.1970 0.92380   1
  -5   2   3 13.2360 0.83569   2
  -4   2   3 17.8650 0.85906   2
  -4   2   3 49.2660 1.67186   1
  -3   2   3 44.5750 1.53463   1
  -3   2   3 18.8158 0.96886   2
  -2   2   3 1071.99 22.8660   1
  -2   2   3 295.146 7.47245   2
  -1   2   3 307.864 6.77557   1
  -1   2   3 85.5622 2.38650   2
   0   2   3 41.9431 1.20167   2
   0   2   3 153.231 4.04725   1
   1   2   3 36.1718 1.09270   2
   1   2   3 141.788 3.28063   1
   2   2   3 45.6202 1.55046   2
   2   2   3 174.348 4.59492   1
   3   2   3 431.191 9.29370   1
   3   2   3 108.419 2.99804   2
   4   2   3 119.011 2.62274   1
   4   2   3 29.9605 1.06026   2
   5   2   3 151.792 3.52565   2
   5   2   3 615.728 11.8071   1
   6   2   3 176.266 4.18182   1
   6   2   3 42.7918 1.41010   2
   7   2   3 17.1051 1.13630   2
   7   2   3 67.1343 2.12465   1
   8   2   3 2.45644 1.02992   1
   8   2   3 0.44628 0.76291   2
   9   2   3 26.2685 1.99464   1
   9   2   3 5.21267 1.00542   2
  10   2   3 395.063 6.70601   1
  10   2   3 97.2199 2.17202   2
  11   2   3 9.37491 1.02487   1
  11   2   3 2.91856 0.82002   2
  12   2   3 13.2108 1.25627   2
  12   2   3 64.6842 2.13799   1
  13   2   3 8.18322 1.03532   2
  13   2   3 33.9384 1.79321   1
  14   2   3 10.9677 1.22756   2
  14   2   3 34.4604 1.79985   1
  15   2   3 186.895 4.00786   1
  15   2   3 50.2612 1.83699   2
  16   2   3 34.2480 1.84643   1
  16   2   3 10.7115 1.23007   2
  17   2   3 11.4032 1.21220   2
  17   2   3 52.3088 2.09116   1
  18   2   3 4.39161 1.40598   1
  18   2   3 1.42743 0.96884   2
  19   2   3 12.6544 1.55859   2
  19   2   3 49.1629 2.39169   1
  20   2   3 3.68160 1.16486   2
  20   2   3 13.5160 1.68815   1
  21   2   3 0.35575 0.97272   2
  21   2   3 5.07804 1.02845   1
  22   2   3 15.9173 1.30514   2
  22   2   3 60.9695 2.19566   1
  23   2   3 1.67831 0.71665   2
  23   2   3 8.95804 1.17516   1
  24   2   3 6.76075 1.26323   2
  24   2   3 15.2882 1.35420   1
 -24   3   3 5.09557 1.18135   1
 -24   3   3 0.71489 0.71987   2
 -23   3   3 2.05187 1.21973   1
 -23   3   3 0.69184 0.70713   2
 -22   3   3 1.16900 1.11388   1
 -22   3   3 -0.0555 0.82663   2
 -21   3   3 9.59015 1.21726   2
 -21   3   3 28.8986 1.56881   1
 -20   3   3 4.71585 1.16720   2
 -20   3   3 24.1992 1.50312   1
 -19   3   3 8.35502 1.07197   2
 -19   3   3 35.7388 1.49451   1
 -18   3   3 2.70361 0.85238   1
 -18   3   3 0.71940 1.01558   2
 -17   3   3 22.4117 1.52338   1
 -17   3   3 5.35682 0.97791   2
 -16   3   3 96.4773 2.55369   1
 -16   3   3 23.1083 1.49125   2
 -15   3   3 2.82342 0.97951   1
 -15   3   3 0.77503 0.88231   2
 -14   3   3 53.1401 1.85676   2
 -14   3   3 210.449 4.36345   1
 -13   3   3 22.5560 1.31110   2
 -13   3   3 84.4724 2.21713   1
 -12   3   3 33.6643 1.42730   2
 -12   3   3 146.540 3.04019   1
 -11   3   3 2.96837 0.82203   2
 -11   3   3 12.8327 1.22319   1
 -10   3   3 11.5812 1.17132   1
 -10   3   3 4.01498 0.83599   2
  -9   3   3 32.7531 1.34746   2
  -9   3   3 113.225 2.69724   1
  -8   3   3 367.446 6.75220   1
  -8   3   3 87.0501 2.12539   2
  -7   3   3 88.1981 2.34151   2
  -7   3   3 376.957 7.62102   1
  -6   3   3 55.0375 2.24819   2
  -6   3   3 207.791 4.59337   1
  -5   3   3 3.83414 1.01766   2
  -5   3   3 13.0658 1.46193   1
  -4   3   3 1.64946 0.92701   2
  -4   3   3 2.39081 0.76369   1
  -3   3   3 145.158 4.09144   2
  -3   3   3 586.503 11.1422   1
  -2   3   3 347.682 6.80336   1
  -2   3   3 89.1369 2.47508   2
  -1   3   3 95.2881 2.32794   1
  -1   3   3 25.8042 1.20498   2
   0   3   3 7.55259 0.87113   1
   0   3   3 2.60831 0.68277   2
   1   3   3 18.6097 1.13174   2
   1   3   3 72.5743 2.24957   1
   2   3   3 6.50355 0.83051   2
   2   3   3 13.7646 1.47814   1
   3   3   3 107.364 2.55936   2
   3   3   3 439.751 11.0949   1
   4   3   3 234.687 6.39318   1
   4   3   3 61.8937 2.48309   2
   5   3   3 10.4858 1.19528   2
   5   3   3 21.8662 1.63934   1
   6   3   3 27.9026 1.68030   1
   6   3   3 8.09838 1.03810   2
   7   3   3 78.1888 1.99011   1
   7   3   3 17.7063 1.27789   2
   8   3   3 6.92964 0.90061   2
   8   3   3 30.1249 1.52843   1
   9   3   3 -0.1867 0.79843   2
   9   3   3 1.25534 1.02226   1
  10   3   3 26.6955 1.46329   1
  10   3   3 6.20222 0.90743   2
  11   3   3 0.40699 0.78481   2
  11   3   3 -0.3116 0.89097   1
  12   3   3 27.2261 1.48300   2
  12   3   3 110.325 2.54065   1
  13   3   3 5.76023 0.99977   2
  13   3   3 18.1741 1.60529   1
  14   3   3 56.0873 1.85494   2
  14   3   3 227.291 4.67981   1
  15   3   3 36.9087 1.60192   2
  15   3   3 139.571 3.28805   1
  16   3   3 0.27147 0.79791   2
  16   3   3 0.84010 1.18664   1
  17   3   3 30.0133 1.37983   2
  17   3   3 127.724 3.40898   1
  18   3   3 0.90120 0.78867   2
  18   3   3 2.93669 1.30145   1
  19   3   3 22.2649 1.65806   1
  19   3   3 5.80891 0.86383   2
  20   3   3 1.69918 0.95627   1
  20   3   3 -0.9251 0.77552   2
  21   3   3 2.75639 1.01181   2
  21   3   3 17.7543 1.66778   1
  22   3   3 15.3421 1.45948   1
  22   3   3 5.24575 0.80801   2
  23   3   3 1.15759 0.76635   1
  23   3   3 1.32924 0.87576   2
 -22   4   3 19.1559 1.24142   2
 -21   4   3 22.0944 1.23370   2
 -21   4   3 81.6248 2.94427   1
 -20   4   3 17.3864 1.37092   1
 -20   4   3 6.11783 0.88629   2
 -19   4   3 19.9237 1.34156   1
 -19   4   3 11.2290 1.54752   2
 -18   4   3 37.9573 1.37153   1
 -18   4   3 16.5191 1.26033   2
 -17   4   3 70.2966 1.86260   1
 -17   4   3 21.7837 1.37242   2
 -16   4   3 107.481 2.65418   1
 -16   4   3 36.1335 1.68760   2
 -15   4   3 10.5817 1.85484   2
 -15   4   3 4.94711 0.92319   1
 -14   4   3 147.641 3.37925   1
 -14   4   3 42.9844 1.82760   2
 -13   4   3 30.9331 1.66172   2
 -13   4   3 110.719 2.81275   1
 -12   4   3 6.26223 0.89317   2
 -12   4   3 19.7022 1.47102   1
 -11   4   3 33.4720 1.56927   2
 -11   4   3 134.931 3.13488   1
 -10   4   3 46.9295 1.75444   2
 -10   4   3 182.579 3.88980   1
  -9   4   3 132.071 3.08377   1
  -9   4   3 32.1068 1.60536   2
  -8   4   3 39.5717 1.58683   2
  -8   4   3 157.817 3.47182   1
  -7   4   3 1.61300 0.89458   2
  -7   4   3 4.81545 0.98736   1
  -6   4   3 28.0890 1.59315   1
  -6   4   3 15.4017 1.33967   2
  -5   4   3 88.8848 2.13058   2
  -5   4   3 329.974 6.22597   1
  -4   4   3 150.262 3.06820   1
  -4   4   3 43.3449 1.63568   2
  -3   4   3 13.5133 1.34847   1
  -3   4   3 13.5664 1.36158   2
  -2   4   3 27.6505 1.56674   1
  -2   4   3 13.8465 1.44732   2
  -1   4   3 164.464 3.31779   1
  -1   4   3 45.6078 1.68311   2
   0   4   3 258.212 5.08290   1
   0   4   3 70.5056 1.91571   2
   1   4   3 148.026 3.38362   1
   1   4   3 41.3757 1.57767   2
   2   4   3 10.0130 1.06263   2
   2   4   3 16.2395 1.41521   1
   3   4   3 72.5371 2.10788   1
   3   4   3 22.0157 1.35612   2
   4   4   3 509.600 8.33547   1
   4   4   3 121.309 2.79727   2
   5   4   3 304.308 5.33096   1
   5   4   3 77.0587 2.13522   2
   6   4   3 47.8017 1.95449   1
   6   4   3 14.5991 1.28342   2
   7   4   3 0.67751 0.96320   2
   7   4   3 0.94104 0.97044   1
   8   4   3 -0.1207 0.83086   2
   8   4   3 1.99874 1.01215   1
   9   4   3 253.233 5.04439   1
   9   4   3 62.9013 1.99497   2
  10   4   3 180.158 3.88384   1
  10   4   3 44.6615 1.72247   2
  11   4   3 2.53094 0.93436   1
  11   4   3 0.69391 0.84802   2
  12   4   3 15.0493 1.62691   1
  12   4   3 3.20361 0.84466   2
  13   4   3 26.7698 1.48184   2
  13   4   3 106.066 3.05224   1
  14   4   3 22.5258 1.42268   2
  14   4   3 99.8831 2.88625   1
  15   4   3 6.70287 1.13752   1
  15   4   3 0.58588 0.74213   2
  16   4   3 10.8348 0.97764   2
  16   4   3 38.0307 1.74307   1
  17   4   3 44.2783 1.80424   1
  17   4   3 11.2647 1.12595   2
  18   4   3 40.0488 1.68145   1
  18   4   3 7.35862 0.98171   2
  19   4   3 28.2313 1.54293   1
  19   4   3 8.88144 0.93219   2
  20   4   3 7.85169 1.02086   1
  20   4   3 3.64965 2.49265   2
 -19   5   3 14.8484 1.30227   2
 -19   5   3 49.8692 1.95314   1
 -18   5   3 2.18362 0.99961   2
 -18   5   3 2.56344 0.80543   1
 -17   5   3 4.06467 0.81003   2
 -17   5   3 15.6799 1.28742   1
 -16   5   3 1.23712 0.62534   2
 -16   5   3 4.86899 0.77489   1
 -15   5   3 1.67177 0.68456   2
 -15   5   3 5.40806 0.95128   1
 -14   5   3 19.5114 1.29646   1
 -14   5   3 9.04293 1.29548   2
 -13   5   3 14.4443 1.26817   2
 -13   5   3 40.2053 1.67057   1
 -12   5   3 12.3310 1.26339   1
 -12   5   3 2.00154 0.80888   2
 -11   5   3 1.60525 0.88632   1
 -11   5   3 0.21471 0.81825   2
 -10   5   3 3.94110 0.90509   2
 -10   5   3 14.2094 1.44974   1
  -9   5   3 13.7957 1.24949   1
  -9   5   3 5.96277 1.04144   2
  -8   5   3 3.70815 0.99960   1
  -8   5   3 0.63852 0.93580   2
  -7   5   3 175.797 3.79052   1
  -7   5   3 41.8581 2.17047   2
  -6   5   3 2.21205 1.00563   2
  -6   5   3 7.52999 1.09858   1
  -5   5   3 2.10483 1.02826   2
  -5   5   3 8.60366 1.14287   1
  -4   5   3 29.0723 1.76901   1
  -4   5   3 8.12719 1.26388   2
  -3   5   3 -0.8023 0.98653   2
  -3   5   3 3.11577 1.10476   1
  -2   5   3 74.4687 2.36506   1
  -2   5   3 15.4370 1.50626   2
  -1   5   3 183.064 3.96831   1
  -1   5   3 43.8546 2.09715   2
   0   5   3 35.2051 1.78653   2
   0   5   3 140.459 3.69517   1
   1   5   3 28.7679 1.88118   1
   1   5   3 9.01245 1.18262   2
   2   5   3 10.1787 1.37607   1
   2   5   3 2.64662 1.01362   2
   3   5   3 17.5087 1.49650   2
   3   5   3 67.3932 2.28817   1
   4   5   3 3.40731 0.93541   2
   4   5   3 9.22507 1.43821   1
   5   5   3 11.2730 1.48139   1
   5   5   3 2.85994 0.94590   2
  -7   5   3 141.854 8.68945  -2
   6   5   3 141.854 8.68945   1
   6   5   3 27.7310 1.55325   2
   6   5   3 106.262 3.51847   1
   7   5   3 6.47123 0.98951   2
   7   5   3 23.8423 1.81685   1
   8   5   3 152.651 3.86271   1
   8   5   3 37.0681 1.73488   2
   9   5   3 6.95542 1.08190   2
   9   5   3 8.60368 1.23043   1
  10   5   3 74.5666 2.40059   1
  10   5   3 17.5475 1.28392   2
  11   5   3 23.9304 1.34949   2
  11   5   3 106.280 2.90313   1
  12   5   3 3.40373 0.88344   1
  12   5   3 1.20888 0.70683   2
  13   5   3 110.931 2.88296   1
  13   5   3 28.3879 1.32937   2
  14   5   3 10.2572 1.22104   1
  14   5   3 3.76421 0.69057   2
  15   5   3 1.06427 0.68723   1
  15   5   3 1.73865 0.66394   2
  16   5   3 13.5601 1.11393   2
  16   5   3 59.1512 1.87106   1
  17   5   3 3.17135 1.20750   1
  17   5   3 1.88561 0.69225   2
 -14   6   3 2.13229 1.07771   2
 -14   6   3 15.2071 1.24327   1
 -13   6   3 -0.4124 0.72752   1
 -13   6   3 0.49800 1.08811   2
 -12   6   3 8.14152 3.00507   2
 -12   6   3 6.76842 1.23695   1
 -11   6   3 -0.6510 1.05530   2
 -11   6   3 0.99065 0.77806   1
 -10   6   3 -0.1556 0.75557   1
 -10   6   3 1.40886 0.94356   2
  -9   6   3 26.3444 1.46139   1
  -9   6   3 5.08933 1.22695   2
  -8   6   3 11.3085 1.31086   1
  -8   6   3 3.34781 1.29756   2
  -7   6   3 9.02930 1.15463   1
  -7   6   3 0.60440 1.39562   2
  -6   6   3 2.95619 1.57532   2
  -6   6   3 -1.0993 0.95880   1
  -5   6   3 30.2705 1.80132   1
  -5   6   3 8.65942 1.80555   2
  -4   6   3 0.02217 1.29511   1
  -4   6   3 0.73832 2.65005   2
  -3   6   3 17.9658 2.92140   1
  -3   6   3 6.58020 3.15707   2
  -2   6   3 18.1539 2.97977   1
  -1   6   3 4.87718 2.03308   1
  -1   6   3 3.73401 1.89071   2
   0   6   3 20.9118 2.83308   2
   1   6   3 1.49499 1.57745   2
   2   6   3 68.3799 5.63092   1
   2   6   3 12.7816 2.48206   2
   3   6   3 6.09186 1.12669   2
   3   6   3 24.4304 4.07416   1
   4   6   3 51.3498 3.22248   1
   4   6   3 10.4972 1.92855   2
   5   6   3 55.1597 3.16221   1
   5   6   3 14.0780 1.35825   2
   6   6   3 0.58199 0.77880   2
   6   6   3 2.34982 1.55268   1
   7   6   3 0.53803 0.76179   2
   7   6   3 6.55368 1.47113   1
   8   6   3 8.54780 1.23833   1
   8   6   3 2.75761 0.73567   2
   9   6   3 1.73132 0.67833   2
   9   6   3 1.70801 1.02896   1
  10   6   3 18.4689 1.94616   1
  10   6   3 3.57588 0.75673   2
  11   6   3 1.97117 0.68499   2
  11   6   3 7.28163 1.54874   1
  12   6   3 3.93850 0.80820   2
  12   6   3 30.6247 2.35502   1
  25   0   4 247.065 10.4300  -2
 -27   0   4 247.065 10.4300   1
  24   0   4 137.561 6.59253  -2
 -26   0   4 137.561 6.59253   1
 -26   0   4 37.2150 2.40944   2
 -25   0   4 12.5786 1.99327   2
  23   0   4 31.8645 3.42201  -2
 -25   0   4 31.8645 3.42201   1
  22   0   4 25.4241 3.39738  -2
 -24   0   4 25.4241 3.39738   1
  21   0   4 211.283 10.0748  -2
 -23   0   4 211.283 10.0748   1
 -23   0   4 54.1641 3.60313   2
  20   0   4 48.6660 4.45393  -2
 -22   0   4 48.6660 4.45393   1
  19   0   4 83.1956 5.89140  -2
 -21   0   4 83.1956 5.89140   1
  18   0   4 109.000 6.47716  -2
 -20   0   4 109.000 6.47716   1
  17   0   4 149.077 7.84709  -2
 -19   0   4 149.077 7.84709   1
  16   0   4 339.008 10.6892  -2
 -18   0   4 339.008 10.6892   1
  15   0   4 24.2352 3.23069  -2
 -17   0   4 24.2352 3.23069   1
  14   0   4 84.4897 4.25956  -2
 -16   0   4 84.4897 4.25956   1
  13   0   4 77.0450 3.99688  -2
 -15   0   4 77.0450 3.99688   1
  12   0   4 386.057 16.3078  -2
 -14   0   4 386.057 16.3078   1
  11   0   4 388.524 12.0760  -2
 -13   0   4 388.524 12.0760   1
  10   0   4 237.828 7.69716  -2
 -12   0   4 237.828 7.69716   1
   9   0   4 2642.22 63.0255  -2
 -11   0   4 2642.22 63.0255   1
   8   0   4 1520.95 36.4464  -2
 -10   0   4 1520.95 36.4464   1
   7   0   4 1687.61 40.3398  -2
  -9   0   4 1687.61 40.3398   1
   6   0   4 71.7113 2.70163  -2
  -8   0   4 71.7113 2.70163   1
   5   0   4 687.087 20.8525  -2
  -7   0   4 687.087 20.8525   1
   4   0   4 591.160 17.9637  -2
  -6   0   4 591.160 17.9637   1
   3   0   4 904.874 27.3322  -2
  -5   0   4 904.874 27.3322   1
   2   0   4 815.441 34.8742  -2
  -4   0   4 815.441 34.8742   1
  -3   0   4 555.165 16.7179   2
  -3   0   4 1908.87 80.9474   1
  -2   0   4 1670.52 50.1242   1
  -2   0   4 418.720 12.6235   2
  -1   0   4 1389.24 58.8667   2
  -1   0   4 5042.39 213.472   1
   0   0   4 1746.71 52.4580   1
   0   0   4 464.270 13.9732   2
   1   0   4 459.687 13.8808   1
   1   0   4 117.620 5.17700   2
   2   0   4 718.103 30.5062   2
  -4   0   4 2909.46 87.8406  -2
   2   0   4 2909.46 87.8406   1
  -5   0   4 897.399 27.0961  -2
   3   0   4 897.399 27.0961   1
  -6   0   4 852.417 25.7796  -2
   4   0   4 852.417 25.7796   1
  -7   0   4 2122.19 63.7224  -2
   5   0   4 2122.19 63.7224   1
  -8   0   4 49.3106 2.11961  -2
   6   0   4 49.3106 2.11961   1
  -9   0   4 455.308 14.1219  -2
   7   0   4 455.308 14.1219   1
 -10   0   4 682.044 20.9820  -2
   8   0   4 682.044 20.9820   1
 -11   0   4 999.152 43.1130  -2
   9   0   4 999.152 43.1130   1
 -12   0   4 972.743 42.2340  -2
  10   0   4 972.743 42.2340   1
 -13   0   4 94.7662 4.27316  -2
  11   0   4 94.7662 4.27316   1
 -14   0   4 99.9382 4.54082  -2
  12   0   4 99.9382 4.54082   1
 -15   0   4 103.123 4.70287  -2
  13   0   4 103.123 4.70287   1
 -16   0   4 155.141 5.82857  -2
  14   0   4 155.141 5.82857   1
 -17   0   4 62.0722 3.90799  -2
  15   0   4 62.0722 3.90799   1
 -18   0   4 499.491 14.4156  -2
  16   0   4 499.491 14.4156   1
 -19   0   4 555.303 12.8320  -2
  17   0   4 555.303 12.8320   1
 -20   0   4 398.766 9.58268  -2
  18   0   4 398.766 9.58268   1
 -21   0   4 210.445 5.79352  -2
  19   0   4 210.445 5.79352   1
 -22   0   4 130.709 5.11892  -2
  20   0   4 130.709 5.11892   1
  21   0   4 33.3949 3.12687   1
 -23   0   4 69.9074 3.82676  -2
  21   0   4 69.9074 3.82676   1
  22   0   4 59.2029 3.61396   1
 -24   0   4 57.8254 4.97772  -2
  22   0   4 57.8254 4.97772   1
 -25   0   4 47.4936 4.59113  -2
  23   0   4 47.4936 4.59113   1
  23   0   4 42.5534 2.99844   1
 -26   0   4 109.800 6.20368  -2
  24   0   4 109.800 6.20368   1
  24   0   4 78.9852 3.85227   1
  25   0   4 8.25733 1.95962   1
 -26   1   4 -0.3500 0.94404   2
  24   1   4 5.51951 1.85101  -2
 -26   1   4 5.51951 1.85101   1
 -25   1   4 8.75910 2.03810   2
  23   1   4 8.35782 1.99791  -2
 -25   1   4 8.35782 1.99791   1
  22   1   4 10.5587 2.16876  -2
 -24   1   4 10.5587 2.16876   1
 -24   1   4 2.67245 0.96274   2
 -24   1   4 10.3664 2.84791   1
  21   1   4 71.2518 3.58082  -2
 -23   1   4 71.2518 3.58082   1
 -23   1   4 23.4891 1.71754   2
 -23   1   4 70.1781 4.32037   1
  20   1   4 176.142 6.25993  -2
 -22   1   4 176.142 6.25993   1
 -22   1   4 156.731 7.32520   1
  19   1   4 136.899 5.39097  -2
 -21   1   4 136.899 5.39097   1
  18   1   4 22.6549 2.64121  -2
 -20   1   4 22.6549 2.64121   1
  17   1   4 26.1045 2.61429  -2
 -19   1   4 26.1045 2.61429   1
  16   1   4 108.340 3.83272  -2
 -18   1   4 108.340 3.83272   1
  15   1   4 820.347 19.2428  -2
 -17   1   4 820.347 19.2428   1
  14   1   4 168.050 4.89462  -2
 -16   1   4 168.050 4.89462   1
  13   1   4 78.4912 3.18989  -2
 -15   1   4 78.4912 3.18989   1
  12   1   4 59.1100 2.45004  -2
 -14   1   4 59.1100 2.45004   1
  11   1   4 186.471 4.68951  -2
 -13   1   4 186.471 4.68951   1
  10   1   4 547.650 11.6799  -2
 -12   1   4 547.650 11.6799   1
   9   1   4 11.1774 1.38898  -2
 -11   1   4 11.1774 1.38898   1
   8   1   4 29.0837 1.37409  -2
 -10   1   4 29.0837 1.37409   1
   7   1   4 352.446 6.27023  -2
  -9   1   4 352.446 6.27023   1
   6   1   4 164.226 3.41258  -2
  -8   1   4 164.226 3.41258   1
   5   1   4 23.5658 0.90262  -2
  -7   1   4 23.5658 0.90262   1
   4   1   4 226.182 5.80840  -2
  -6   1   4 226.182 5.80840   1
  -6   1   4 209.986 9.46776   1
   3   1   4 138.885 4.36265  -2
  -5   1   4 138.885 4.36265   1
  -5   1   4 77.9800 3.86566   1
   2   1   4 341.999 10.5878  -2
  -4   1   4 341.999 10.5878   1
  -4   1   4 40.2665 1.62301   2
  -4   1   4 135.589 6.23147   1
  -3   1   4 1444.68 61.3702   1
  -3   1   4 411.944 12.6107   2
  -2   1   4 1218.34 36.5063   2
  -2   1   4 4365.38 130.902   1
  -1   1   4 326.627 14.2958   1
  -1   1   4 71.8741 3.57008   2
   0   1   4 3368.41 143.307   1
   0   1   4 824.099 24.8768   2
   1   1   4 4239.56 127.333   1
  -3   1   4 5664.73 172.592  -2
   1   1   4 5664.73 172.592   1
   1   1   4 1336.65 56.7967   2
   2   1   4 190.403 8.52736   2
   2   1   4 773.447 23.4359   1
  -4   1   4 771.260 23.3444  -2
   2   1   4 771.260 23.3444   1
  -5   1   4 246.244 6.27592  -2
   3   1   4 246.244 6.27592   1
   3   1   4 48.0260 2.62635   2
   3   1   4 229.196 10.2457   1
  -6   1   4 148.508 3.44151  -2
   4   1   4 148.508 3.44151   1
   4   1   4 22.1560 1.67878   2
  -7   1   4 87.5799 2.25026  -2
   5   1   4 87.5799 2.25026   1
  -8   1   4 580.838 12.6337  -2
   6   1   4 580.838 12.6337   1
  -9   1   4 465.723 9.06070  -2
   7   1   4 465.723 9.06070   1
 -10   1   4 12.9937 1.43151  -2
   8   1   4 12.9937 1.43151   1
 -11   1   4 22.9039 2.05963  -2
   9   1   4 22.9039 2.05963   1
 -12   1   4 365.506 9.55493  -2
  10   1   4 365.506 9.55493   1
 -13   1   4 69.3140 3.11064  -2
  11   1   4 69.3140 3.11064   1
 -14   1   4 165.516 4.40967  -2
  12   1   4 165.516 4.40967   1
 -15   1   4 211.779 4.74578  -2
  13   1   4 211.779 4.74578   1
 -16   1   4 120.297 3.72311  -2
  14   1   4 120.297 3.72311   1
 -17   1   4 352.842 7.55243  -2
  15   1   4 352.842 7.55243   1
 -18   1   4 398.101 7.48809  -2
  16   1   4 398.101 7.48809   1
 -19   1   4 10.2260 1.89664  -2
  17   1   4 10.2260 1.89664   1
 -20   1   4 53.9191 2.40516  -2
  18   1   4 53.9191 2.40516   1
 -21   1   4 86.8677 2.95024  -2
  19   1   4 86.8677 2.95024   1
 -22   1   4 99.0693 2.70048  -2
  20   1   4 99.0693 2.70048   1
  21   1   4 22.3968 1.92073   1
 -23   1   4 31.3421 2.48118  -2
  21   1   4 31.3421 2.48118   1
  22   1   4 14.0099 1.63224   1
 -24   1   4 14.6618 2.47853  -2
  22   1   4 14.6618 2.47853   1
  22   1   4 4.11917 1.89196   2
  23   1   4 21.7060 1.64806   1
 -25   1   4 26.7906 3.38211  -2
  23   1   4 26.7906 3.38211   1
  24   1   4 11.3836 1.37834   1
 -26   1   4 11.9472 3.17159  -2
  24   1   4 11.9472 3.17159   1
  23   2   4 10.2943 2.04464  -2
 -25   2   4 10.2943 2.04464   1
 -25   2   4 2.36939 1.07228   2
 -25   2   4 7.06413 1.81345   1
 -24   2   4 13.0370 1.79511   2
 -24   2   4 36.1049 2.89455   1
  22   2   4 38.4958 2.63146  -2
 -24   2   4 38.4958 2.63146   1
  21   2   4 35.9348 2.85151  -2
 -23   2   4 35.9348 2.85151   1
 -23   2   4 6.66095 1.29339   2
  20   2   4 9.47046 2.27167  -2
 -22   2   4 9.47046 2.27167   1
 -22   2   4 4.85386 1.75982   2
  19   2   4 52.3835 2.92676  -2
 -21   2   4 52.3835 2.92676   1
  18   2   4 20.5989 2.48258  -2
 -20   2   4 20.5989 2.48258   1
  17   2   4 12.8671 2.19851  -2
 -19   2   4 12.8671 2.19851   1
  16   2   4 19.3776 2.42581  -2
 -18   2   4 19.3776 2.42581   1
  15   2   4 107.438 2.95116  -2
 -17   2   4 107.438 2.95116   1
  14   2   4 528.945 9.57663  -2
 -16   2   4 528.945 9.57663   1
  13   2   4 49.7962 2.16970  -2
 -15   2   4 49.7962 2.16970   1
  12   2   4 40.4613 2.12309  -2
 -14   2   4 40.4613 2.12309   1
  11   2   4 322.295 6.18359  -2
 -13   2   4 322.295 6.18359   1
  10   2   4 96.0188 2.81056  -2
 -12   2   4 96.0188 2.81056   1
   9   2   4 54.9112 2.38451  -2
 -11   2   4 54.9112 2.38451   1
   8   2   4 40.1024 2.14447  -2
 -10   2   4 40.1024 2.14447   1
   7   2   4 25.7992 1.58779  -2
  -9   2   4 25.7992 1.58779   1
   6   2   4 203.358 4.21862  -2
  -8   2   4 203.358 4.21862   1
   5   2   4 245.444 5.53957  -2
  -7   2   4 245.444 5.53957   1
   4   2   4 211.459 5.51259  -2
  -6   2   4 211.459 5.51259   1
   3   2   4 275.497 6.98510  -2
  -5   2   4 275.497 6.98510   1
  -4   2   4 703.445 30.5061   1
   2   2   4 708.138 20.7233  -2
  -4   2   4 708.138 20.7233   1
  -4   2   4 180.630 8.58004   2
  -3   2   4 58.9860 3.64087   2
   1   2   4 218.061 4.90310  -2
  -3   2   4 218.061 4.90310   1
  -3   2   4 230.048 10.5945   1
   0   2   4 62.2417 1.71488  -2
  -2   2   4 62.2417 1.71488   1
  -2   2   4 54.6530 3.30551   1
  -1   2   4 151.045 3.95580  -2
  -1   2   4 151.045 3.95580   1
  -1   2   4 120.303 4.29830   1
  -2   2   4 21.2483 0.93407  -2
   0   2   4 21.2483 0.93407   1
  -3   2   4 63.1684 2.49821  -2
   1   2   4 63.1684 2.49821   1
  -4   2   4 355.229 10.7147  -2
   2   2   4 355.229 10.7147   1
   2   2   4 186.266 8.90327   1
  -5   2   4 304.956 7.76792  -2
   3   2   4 304.956 7.76792   1
  -6   2   4 831.565 17.5953  -2
   4   2   4 831.565 17.5953   1
  -7   2   4 74.3248 2.22309  -2
   5   2   4 74.3248 2.22309   1
  -8   2   4 515.089 11.2006  -2
   6   2   4 515.089 11.2006   1
  -9   2   4 12.3322 2.07731  -2
   7   2   4 12.3322 2.07731   1
 -10   2   4 146.286 5.37752  -2
   8   2   4 146.286 5.37752   1
 -11   2   4 164.019 3.41521  -2
   9   2   4 164.019 3.41521   1
 -12   2   4 257.560 5.14197  -2
  10   2   4 257.560 5.14197   1
 -13   2   4 485.395 8.04305  -2
  11   2   4 485.395 8.04305   1
 -14   2   4 31.3964 1.86286  -2
  12   2   4 31.3964 1.86286   1
 -15   2   4 76.8921 2.53225  -2
  13   2   4 76.8921 2.53225   1
 -16   2   4 157.819 4.09947  -2
  14   2   4 157.819 4.09947   1
 -17   2   4 357.443 7.69871  -2
  15   2   4 357.443 7.69871   1
 -18   2   4 24.8620 2.39525  -2
  16   2   4 24.8620 2.39525   1
 -19   2   4 47.3353 2.90059  -2
  17   2   4 47.3353 2.90059   1
 -20   2   4 103.111 3.62197  -2
  18   2   4 103.111 3.62197   1
 -21   2   4 19.2960 2.06240  -2
  19   2   4 19.2960 2.06240   1
 -22   2   4 19.2035 2.36324  -2
  20   2   4 19.2035 2.36324   1
  20   2   4 16.1249 3.01658   1
  21   2   4 1.40610 1.15136   1
 -23   2   4 6.30282 2.72104  -2
  21   2   4 6.30282 2.72104   1
 -24   2   4 40.8857 2.55452  -2
  22   2   4 40.8857 2.55452   1
  22   2   4 29.1198 2.53269   1
  23   2   4 0.15476 1.06281   1
  23   2   4 -0.7325 1.48173   2
 -25   2   4 2.12245 1.99734  -2
  23   2   4 2.12245 1.99734   1
  24   2   4 14.0093 1.28444   1
  24   2   4 3.90342 1.01675   2
 -24   3   4 17.0490 1.58823   2
 -24   3   4 62.5725 3.29306   1
  22   3   4 70.3985 3.55959  -2
 -24   3   4 70.3985 3.55959   1
  21   3   4 66.1790 3.25484  -2
 -23   3   4 66.1790 3.25484   1
  20   3   4 -0.0586 2.00829  -2
 -22   3   4 -0.0586 2.00829   1
  19   3   4 90.6790 3.04969  -2
 -21   3   4 90.6790 3.04969   1
  18   3   4 61.7521 2.24305  -2
 -20   3   4 61.7521 2.24305   1
  17   3   4 34.1816 2.01036  -2
 -19   3   4 34.1816 2.01036   1
  16   3   4 51.0285 2.09649  -2
 -18   3   4 51.0285 2.09649   1
  15   3   4 94.9698 2.73855  -2
 -17   3   4 94.9698 2.73855   1
  14   3   4 56.2652 2.24014  -2
 -16   3   4 56.2652 2.24014   1
  13   3   4 139.479 3.43304  -2
 -15   3   4 139.479 3.43304   1
  12   3   4 128.502 3.23786  -2
 -14   3   4 128.502 3.23786   1
  11   3   4 541.230 9.79596  -2
 -13   3   4 541.230 9.79596   1
  10   3   4 127.550 2.96179  -2
 -12   3   4 127.550 2.96179   1
   9   3   4 229.346 4.65330  -2
 -11   3   4 229.346 4.65330   1
   8   3   4 144.786 3.32208  -2
 -10   3   4 144.786 3.32208   1
   7   3   4 171.001 3.72419  -2
  -9   3   4 171.001 3.72419   1
   6   3   4 133.544 3.16101  -2
  -8   3   4 133.544 3.16101   1
   5   3   4 51.5684 2.08322  -2
  -7   3   4 51.5684 2.08322   1
   4   3   4 124.487 3.35553  -2
  -6   3   4 124.487 3.35553   1
   3   3   4 141.689 4.07349  -2
  -5   3   4 141.689 4.07349   1
   2   3   4 27.5497 2.28830  -2
  -4   3   4 27.5497 2.28830   1
   1   3   4 255.515 6.78973  -2
  -3   3   4 255.515 6.78973   1
   0   3   4 131.466 3.47032  -2
  -2   3   4 131.466 3.47032   1
  -1   3   4 321.180 7.16459  -2
  -1   3   4 321.180 7.16459   1
  -2   3   4 41.1832 2.21995  -2
   0   3   4 41.1832 2.21995   1
  -3   3   4 296.690 9.31463  -2
   1   3   4 296.690 9.31463   1
  -4   3   4 31.4303 3.46449  -2
   2   3   4 31.4303 3.46449   1
  -5   3   4 210.673 7.06410  -2
   3   3   4 210.673 7.06410   1
  -6   3   4 149.701 4.54212  -2
   4   3   4 149.701 4.54212   1
  -7   3   4 74.2635 2.43729  -2
   5   3   4 74.2635 2.43729   1
  -8   3   4 101.775 2.66375  -2
   6   3   4 101.775 2.66375   1
  -9   3   4 231.456 4.37840  -2
   7   3   4 231.456 4.37840   1
 -10   3   4 82.8623 2.42849  -2
   8   3   4 82.8623 2.42849   1
 -11   3   4 180.199 3.94771  -2
   9   3   4 180.199 3.94771   1
 -12   3   4 41.6550 1.97863  -2
  10   3   4 41.6550 1.97863   1
 -13   3   4 294.273 5.74230  -2
  11   3   4 294.273 5.74230   1
 -14   3   4 182.628 4.02446  -2
  12   3   4 182.628 4.02446   1
 -15   3   4 36.7809 1.90611  -2
  13   3   4 36.7809 1.90611   1
 -16   3   4 65.8553 2.37253  -2
  14   3   4 65.8553 2.37253   1
 -17   3   4 165.969 4.31071  -2
  15   3   4 165.969 4.31071   1
 -18   3   4 174.247 4.45056  -2
  16   3   4 174.247 4.45056   1
 -19   3   4 33.5022 2.31504  -2
  17   3   4 33.5022 2.31504   1
 -20   3   4 21.9582 1.97569  -2
  18   3   4 21.9582 1.97569   1
 -21   3   4 37.1005 2.20569  -2
  19   3   4 37.1005 2.20569   1
 -22   3   4 17.0568 3.03782  -2
  20   3   4 17.0568 3.03782   1
  20   3   4 20.6203 2.31892   1
 -23   3   4 87.5658 4.86898  -2
  21   3   4 87.5658 4.86898   1
  21   3   4 75.4066 3.88002   1
  22   3   4 25.8727 2.06772   1
 -24   3   4 39.1432 2.20331  -2
  22   3   4 39.1432 2.20331   1
  22   3   4 10.5315 1.62225   2
 -22   4   4 7.07980 1.45419   2
 -21   4   4 -0.4613 1.08228   2
  18   4   4 36.9239 1.93876  -2
 -20   4   4 36.9239 1.93876   1
  17   4   4 7.39177 1.59460  -2
 -19   4   4 7.39177 1.59460   1
  16   4   4 33.0211 1.89916  -2
 -18   4   4 33.0211 1.89916   1
  15   4   4 3.16369 1.70113  -2
 -17   4   4 3.16369 1.70113   1
  14   4   4 67.6628 2.44153  -2
 -16   4   4 67.6628 2.44153   1
  13   4   4 5.49818 1.66591  -2
 -15   4   4 5.49818 1.66591   1
  12   4   4 32.6881 2.00783  -2
 -14   4   4 32.6881 2.00783   1
  11   4   4 39.4730 2.10687  -2
 -13   4   4 39.4730 2.10687   1
  10   4   4 264.309 5.87201  -2
 -12   4   4 264.309 5.87201   1
   9   4   4 11.4499 1.67497  -2
 -11   4   4 11.4499 1.67497   1
   8   4   4 110.162 2.89678  -2
 -10   4   4 110.162 2.89678   1
   7   4   4 12.0954 1.65025  -2
  -9   4   4 12.0954 1.65025   1
   6   4   4 12.2735 1.65760  -2
  -8   4   4 12.2735 1.65760   1
   5   4   4 104.722 2.84189  -2
  -7   4   4 104.722 2.84189   1
   4   4   4 19.6514 1.77657  -2
  -6   4   4 19.6514 1.77657   1
   3   4   4 128.054 3.15655  -2
  -5   4   4 128.054 3.15655   1
   2   4   4 162.606 3.68634  -2
  -4   4   4 162.606 3.68634   1
   1   4   4 101.679 2.57475  -2
  -3   4   4 101.679 2.57475   1
   0   4   4 224.756 4.29180  -2
  -2   4   4 224.756 4.29180   1
  -1   4   4 32.2649 2.05709  -2
  -1   4   4 32.2649 2.05709   1
  -2   4   4 81.4767 2.54453  -2
   0   4   4 81.4767 2.54453   1
  -3   4   4 284.152 5.59724  -2
   1   4   4 284.152 5.59724   1
  -4   4   4 79.8349 2.55376  -2
   2   4   4 79.8349 2.55376   1
  -5   4   4 110.988 2.75408  -2
   3   4   4 110.988 2.75408   1
  -6   4   4 23.1016 1.77770  -2
   4   4   4 23.1016 1.77770   1
  -7   4   4 49.5641 2.03715  -2
   5   4   4 49.5641 2.03715   1
  -8   4   4 33.4932 1.98272  -2
   6   4   4 33.4932 1.98272   1
  -9   4   4 32.8539 2.06739  -2
   7   4   4 32.8539 2.06739   1
 -10   4   4 54.0258 2.26166  -2
   8   4   4 54.0258 2.26166   1
 -11   4   4 3.80670 1.71424  -2
   9   4   4 3.80670 1.71424   1
 -12   4   4 62.8320 2.27979  -2
  10   4   4 62.8320 2.27979   1
 -13   4   4 92.0792 3.05427  -2
  11   4   4 92.0792 3.05427   1
 -14   4   4 52.1342 2.39994  -2
  12   4   4 52.1342 2.39994   1
 -15   4   4 6.29893 1.74341  -2
  13   4   4 6.29893 1.74341   1
 -16   4   4 16.1595 2.12819  -2
  14   4   4 16.1595 2.12819   1
 -17   4   4 1.65782 1.94035  -2
  15   4   4 1.65782 1.94035   1
 -18   4   4 58.1821 2.75345  -2
  16   4   4 58.1821 2.75345   1
 -19   4   4 2.08320 2.49689  -2
  17   4   4 2.08320 2.49689   1
 -20   4   4 64.1320 2.27729  -2
  18   4   4 64.1320 2.27729   1
  19   4   4 3.22674 1.38041   1
 -21   4   4 2.62918 1.96092  -2
  19   4   4 2.62918 1.96092   1
  20   4   4 32.3689 2.36524   1
 -22   4   4 26.4808 2.97901  -2
  20   4   4 26.4808 2.97901   1
  16   5   4 1.56604 1.54731  -2
 -18   5   4 1.56604 1.54731   1
  15   5   4 24.6380 1.69758  -2
 -17   5   4 24.6380 1.69758   1
  14   5   4 18.6748 1.68857  -2
 -16   5   4 18.6748 1.68857   1
  13   5   4 36.0173 1.66827  -2
 -15   5   4 36.0173 1.66827   1
  12   5   4 144.642 3.49017  -2
 -14   5   4 144.642 3.49017   1
  11   5   4 61.6305 2.12422  -2
 -13   5   4 61.6305 2.12422   1
  10   5   4 22.3057 1.70655  -2
 -12   5   4 22.3057 1.70655   1
   9   5   4 53.0032 2.20946  -2
 -11   5   4 53.0032 2.20946   1
   8   5   4 144.418 3.72929  -2
 -10   5   4 144.418 3.72929   1
   7   5   4 23.6365 1.83568  -2
  -9   5   4 23.6365 1.83568   1
   6   5   4 25.2968 1.86813  -2
  -8   5   4 25.2968 1.86813   1
   5   5   4 48.5007 2.17576  -2
  -7   5   4 48.5007 2.17576   1
   4   5   4 19.5548 1.85156  -2
  -6   5   4 19.5548 1.85156   1
   3   5   4 6.69483 1.79086  -2
  -5   5   4 6.69483 1.79086   1
   2   5   4 150.456 3.61979  -2
  -4   5   4 150.456 3.61979   1
   1   5   4 8.84927 2.00198  -2
  -3   5   4 8.84927 2.00198   1
   0   5   4 135.281 3.72670  -2
  -2   5   4 135.281 3.72670   1
  -1   5   4 8.39289 2.34390  -2
  -1   5   4 8.39289 2.34390   1
  -2   5   4 269.452 6.03204  -2
   0   5   4 269.452 6.03204   1
  -3   5   4 7.53494 1.94920  -2
   1   5   4 7.53494 1.94920   1
  -4   5   4 221.054 4.59581  -2
   2   5   4 221.054 4.59581   1
  -5   5   4 1.84096 1.74233  -2
   3   5   4 1.84096 1.74233   1
  -6   5   4 63.6367 2.27708  -2
   4   5   4 63.6367 2.27708   1
  -7   5   4 12.3358 1.98033  -2
   5   5   4 12.3358 1.98033   1
  -8   5   4 19.0076 2.01956  -2
   6   5   4 19.0076 2.01956   1
  -9   5   4 7.44232 1.83446  -2
   7   5   4 7.44232 1.83446   1
 -10   5   4 56.8399 2.41370  -2
   8   5   4 56.8399 2.41370   1
 -11   5   4 72.1677 2.56078  -2
   9   5   4 72.1677 2.56078   1
 -12   5   4 32.3099 1.95675  -2
  10   5   4 32.3099 1.95675   1
 -13   5   4 139.231 3.55906  -2
  11   5   4 139.231 3.55906   1
 -14   5   4 62.3363 2.58474  -2
  12   5   4 62.3363 2.58474   1
 -15   5   4 11.7552 1.76650  -2
  13   5   4 11.7552 1.76650   1
 -16   5   4 84.5596 2.99286  -2
  14   5   4 84.5596 2.99286   1
 -17   5   4 22.5324 1.88611  -2
  15   5   4 22.5324 1.88611   1
 -18   5   4 9.53198 1.70551  -2
  16   5   4 9.53198 1.70551   1
  17   5   4 12.1506 1.38533   1
  17   5   4 2.29019 0.70354   2
  11   6   4 52.1324 2.20422  -2
 -13   6   4 52.1324 2.20422   1
  10   6   4 66.1615 2.66897  -2
 -12   6   4 66.1615 2.66897   1
   9   6   4 41.0219 1.77729  -2
 -11   6   4 41.0219 1.77729   1
   8   6   4 13.5369 1.49685  -2
 -10   6   4 13.5369 1.49685   1
   7   6   4 18.5705 1.51354  -2
  -9   6   4 18.5705 1.51354   1
   6   6   4 40.0129 1.85508  -2
  -8   6   4 40.0129 1.85508   1
   5   6   4 116.633 3.26187  -2
  -7   6   4 116.633 3.26187   1
   4   6   4 16.9821 1.80434  -2
  -6   6   4 16.9821 1.80434   1
   3   6   4 57.1262 2.49510  -2
  -5   6   4 57.1262 2.49510   1
   2   6   4 31.6581 2.52052  -2
  -4   6   4 31.6581 2.52052   1
   1   6   4 113.852 4.25240  -2
  -3   6   4 113.852 4.25240   1
   0   6   4 16.0090 2.68362  -2
  -2   6   4 16.0090 2.68362   1
  -1   6   4 2.13555 3.47523  -2
  -1   6   4 2.13555 3.47523   1
  -2   6   4 41.2180 4.53573  -2
   0   6   4 41.2180 4.53573   1
  -4   6   4 51.1212 4.90586  -2
   2   6   4 51.1212 4.90586   1
  -5   6   4 32.3235 4.31832  -2
   3   6   4 32.3235 4.31832   1
  -6   6   4 39.6547 3.68159  -2
   4   6   4 39.6547 3.68159   1
  -7   6   4 47.4173 2.83493  -2
   5   6   4 47.4173 2.83493   1
  -8   6   4 40.1392 2.77687  -2
   6   6   4 40.1392 2.77687   1
  -9   6   4 11.6739 2.32423  -2
   7   6   4 11.6739 2.32423   1
 -10   6   4 2.93003 1.82908  -2
   8   6   4 2.93003 1.82908   1
 -11   6   4 91.8986 3.63464  -2
   9   6   4 91.8986 3.63464   1
 -12   6   4 51.2378 3.37048  -2
  10   6   4 51.2378 3.37048   1
 -13   6   4 49.5682 3.24966  -2
  11   6   4 49.5682 3.24966   1
  12   6   4 0.44962 0.60622   2
  12   6   4 -1.1419 1.18170   1
 -26   0   5 0.10800 0.98877   2
 -26   0   5 0.36446 1.13747   1
 -25   0   5 -0.0147 0.99944   2
 -25   0   5 1.39627 1.32611   1
 -24   0   5 0.91658 0.91811   2
 -24   0   5 -1.3777 1.37713   1
 -23   0   5 0.27366 0.95377   2
 -23   0   5 -1.2496 1.57808   1
 -22   0   5 -0.6706 1.85900   1
 -22   0   5 2.44017 1.06035   2
 -21   0   5 0.57332 1.81888   1
 -21   0   5 -0.3311 1.07059   2
 -20   0   5 1.42262 1.81652   1
 -20   0   5 10.0578 2.52809   2
 -19   0   5 2.34224 1.73586   1
 -19   0   5 16.0525 3.83009   2
 -18   0   5 1.80023 1.67281   1
 -18   0   5 -1.6888 1.95954   2
 -17   0   5 0.24569 1.64495   2
 -17   0   5 0.22550 1.58247   1
 -16   0   5 2.21857 1.52866   1
 -16   0   5 1.47574 1.80826   2
 -15   0   5 -0.2104 1.41559   2
 -15   0   5 2.30850 1.43220   1
 -14   0   5 2.26758 1.58893   2
 -14   0   5 6.06379 1.85581   1
 -13   0   5 4.06533 1.34429   1
 -13   0   5 3.94616 1.96382   2
 -12   0   5 2.11574 1.15859   1
 -12   0   5 -0.4322 1.75084   2
 -11   0   5 1.20920 0.86104   1
 -11   0   5 1.45101 1.33025   2
 -10   0   5 3.26560 0.89859   1
 -10   0   5 2.29758 1.74118   2
  -9   0   5 0.84583 0.65147   2
  -9   0   5 3.37506 0.68663   1
  -8   0   5 4.03663 0.89196   1
  -8   0   5 0.00240 0.56749   2
  -7   0   5 1.88083 0.47718   1
  -7   0   5 2.93149 0.96759   2
  -6   0   5 -0.0993 0.38248   2
  -6   0   5 0.63332 0.40664   1
  -5   0   5 0.36842 0.33638   2
  -5   0   5 1.73883 0.40499   1
  -4   0   5 2.47991 0.55556   1
  -4   0   5 0.65931 0.31085   2
  -3   0   5 0.54566 0.28303   2
  -3   0   5 2.11173 0.37965   1
  -2   0   5 2.39451 0.43416   1
  -2   0   5 0.59473 0.36490   2
  -1   0   5 0.06230 0.24666   2
  -1   0   5 0.17245 0.38651   1
   0   0   5 0.93205 0.28312   1
   0   0   5 -0.0316 0.24628   2
   1   0   5 1.20621 0.32369   1
   1   0   5 0.24018 0.28869   2
   2   0   5 0.08347 0.38865   2
   2   0   5 0.41153 0.35113   1
   3   0   5 0.24401 0.33298   2
   3   0   5 2.01699 0.44861   1
   4   0   5 5.48163 0.77196   1
   4   0   5 1.54374 0.43695   2
   5   0   5 0.76919 0.46792   2
   5   0   5 1.69407 0.60563   1
   6   0   5 0.90880 0.64550   1
   6   0   5 0.00033 0.51087   2
   7   0   5 -0.6475 0.81877   1
   7   0   5 0.68273 0.74769   2
   8   0   5 -0.0945 1.06858   1
   8   0   5 0.50373 0.83747   2
   9   0   5 0.92685 0.93565   2
   9   0   5 3.92523 1.72258   1
  10   0   5 0.20979 1.59096   1
  10   0   5 3.47940 1.41414   2
  11   0   5 4.15156 1.40934   2
  11   0   5 7.71650 2.43759   1
  12   0   5 10.4138 2.26034   1
  12   0   5 2.34888 1.78399   2
  13   0   5 9.47001 2.19567   1
  13   0   5 3.85442 1.41154   2
  14   0   5 1.63451 1.36315   2
  14   0   5 7.15132 2.23148   1
  15   0   5 0.20429 1.40883   2
  15   0   5 3.16700 1.48312   1
  16   0   5 3.18032 1.58349   2
  16   0   5 6.55624 1.62348   1
  17   0   5 2.86366 1.59978   2
  17   0   5 18.6530 2.16178   1
  18   0   5 16.6880 2.18872   1
  18   0   5 0.95646 1.52541   2
  19   0   5 2.20011 1.60937   2
  19   0   5 0.03728 1.19281   1
  20   0   5 0.89282 1.36596   2
  20   0   5 2.33354 1.31701   1
  21   0   5 1.98596 1.08782   1
  21   0   5 0.34737 1.40853   2
  22   0   5 -0.0669 1.13748   2
  22   0   5 0.11662 1.10705   1
  23   0   5 1.45251 1.27303   1
  24   0   5 1.01389 0.89795   2
  24   0   5 0.41198 1.18059   1
 -26   1   5 2.12753 0.80152   2
 -26   1   5 0.85427 0.83912   1
 -25   1   5 0.63616 0.65862   2
 -25   1   5 1.23328 0.92063   1
 -24   1   5 26.0427 1.25196   2
 -24   1   5 100.587 3.82088   1
 -23   1   5 33.5350 2.02644   1
 -23   1   5 8.84037 1.06747   2
 -22   1   5 46.3867 2.28218   1
 -22   1   5 10.0514 1.11086   2
 -21   1   5 20.0034 2.23312   1
 -21   1   5 5.37063 0.90095   2
 -20   1   5 0.90882 1.22912   1
 -20   1   5 2.63222 1.12724   2
 -19   1   5 401.986 10.0317   1
 -19   1   5 110.628 3.06633   2
 -18   1   5 33.6603 1.68274   2
 -18   1   5 121.060 3.98396   1
 -17   1   5 158.831 5.26147   2
 -17   1   5 619.498 14.3450   1
 -16   1   5 35.1046 1.85784   2
 -16   1   5 128.395 3.43646   1
 -15   1   5 23.4188 1.74423   1
 -15   1   5 8.89630 1.79463   2
 -14   1   5 72.5873 2.87770   2
 -14   1   5 278.236 6.04898   1
 -13   1   5 11.8688 1.23190   1
 -13   1   5 2.12738 1.18197   2
 -12   1   5 121.468 2.86946   1
 -12   1   5 29.9234 1.64092   2
 -11   1   5 31.6835 1.34624   1
 -11   1   5 8.15039 1.28137   2
 -10   1   5 50.1077 1.77539   2
 -10   1   5 194.831 3.98718   1
  -9   1   5 629.554 10.8713   1
  -9   1   5 155.840 3.76336   2
  -8   1   5 39.8301 1.22785   2
  -8   1   5 156.320 2.96382   1
  -7   1   5 432.496 8.16390   1
  -7   1   5 109.597 2.65962   2
  -6   1   5 382.136 8.13596   1
  -6   1   5 100.267 2.40679   2
  -5   1   5 12.5160 0.55156   1
  -5   1   5 10.3073 0.54480   2
  -4   1   5 62.2262 3.26562   1
  -4   1   5 22.2918 0.71336   2
  -3   1   5 89.1991 2.05782   2
  -3   1   5 317.969 9.89561   1
  -2   1   5 344.926 10.6955   1
  -2   1   5 103.543 4.98613   2
  -1   1   5 904.880 38.6749   2
  -1   1   5 3361.00 142.211   1
   0   1   5 314.726 9.77149   2
   0   1   5 1208.68 51.5142   1
   1   1   5 845.582 18.0012   1
   1   1   5 218.962 6.93953   2
   2   1   5 504.556 10.8545   1
   2   1   5 126.100 5.88732   2
   3   1   5 815.845 17.4523   1
   3   1   5 203.330 5.14082   2
   4   1   5 149.926 3.48884   1
   4   1   5 34.6154 0.98575   2
   5   1   5 99.9095 2.00334   2
   5   1   5 400.790 7.77304   1
   6   1   5 1.86196 0.44219   2
   6   1   5 8.55180 0.78849   1
   7   1   5 177.503 4.22436   1
   7   1   5 45.8697 1.27759   2
   8   1   5 1.88981 0.97033   1
   8   1   5 0.96586 0.63477   2
   9   1   5 1.03428 0.74664   2
   9   1   5 7.08034 1.33118   1
  10   1   5 21.8165 1.49040   2
  10   1   5 84.2251 2.39794   1
 -13   1   5 15.0045 4.42290  -2
  11   1   5 15.0045 4.42290   1
  11   1   5 14.9802 1.62909   1
  11   1   5 3.58156 1.00622   2
  12   1   5 115.320 3.06221   2
  12   1   5 462.201 10.8514   1
 -14   1   5 549.237 15.9353  -2
  12   1   5 549.237 15.9353   1
  13   1   5 12.6599 1.57818   2
 -15   1   5 58.3956 4.57460  -2
  13   1   5 58.3956 4.57460   1
  13   1   5 54.0534 3.39970   1
  14   1   5 74.7113 2.63154   1
  14   1   5 18.2760 1.84067   2
 -16   1   5 112.773 7.96060  -2
  14   1   5 112.773 7.96060   1
 -17   1   5 290.253 9.37815  -2
  15   1   5 290.253 9.37815   1
  15   1   5 143.583 5.07604   1
  15   1   5 40.4382 2.77632   2
  16   1   5 498.598 9.04699   1
  16   1   5 135.593 4.11420   2
  17   1   5 303.927 6.63569   1
  17   1   5 81.5057 3.00280   2
 -19   1   5 439.685 18.2246  -2
  17   1   5 439.685 18.2246   1
  18   1   5 12.7917 1.83312   2
  18   1   5 35.7209 2.21814   1
 -20   1   5 32.1562 5.52899  -2
  18   1   5 32.1562 5.52899   1
  19   1   5 30.9673 1.62893   1
  19   1   5 6.59206 1.41275   2
  20   1   5 33.2464 1.68888   1
  20   1   5 8.64453 1.46023   2
  21   1   5 159.396 3.64031   1
  21   1   5 39.5380 2.23908   2
  22   1   5 64.4354 1.91156   1
  22   1   5 16.6500 1.59292   2
  23   1   5 3.66248 0.78025   1
  23   1   5 0.00984 0.73236   2
  24   1   5 1.06555 0.68716   2
  24   1   5 10.3206 1.42744   1
 -25   2   5 6.46056 1.17249   1
 -25   2   5 1.57670 0.71822   2
 -24   2   5 0.77157 0.88076   1
 -24   2   5 0.48406 0.62112   2
 -23   2   5 10.0112 0.96797   2
 -23   2   5 45.1637 2.62673   1
 -22   2   5 41.6566 1.82864   2
 -22   2   5 174.554 4.89317   1
 -21   2   5 0.89628 0.93047   2
 -21   2   5 1.91896 1.17651   1
 -20   2   5 3.24001 1.51389   1
 -20   2   5 0.59732 0.93615   2
  18   2   5 10.5058 4.93493  -2
 -20   2   5 10.5058 4.93493   1
 -19   2   5 26.1918 1.67914   2
 -19   2   5 97.8611 2.67469   1
  17   2   5 95.4442 7.47606  -2
 -19   2   5 95.4442 7.47606   1
 -18   2   5 3.80877 0.89785   2
 -18   2   5 3.96295 1.18944   1
  16   2   5 7.73743 5.48949  -2
 -18   2   5 7.73743 5.48949   1
 -17   2   5 467.949 8.51911   1
 -17   2   5 116.263 2.88260   2
 -16   2   5 51.7221 2.19651   1
 -16   2   5 14.3559 1.29891   2
  14   2   5 60.4245 6.46498  -2
 -16   2   5 60.4245 6.46498   1
 -15   2   5 7.71524 1.18064   1
 -15   2   5 3.33842 0.84685   2
 -14   2   5 17.5099 1.28903   2
 -14   2   5 63.3867 2.27189   1
  12   2   5 83.2798 7.81422  -2
 -14   2   5 83.2798 7.81422   1
 -13   2   5 22.5749 1.34536   2
  11   2   5 85.5505 8.07787  -2
 -13   2   5 85.5505 8.07787   1
 -13   2   5 77.6515 2.24727   1
 -12   2   5 169.622 3.30356   1
  10   2   5 169.144 11.1940  -2
 -12   2   5 169.144 11.1940   1
 -12   2   5 44.2078 1.57593   2
 -11   2   5 6.18170 0.91820   2
 -11   2   5 11.5557 1.15819   1
 -10   2   5 35.1779 1.60708   1
 -10   2   5 10.3460 1.06230   2
  -9   2   5 14.1088 1.37853   2
  -9   2   5 49.8755 2.16462   1
  -8   2   5 132.583 2.90091   1
  -8   2   5 33.4627 1.46849   2
  -7   2   5 4.26061 0.70529   2
  -7   2   5 15.2395 1.19111   1
  -6   2   5 129.690 3.61217   2
  -6   2   5 526.589 12.9038   1
  -5   2   5 23.3029 1.51238   1
  -5   2   5 7.32282 1.35483   2
  -4   2   5 10.7814 1.06882   1
  -4   2   5 6.29089 0.76778   2
  -3   2   5 135.259 3.11757   2
  -3   2   5 509.952 10.7913   1
  -2   2   5 1118.01 26.9966   1
  -2   2   5 277.351 8.63392   2
  -1   2   5 52.8491 2.00576   1
  -1   2   5 17.2934 1.25412   2
   0   2   5 86.3426 2.74168   2
   0   2   5 319.726 9.88708   1
   1   2   5 7.57248 0.95716   2
   1   2   5 27.6879 0.96740   1
   2   2   5 142.114 3.88758   1
   2   2   5 35.5176 1.46979   2
   3   2   5 147.098 3.48473   2
   3   2   5 600.974 14.7150   1
   4   2   5 1.55385 0.56371   2
   4   2   5 6.78090 0.81121   1
   5   2   5 6.87353 0.89555   1
   5   2   5 1.55306 0.56676   2
   6   2   5 76.3294 2.34840   1
   6   2   5 20.3292 1.09748   2
   7   2   5 8.12276 1.35122   1
   7   2   5 2.35126 1.02011   2
   8   2   5 5.51036 0.97698   1
   8   2   5 0.38283 0.80351   2
   9   2   5 725.485 10.8461   1
   9   2   5 180.038 3.40381   2
  10   2   5 29.4141 1.55773   1
  10   2   5 8.94913 1.00612   2
  11   2   5 121.522 2.70239   1
  11   2   5 33.7570 1.60348   2
  12   2   5 106.335 2.49345   1
  12   2   5 26.6267 1.65044   2
  13   2   5 15.1999 1.38824   1
  13   2   5 3.41017 0.96186   2
  14   2   5 0.67221 1.01931   2
  14   2   5 3.16843 0.99179   1
  15   2   5 152.704 3.54844   1
  15   2   5 43.8563 1.83734   2
  16   2   5 3.03338 1.13942   1
  16   2   5 0.45757 1.08294   2
  17   2   5 1.28833 1.10464   2
  17   2   5 4.66033 1.17005   1
  18   2   5 13.3252 1.39531   1
  18   2   5 2.45477 1.29985   2
  19   2   5 126.826 3.71053   1
  19   2   5 28.6366 1.87419   2
  20   2   5 15.7501 1.61601   2
  20   2   5 50.9227 2.11862   1
  21   2   5 9.15601 1.13443   1
  21   2   5 3.52510 0.81345   2
  22   2   5 9.46428 1.16377   2
  22   2   5 36.9867 1.44046   1
  23   2   5 2.52351 0.72613   1
  23   2   5 -0.0992 0.78389   2
 -24   3   5 2.60042 1.09943   1
 -24   3   5 0.74826 0.57991   2
 -23   3   5 0.39796 0.57731   2
 -23   3   5 4.54106 1.23783   1
 -22   3   5 0.81825 0.77301   2
 -22   3   5 -0.8499 0.99488   1
 -21   3   5 1.13574 0.85257   1
 -21   3   5 0.82486 0.82301   2
 -20   3   5 3.18780 0.81817   2
 -20   3   5 13.3555 1.27280   1
 -19   3   5 1.16823 0.95798   2
 -19   3   5 1.45492 0.83412   1
  17   3   5 1.15735 4.81740  -2
 -19   3   5 1.15735 4.81740   1
 -18   3   5 251.660 4.95158   1
 -18   3   5 59.8779 2.48887   2
 -17   3   5 15.9285 1.48690   2
 -17   3   5 66.5864 2.14955   1
 -16   3   5 18.6454 1.51036   2
 -16   3   5 58.3886 2.03920   1
 -15   3   5 15.8359 1.49328   1
 -15   3   5 5.11749 1.03243   2
 -14   3   5 139.966 3.19219   1
  12   3   5 152.105 10.4667  -2
 -14   3   5 152.105 10.4667   1
 -14   3   5 35.3806 1.67756   2
 -13   3   5 30.8469 1.72744   1
 -13   3   5 8.58566 1.07933   2
 -12   3   5 143.123 3.62457   1
 -12   3   5 37.2128 1.52084   2
 -11   3   5 100.441 2.32127   2
 -11   3   5 391.796 7.20812   1
 -10   3   5 22.2883 1.36797   1
 -10   3   5 8.52294 1.12570   2
  -9   3   5 45.4401 1.72600   2
  -9   3   5 175.350 3.39107   1
  -8   3   5 107.251 2.63054   1
  -8   3   5 23.1609 1.37382   2
  -7   3   5 41.5751 1.71475   1
  -7   3   5 12.1093 1.09608   2
  -6   3   5 1.66564 1.01201   2
  -6   3   5 0.11924 0.91165   1
  -5   3   5 0.91532 0.96255   2
  -5   3   5 4.92657 0.98865   1
  -4   3   5 7.93360 1.12625   2
  -4   3   5 25.5015 1.41640   1
  -3   3   5 57.6233 1.89056   1
  -3   3   5 12.4907 1.35651   2
  -2   3   5 92.4590 2.39468   1
  -2   3   5 7.81466 1.84642   2
  -1   3   5 4.57787 0.90926   2
  -1   3   5 12.6328 1.39348   1
   0   3   5 7.87672 0.99680   2
   0   3   5 23.8468 1.76935   1
   1   3   5 11.3012 1.15865   2
   1   3   5 41.2382 1.94579   1
   2   3   5 55.8593 1.96217   1
   2   3   5 13.0274 1.10117   2
   3   3   5 19.0637 1.34745   2
   3   3   5 80.3250 2.28613   1
   4   3   5 174.470 3.42292   1
   4   3   5 41.1128 1.57701   2
   5   3   5 32.5201 1.58471   1
   5   3   5 7.72076 0.95616   2
   6   3   5 12.2562 1.30723   1
   6   3   5 2.35382 0.77248   2
   7   3   5 4.11116 1.07842   1
   7   3   5 1.18579 0.76773   2
  -9   3   5 42.6230 5.51421  -2
   7   3   5 42.6230 5.51421   1
   8   3   5 4.19208 0.87607   2
   8   3   5 13.0791 1.33986   1
 -10   3   5 10.2979 5.07768  -2
   8   3   5 10.2979 5.07768   1
   9   3   5 2.83235 0.83543   2
   9   3   5 9.76108 1.14711   1
  10   3   5 2.25399 0.90888   1
  10   3   5 0.62652 0.82726   2
  11   3   5 2.88803 1.03311   1
  11   3   5 1.28988 0.87668   2
 -13   3   5 20.8005 4.84414  -2
  11   3   5 20.8005 4.84414   1
  12   3   5 4.86735 1.03255   2
  12   3   5 19.3282 1.70635   1
 -14   3   5 73.4696 6.09223  -2
  12   3   5 73.4696 6.09223   1
  13   3   5 2.26633 0.86443   2
  13   3   5 7.59055 1.26849   1
 -15   3   5 15.3992 4.80768  -2
  13   3   5 15.3992 4.80768   1
  14   3   5 37.2059 1.64768   2
  14   3   5 153.892 3.84224   1
 -16   3   5 175.462 9.60044  -2
  14   3   5 175.462 9.60044   1
 -17   3   5 51.9863 5.48636  -2
  15   3   5 51.9863 5.48636   1
  15   3   5 9.20051 1.06902   2
  15   3   5 29.2671 1.88674   1
  16   3   5 12.9935 1.30106   2
  16   3   5 33.4820 1.93651   1
 -18   3   5 99.2685 6.61522  -2
  16   3   5 99.2685 6.61522   1
 -19   3   5 14.1824 4.67365  -2
  17   3   5 14.1824 4.67365   1
  17   3   5 1.44106 0.74118   2
  17   3   5 4.37588 1.11752   1
  18   3   5 0.50809 0.85111   2
  18   3   5 1.06502 0.85609   1
  19   3   5 24.5854 1.49608   2
  19   3   5 103.156 3.13565   1
  20   3   5 0.16065 0.85158   2
  20   3   5 5.70609 1.18956   1
  21   3   5 74.2774 2.24785   1
  21   3   5 20.0093 1.79081   2
  22   3   5 68.7201 2.02040   1
  22   3   5 16.7608 2.79240   2
 -22   4   5 4.83353 0.76794   2
 -21   4   5 82.4469 2.52839   1
 -21   4   5 21.4969 1.20436   2
 -20   4   5 15.5865 1.29081   1
 -20   4   5 3.14434 0.74629   2
 -19   4   5 14.3880 1.39623   2
 -19   4   5 56.6405 1.64333   1
 -18   4   5 92.5315 2.24629   1
 -18   4   5 22.7187 1.55549   2
 -17   4   5 63.8401 2.04802   1
 -17   4   5 16.8821 1.60593   2
 -16   4   5 10.4833 1.47977   2
 -16   4   5 39.5818 1.73702   1
 -15   4   5 36.7277 1.73090   1
 -15   4   5 10.3346 1.28295   2
 -14   4   5 236.938 5.24043   1
 -14   4   5 59.1545 2.10769   2
 -13   4   5 39.8794 1.84225   2
 -13   4   5 163.055 3.55584   1
 -12   4   5 16.1686 1.39922   1
 -12   4   5 2.57205 0.96099   2
 -11   4   5 36.4420 1.79158   2
 -11   4   5 146.260 3.30452   1
 -10   4   5 155.842 3.46586   1
 -10   4   5 38.5705 1.78831   2
  -9   4   5 10.8273 1.37226   2
  -9   4   5 28.5683 1.57580   1
  -8   4   5 10.4556 1.14069   2
  -8   4   5 38.2586 1.68653   1
  -7   4   5 9.15057 1.18633   1
  -7   4   5 3.01253 0.96020   2
  -6   4   5 11.0038 1.20708   1
  -6   4   5 6.11853 0.96421   2
  -5   4   5 50.0579 2.12288   1
  -5   4   5 15.8001 1.52508   2
  -4   4   5 96.6082 2.43755   2
  -4   4   5 384.989 6.53975   1
  -3   4   5 85.2298 2.26222   2
  -3   4   5 323.328 5.61825   1
  -2   4   5 52.6456 1.97553   1
  -2   4   5 14.6775 1.28674   2
  -1   4   5 119.838 2.70989   1
  -1   4   5 32.0621 1.54831   2
   0   4   5 64.4659 1.92618   1
   0   4   5 18.3460 1.35800   2
   1   4   5 163.830 3.21671   2
   1   4   5 621.358 10.9953   1
   2   4   5 4.17619 1.27931   2
   2   4   5 10.0390 1.22553   1
   3   4   5 424.898 7.81511   1
   3   4   5 99.6066 2.45907   2
   4   4   5 60.4695 1.88663   2
   4   4   5 238.117 4.36291   1
   5   4   5 6.99191 0.92271   2
  -7   4   5 37.6233 5.06186  -2
   5   4   5 37.6233 5.06186   1
   5   4   5 27.7811 1.69013   1
   6   4   5 43.8272 1.87277   1
   6   4   5 11.4486 1.15380   2
  -8   4   5 47.2234 7.21916  -2
   6   4   5 47.2234 7.21916   1
   7   4   5 19.2787 1.38212   2
  -9   4   5 67.2688 4.90083  -2
   7   4   5 67.2688 4.90083   1
   7   4   5 63.8471 2.36375   1
   8   4   5 94.4206 2.83020   1
   8   4   5 25.2972 1.44490   2
 -10   4   5 129.589 6.08415  -2
   8   4   5 129.589 6.08415   1
 -11   4   5 46.5792 5.56868  -2
   9   4   5 46.5792 5.56868   1
   9   4   5 2.93242 1.00640   2
   9   4   5 3.01468 1.12037   1
  10   4   5 33.5418 1.56633   2
  10   4   5 106.025 3.04736   1
 -12   4   5 114.621 7.91925  -2
  10   4   5 114.621 7.91925   1
 -13   4   5 52.3313 5.63046  -2
  11   4   5 52.3313 5.63046   1
  11   4   5 14.2981 1.62435   1
  11   4   5 9.60804 1.27768   2
  12   4   5 6.54665 1.50106   1
  12   4   5 3.08710 0.88019   2
 -14   4   5 53.6643 5.61512  -2
  12   4   5 53.6643 5.61512   1
 -15   4   5 61.7893 5.90576  -2
  13   4   5 61.7893 5.90576   1
  13   4   5 40.3713 1.95257   1
  13   4   5 12.7506 1.27743   2
 -16   4   5 231.790 11.1790  -2
  14   4   5 231.790 11.1790   1
  14   4   5 206.920 5.41281   1
  14   4   5 52.4214 1.83806   2
  15   4   5 63.6448 2.46425   1
  15   4   5 17.6488 1.18689   2
 -17   4   5 79.6042 5.78119  -2
  15   4   5 79.6042 5.78119   1
  16   4   5 9.72066 1.54435   1
  16   4   5 2.71884 0.76933   2
 -18   4   5 28.1041 4.35887  -2
  16   4   5 28.1041 4.35887   1
  17   4   5 27.5212 1.32083   2
 -19   4   5 132.393 7.15036  -2
  17   4   5 132.393 7.15036   1
  17   4   5 106.681 3.19465   1
  18   4   5 24.7825 1.27028   2
  18   4   5 118.339 3.21471   1
  19   4   5 27.2155 1.44846   1
  19   4   5 12.6449 2.99588   2
 -18   5   5 3.63138 0.88684   2
 -18   5   5 15.3167 1.30751   1
 -17   5   5 0.28622 0.72671   2
 -17   5   5 1.77577 0.63395   1
 -16   5   5 34.7874 1.39253   1
 -16   5   5 10.9412 1.29852   2
 -15   5   5 22.8666 1.89094   2
 -15   5   5 81.4428 2.20120   1
 -14   5   5 9.85735 1.04267   1
 -14   5   5 2.05734 1.01886   2
 -13   5   5 1.14228 0.79235   1
 -13   5   5 -0.3377 0.84889   2
 -12   5   5 2.55950 0.81064   1
 -12   5   5 0.67799 0.87741   2
 -11   5   5 -0.2312 0.75699   1
 -11   5   5 0.38547 0.91098   2
 -10   5   5 26.1133 1.76406   2
 -10   5   5 100.556 2.55126   1
  -9   5   5 0.76389 1.07356   2
  -9   5   5 0.39030 0.86403   1
  -8   5   5 12.4133 1.46393   1
  -8   5   5 3.24648 0.97166   2
   6   5   5 10.2928 4.45775  -2
  -8   5   5 10.2928 4.45775   1
  -7   5   5 2.27205 0.98595   1
  -7   5   5 1.44558 1.06495   2
  -6   5   5 211.238 4.35910   1
  -6   5   5 55.5131 1.91401   2
  -5   5   5 14.6365 1.89808   2
  -5   5   5 60.9337 2.11784   1
  -4   5   5 41.9442 1.77213   2
  -4   5   5 154.506 3.80178   1
  -3   5   5 10.0644 1.62049   2
  -3   5   5 33.4450 1.91270   1
  -2   5   5 19.0568 1.77457   2
  -2   5   5 63.6426 2.38684   1
  -1   5   5 258.118 5.68665   1
  -1   5   5 71.5272 2.15673   2
   0   5   5 66.3930 2.50560   1
   0   5   5 20.0048 1.63155   2
  -3   5   5 26.2550 3.63699  -2
   1   5   5 26.2550 3.63699   1
   1   5   5 6.42304 1.08996   2
   1   5   5 20.9910 2.20346   1
   2   5   5 8.03059 1.44550   2
   2   5   5 15.1925 1.69181   1
   3   5   5 25.3132 1.55012   2
   3   5   5 98.9733 2.93643   1
  -5   5   5 124.490 7.68492  -2
   3   5   5 124.490 7.68492   1
   4   5   5 113.009 2.83884   1
   4   5   5 31.9530 1.75696   2
   5   5   5 8.21374 1.03108   2
  -7   5   5 36.3817 3.96679  -2
   5   5   5 36.3817 3.96679   1
   5   5   5 32.6037 1.99538   1
  -8   5   5 23.4083 4.91023  -2
   6   5   5 23.4083 4.91023   1
   6   5   5 16.8064 2.12227   1
   6   5   5 3.45540 0.96447   2
  -9   5   5 9.18390 4.72614  -2
   7   5   5 9.18390 4.72614   1
   7   5   5 2.59314 1.08200   1
   7   5   5 0.10548 0.93420   2
   8   5   5 199.106 4.59710   1
   8   5   5 48.3037 1.70060   2
   9   5   5 5.72825 0.90443   2
   9   5   5 17.6382 1.74767   1
 -11   5   5 19.5098 4.64605  -2
   9   5   5 19.5098 4.64605   1
  10   5   5 70.2861 2.60300   1
 -12   5   5 73.6281 5.76284  -2
  10   5   5 73.6281 5.76284   1
  10   5   5 16.8539 1.21743   2
  11   5   5 16.2192 1.65127   1
  11   5   5 2.63391 0.71401   2
 -13   5   5 13.1705 4.14963  -2
  11   5   5 13.1705 4.14963   1
  12   5   5 1.59226 0.61963   2
  12   5   5 1.87276 1.20761   1
 -14   5   5 6.89038 3.60422  -2
  12   5   5 6.89038 3.60422   1
  13   5   5 1.51092 0.60163   2
 -15   5   5 29.4841 4.09164  -2
  13   5   5 29.4841 4.09164   1
  13   5   5 15.3545 1.91275   1
  14   5   5 3.22053 0.59149   2
  14   5   5 5.21688 0.97579   1
  15   5   5 0.43049 0.63369   2
  15   5   5 1.08182 0.82622   1
  16   5   5 6.84348 1.54120   2
  16   5   5 25.7518 1.62343   1
 -13   6   5 11.7590 1.00053   1
 -13   6   5 2.28828 1.12558   2
 -12   6   5 23.5558 1.20175   1
 -12   6   5 6.70671 1.40129   2
 -11   6   5 0.68454 0.84783   1
 -11   6   5 1.33859 0.86112   2
 -10   6   5 0.24624 1.10082   2
 -10   6   5 1.56575 0.84487   1
   8   6   5 1.30513 2.87686  -2
 -10   6   5 1.30513 2.87686   1
  -9   6   5 19.6098 1.54387   1
   7   6   5 22.3392 3.38402  -2
  -9   6   5 22.3392 3.38402   1
  -9   6   5 9.09905 2.93997   2
  -8   6   5 32.4637 1.85198   1
  -8   6   5 9.90709 1.89575   2
   6   6   5 40.6486 4.02185  -2
  -8   6   5 40.6486 4.02185   1
  -7   6   5 2.41681 0.89575   1
  -7   6   5 -0.6163 1.34183   2
  -6   6   5 31.1085 1.71585   1
  -6   6   5 6.38226 1.60010   2
  -5   6   5 17.9946 1.78431   1
   3   6   5 10.5735 3.11032  -2
  -5   6   5 10.5735 3.11032   1
  -4   6   5 42.5224 2.00737   1
  -3   6   5 132.693 4.37325   1
  -3   6   5 28.2378 3.16408   2
   1   6   5 137.775 7.69089  -2
  -3   6   5 137.775 7.69089   1
  -2   6   5 23.8256 1.78785   1
  -2   6   5 5.24227 1.23499   2
  -1   6   5 10.8553 1.43897   1
  -1   6   5 3.12022 1.03696   2
   0   6   5 1.36223 1.31226   1
   0   6   5 0.60455 0.97701   2
   1   6   5 0.86066 1.77804   2
   1   6   5 10.9033 2.96268   1
  -3   6   5 44.1058 4.81718  -2
   1   6   5 44.1058 4.81718   1
   2   6   5 1.44197 1.05310   2
  -4   6   5 14.5572 4.31457  -2
   2   6   5 14.5572 4.31457   1
   3   6   5 2.91200 0.98877   2
  -5   6   5 4.94367 4.08377  -2
   3   6   5 4.94367 4.08377   1
   4   6   5 2.01156 1.65881   1
  -6   6   5 6.51617 4.10848  -2
   4   6   5 6.51617 4.10848   1
   4   6   5 -0.3668 0.80506   2
   5   6   5 0.26766 0.77097   2
  -7   6   5 10.4605 4.01558  -2
   5   6   5 10.4605 4.01558   1
   5   6   5 5.08844 1.55135   1
   6   6   5 2.36678 0.82234   2
   6   6   5 10.8389 2.08143   1
  -8   6   5 23.7460 4.12882  -2
   6   6   5 23.7460 4.12882   1
   7   6   5 0.33810 0.77181   2
  -9   6   5 14.2983 3.81574  -2
   7   6   5 14.2983 3.81574   1
   7   6   5 1.97126 1.32584   1
   8   6   5 2.61699 1.26571   1
   8   6   5 0.43532 0.73159   2
 -10   6   5 3.83576 3.68938  -2
   8   6   5 3.83576 3.68938   1
   9   6   5 -0.2987 0.60042   2
   9   6   5 4.44492 1.02609   1
  10   6   5 1.33490 0.67013   2
  10   6   5 1.11937 1.03686   1
  11   6   5 46.9730 2.79834   1
  11   6   5 10.9634 1.32369   2
 -26   0   6 17.0248 1.74748   2
 -26   0   6 77.3729 4.13658   1
  22   0   6 63.0054 4.21730  -2
 -25   0   6 63.0054 4.21730   1
 -25   0   6 8.30565 1.73394   2
  21   0   6 13.0725 3.64379  -2
 -24   0   6 13.0725 3.64379   1
 -24   0   6 3.40183 1.39318   2
  20   0   6 34.7744 4.00664  -2
 -23   0   6 34.7744 4.00664   1
 -23   0   6 9.40870 2.16543   2
 -22   0   6 109.833 5.59926   2
  19   0   6 443.014 18.9376  -2
 -22   0   6 443.014 18.9376   1
 -21   0   6 3.61810 1.65073   2
  18   0   6 26.2265 4.34202  -2
 -21   0   6 26.2265 4.34202   1
 -20   0   6 14.7979 2.57654   2
  17   0   6 77.5615 6.07757  -2
 -20   0   6 77.5615 6.07757   1
 -20   0   6 75.7286 6.09512   1
 -19   0   6 13.0133 2.57259   2
  16   0   6 46.1492 3.96898  -2
 -19   0   6 46.1492 3.96898   1
  15   0   6 20.3989 3.43911  -2
 -18   0   6 20.3989 3.43911   1
 -18   0   6 5.28746 1.85337   2
  14   0   6 849.199 24.3519  -2
 -17   0   6 849.199 24.3519   1
 -17   0   6 159.103 7.31325   2
  13   0   6 76.0723 4.06220  -2
 -16   0   6 76.0723 4.06220   1
 -16   0   6 10.5398 2.52532   2
  12   0   6 128.317 6.97910  -2
 -15   0   6 128.317 6.97910   1
  11   0   6 186.075 8.70472  -2
 -14   0   6 186.075 8.70472   1
 -13   0   6 159.448 7.25134   2
 -13   0   6 581.248 25.9518   1
  10   0   6 732.641 29.6567  -2
 -13   0   6 732.641 29.6567   1
 -12   0   6 159.282 7.26132   2
   9   0   6 740.582 21.9824  -2
 -12   0   6 740.582 21.9824   1
   8   0   6 1019.94 29.8466  -2
 -11   0   6 1019.94 29.8466   1
 -11   0   6 889.354 38.7206   1
 -10   0   6 135.903 6.79556   2
 -10   0   6 559.428 22.6380   1
   7   0   6 554.993 17.2810  -2
 -10   0   6 554.993 17.2810   1
  -9   0   6 450.196 13.4214   1
  -9   0   6 115.218 4.12512   2
   6   0   6 460.926 20.4048  -2
  -9   0   6 460.926 20.4048   1
  -8   0   6 80.9735 4.26767   2
   5   0   6 467.434 13.9617  -2
  -8   0   6 467.434 13.9617   1
  -8   0   6 227.429 10.1776   1
  -7   0   6 136.134 3.63710   1
  -7   0   6 54.5253 2.99094   2
  -6   0   6 57.6113 2.14294   2
   3   0   6 247.874 10.9684  -2
  -6   0   6 247.874 10.9684   1
  -6   0   6 220.114 9.38748   1
  -5   0   6 53.5166 3.08922   1
   2   0   6 231.439 10.1907  -2
  -5   0   6 231.439 10.1907   1
  -5   0   6 17.7032 1.38164   2
  -4   0   6 79.6631 2.66873   2
  -4   0   6 326.878 9.98575   1
  -3   0   6 198.009 6.14392   2
  -3   0   6 760.758 22.8904   1
  -2   0   6 472.997 14.3103   1
  -2   0   6 118.693 5.30291   2
  -1   0   6 162.484 5.06214   2
  -1   0   6 621.415 26.4899   1
   0   0   6 34.1491 1.28729   2
   0   0   6 142.411 6.36266   1
   1   0   6 62.8693 2.12915   2
   1   0   6 246.393 7.62968   1
   2   0   6 650.802 19.7120   1
   3   0   6 57.0879 2.15420   1
   3   0   6 15.3884 2.22540   2
   4   0   6 360.679 8.90816   2
   4   0   6 1255.26 37.8326   1
   5   0   6 1073.75 45.9625   1
   5   0   6 266.042 11.8000   2
  -8   0   6 1046.81 44.9034  -2
   5   0   6 1046.81 44.9034   1
   6   0   6 41.3420 2.10692   1
   6   0   6 20.0480 1.85847   2
 -10   0   6 137.943 7.81549  -2
   7   0   6 137.943 7.81549   1
   7   0   6 8.75595 2.16707   1
 -11   0   6 439.870 19.8213  -2
   8   0   6 439.870 19.8213   1
   8   0   6 67.4054 4.64788   2
 -12   0   6 587.906 26.3121  -2
   9   0   6 587.906 26.3121   1
  10   0   6 177.483 8.16151   1
  10   0   6 67.2709 5.23870   2
 -14   0   6 65.7516 4.07805  -2
  11   0   6 65.7516 4.07805   1
 -15   0   6 229.594 7.92601  -2
  12   0   6 229.594 7.92601   1
  13   0   6 147.631 7.23836   1
 -16   0   6 140.107 9.43001  -2
  13   0   6 140.107 9.43001   1
  14   0   6 1050.73 39.0188   1
 -17   0   6 1165.20 31.8546  -2
  14   0   6 1165.20 31.8546   1
 -18   0   6 68.8205 4.59895  -2
  15   0   6 68.8205 4.59895   1
  15   0   6 68.2819 4.70128   1
 -19   0   6 13.6131 3.51861  -2
  16   0   6 13.6131 3.51861   1
  16   0   6 4.42917 2.17297   1
 -20   0   6 16.7023 3.60358  -2
  17   0   6 16.7023 3.60358   1
  17   0   6 5.22893 2.14650   1
 -21   0   6 20.7284 4.48538  -2
  18   0   6 20.7284 4.48538   1
  18   0   6 24.5822 3.14536   1
  19   0   6 1.69014 1.76483   1
 -22   0   6 106.333 4.63554  -2
  19   0   6 106.333 4.63554   1
 -23   0   6 120.542 5.09255  -2
  20   0   6 120.542 5.09255   1
  20   0   6 119.488 5.84188   1
 -24   0   6 12.2854 3.08364  -2
  21   0   6 12.2854 3.08364   1
  21   0   6 0.54145 1.34707   1
  22   0   6 181.261 5.46021   1
  23   0   6 91.9827 4.24780   1
  23   0   6 23.5512 2.13954   2
  24   0   6 0.04268 0.88815   2
  24   0   6 1.76829 1.16815   1
 -26   1   6 25.8185 1.72262   1
 -26   1   6 7.32601 0.90364   2
 -25   1   6 8.77753 1.07262   2
  22   1   6 47.8804 3.99534  -2
 -25   1   6 47.8804 3.99534   1
 -25   1   6 39.0912 3.03452   1
 -24   1   6 9.55141 1.36206   2
  21   1   6 63.0119 3.19696  -2
 -24   1   6 63.0119 3.19696   1
  20   1   6 -1.3181 2.31699  -2
 -23   1   6 -1.3181 2.31699   1
 -23   1   6 -0.3694 0.82959   2
 -22   1   6 6.89840 3.32150   1
 -22   1   6 2.69405 1.03757   2
  19   1   6 19.3955 4.12811  -2
 -22   1   6 19.3955 4.12811   1
 -21   1   6 2.91969 1.18818   2
  18   1   6 18.7828 2.68534  -2
 -21   1   6 18.7828 2.68534   1
  17   1   6 13.5737 2.58951  -2
 -20   1   6 13.5737 2.58951   1
 -20   1   6 4.32295 1.32902   2
  16   1   6 35.0602 2.92465  -2
 -19   1   6 35.0602 2.92465   1
 -19   1   6 6.73590 1.52167   2
 -18   1   6 7.63507 2.74079   1
 -18   1   6 2.29373 1.30117   2
  15   1   6 13.0467 3.31510  -2
 -18   1   6 13.0467 3.31510   1
  14   1   6 202.142 5.91683  -2
 -17   1   6 202.142 5.91683   1
 -17   1   6 47.0743 2.64777   2
 -17   1   6 173.108 8.19679   1
 -16   1   6 97.3950 5.73569   1
 -16   1   6 25.5160 2.24158   2
  13   1   6 112.501 4.05044  -2
 -16   1   6 112.501 4.05044   1
  12   1   6 4.19966 3.01578  -2
 -15   1   6 4.19966 3.01578   1
 -15   1   6 5.13906 1.79667   1
 -15   1   6 0.40024 1.85793   2
  11   1   6 100.742 3.39777  -2
 -14   1   6 100.742 3.39777   1
 -14   1   6 23.7199 3.04280   2
 -14   1   6 99.9303 5.89486   1
 -13   1   6 198.506 5.32676   1
  10   1   6 201.529 7.18605  -2
 -13   1   6 201.529 7.18605   1
 -13   1   6 50.8385 3.77851   2
   9   1   6 253.777 7.93518  -2
 -12   1   6 253.777 7.93518   1
 -12   1   6 234.181 10.7076   1
 -12   1   6 52.4328 3.97475   2
 -11   1   6 22.7564 3.53374   2
 -11   1   6 303.116 9.88263   1
   8   1   6 320.374 9.65813  -2
 -11   1   6 320.374 9.65813   1
   7   1   6 94.0478 3.88679  -2
 -10   1   6 94.0478 3.88679   1
 -10   1   6 21.0288 2.09782   2
 -10   1   6 88.5734 2.76955   1
  -9   1   6 144.716 3.97844   1
   6   1   6 259.586 8.13384  -2
  -9   1   6 259.586 8.13384   1
  -9   1   6 44.1514 3.14675   2
  -8   1   6 40.3783 1.68745   2
  -8   1   6 144.643 3.92234   1
   5   1   6 171.059 5.56738  -2
  -8   1   6 171.059 5.56738   1
  -7   1   6 7.59131 0.75339   1
   4   1   6 87.0181 3.19883  -2
  -7   1   6 87.0181 3.19883   1
  -7   1   6 7.05337 1.01742   2
  -6   1   6 22.2631 0.95794   1
   3   1   6 34.7672 3.23520  -2
  -6   1   6 34.7672 3.23520   1
  -6   1   6 6.59429 1.08743   2
  -5   1   6 11.1394 0.60605   2
   2   1   6 50.2070 3.73469  -2
  -5   1   6 50.2070 3.73469   1
  -5   1   6 42.9573 2.66269   1
  -4   1   6 211.591 6.81315   1
  -4   1   6 57.5613 1.44678   2
  -3   1   6 159.323 7.41320   2
  -3   1   6 610.804 18.6832   1
  -2   1   6 38.3716 1.78928   1
  -2   1   6 10.2018 1.18485   2
  -1   1   6 656.555 19.2962   1
  -1   1   6 162.644 4.29505   2
   0   1   6 792.972 23.1858   1
   0   1   6 215.145 6.88901   2
   1   1   6 57.3509 2.26146   2
   1   1   6 234.911 5.91876   1
  -4   1   6 266.774 11.5589  -2
   1   1   6 266.774 11.5589   1
   2   1   6 40.8498 1.17225   1
  -5   1   6 51.2476 4.04052  -2
   2   1   6 51.2476 4.04052   1
   2   1   6 8.57196 1.03258   2
   3   1   6 12.4142 1.29013   2
  -6   1   6 62.2983 2.07035  -2
   3   1   6 62.2983 2.07035   1
   3   1   6 36.7290 2.54056   1
   4   1   6 75.5438 2.23773   2
   4   1   6 312.482 8.06524   1
  -7   1   6 309.007 9.48645  -2
   4   1   6 309.007 9.48645   1
  -8   1   6 110.028 4.08067  -2
   5   1   6 110.028 4.08067   1
   5   1   6 79.9338 2.58648   1
   5   1   6 22.0847 1.13931   2
  -9   1   6 477.313 11.9255  -2
   6   1   6 477.313 11.9255   1
   6   1   6 386.598 17.1641   1
   6   1   6 111.521 3.89370   2
 -10   1   6 28.7857 2.51544  -2
   7   1   6 28.7857 2.51544   1
   7   1   6 1.01700 0.79383   2
   7   1   6 10.4543 1.97554   1
 -11   1   6 78.9460 3.26978  -2
   8   1   6 78.9460 3.26978   1
   8   1   6 6.98819 2.25013   2
 -12   1   6 64.8424 3.25818  -2
   9   1   6 64.8424 3.25818   1
   9   1   6 10.6626 2.67347   1
   9   1   6 2.41123 2.00284   2
 -13   1   6 124.256 3.35548  -2
  10   1   6 124.256 3.35548   1
  10   1   6 14.9908 3.73872   2
  10   1   6 82.2658 4.97103   1
 -14   1   6 43.4523 2.61947  -2
  11   1   6 43.4523 2.61947   1
  11   1   6 19.9757 2.95103   1
  11   1   6 5.94625 2.62411   2
  12   1   6 32.4225 3.56947   1
 -15   1   6 36.1075 2.95871  -2
  12   1   6 36.1075 2.95871   1
  12   1   6 7.32367 1.78415   2
 -16   1   6 80.5736 3.81648  -2
  13   1   6 80.5736 3.81648   1
  13   1   6 55.6674 3.01800   1
  13   1   6 15.9085 3.65283   2
 -17   1   6 98.8356 4.20549  -2
  14   1   6 98.8356 4.20549   1
  14   1   6 71.0562 3.35400   1
  14   1   6 22.5105 3.69323   2
  15   1   6 21.0746 2.28605   1
  15   1   6 3.95944 2.64180   2
 -18   1   6 22.3914 3.68789  -2
  15   1   6 22.3914 3.68789   1
 -19   1   6 33.0064 3.77032  -2
  16   1   6 33.0064 3.77032   1
  16   1   6 16.6536 2.17151   1
  17   1   6 22.8522 2.26694   1
 -20   1   6 24.7979 3.69317  -2
  17   1   6 24.7979 3.69317   1
  18   1   6 30.9095 2.41672   1
 -21   1   6 27.2292 2.82376  -2
  18   1   6 27.2292 2.82376   1
  19   1   6 32.0686 2.20327   1
 -22   1   6 33.0618 2.77654  -2
  19   1   6 33.0618 2.77654   1
  19   1   6 0.78163 3.05141   2
  20   1   6 3.23699 1.05821   1
 -23   1   6 7.46807 2.60322  -2
  20   1   6 7.46807 2.60322   1
 -24   1   6 118.700 4.50429  -2
  21   1   6 118.700 4.50429   1
  21   1   6 99.8807 3.49587   1
  22   1   6 26.8575 1.41408   1
 -25   1   6 40.6643 4.63074  -2
  22   1   6 40.6643 4.63074   1
  22   1   6 11.2503 1.91975   2
  23   1   6 52.6461 1.64129   1
  23   1   6 13.2553 1.31917   2
 -25   2   6 -0.9244 0.93238   1
 -25   2   6 -0.0332 0.72549   2
 -24   2   6 8.22124 1.22239   2
  21   2   6 41.0501 4.08596  -2
 -24   2   6 41.0501 4.08596   1
 -24   2   6 29.3573 2.02094   1
 -23   2   6 5.38519 0.87984   2
  20   2   6 34.8223 2.87128  -2
 -23   2   6 34.8223 2.87128   1
 -23   2   6 32.5452 4.96314   1
  19   2   6 149.400 4.66198  -2
 -22   2   6 149.400 4.66198   1
 -22   2   6 33.9279 1.94408   2
  18   2   6 5.43905 2.39388  -2
 -21   2   6 5.43905 2.39388   1
 -21   2   6 0.28812 1.02805   2
 -20   2   6 1.40369 1.22194   2
  17   2   6 17.5870 2.64649  -2
 -20   2   6 17.5870 2.64649   1
 -19   2   6 10.4477 1.76490   2
 -19   2   6 14.7637 2.35608   1
  16   2   6 41.0154 3.74481  -2
 -19   2   6 41.0154 3.74481   1
  15   2   6 37.3384 3.11676  -2
 -18   2   6 37.3384 3.11676   1
 -18   2   6 21.6620 2.31285   1
 -18   2   6 10.7818 1.85113   2
  14   2   6 20.1035 3.87117  -2
 -17   2   6 20.1035 3.87117   1
 -17   2   6 12.4322 2.11654   1
 -17   2   6 2.17622 1.28694   2
 -16   2   6 104.902 4.36758   1
  13   2   6 115.362 4.19576  -2
 -16   2   6 115.362 4.19576   1
 -16   2   6 26.4734 3.15155   2
 -15   2   6 183.390 4.91834   1
  12   2   6 184.986 7.16265  -2
 -15   2   6 184.986 7.16265   1
 -15   2   6 46.3190 3.65888   2
  11   2   6 68.4149 3.50615  -2
 -14   2   6 68.4149 3.50615   1
 -14   2   6 59.6729 2.32277   1
 -14   2   6 15.0679 2.80380   2
 -13   2   6 35.9481 1.97494   1
  10   2   6 44.1638 3.15255  -2
 -13   2   6 44.1638 3.15255   1
 -13   2   6 9.91895 2.73178   2
 -12   2   6 100.423 2.87888   1
   9   2   6 209.096 7.00360  -2
 -12   2   6 209.096 7.00360   1
 -11   2   6 4.91449 1.43612   1
   8   2   6 15.9186 2.16292  -2
 -11   2   6 15.9186 2.16292   1
 -10   2   6 304.393 5.73551   1
 -10   2   6 77.0077 4.63260   2
   7   2   6 323.010 14.0168  -2
 -10   2   6 323.010 14.0168   1
  -9   2   6 122.971 3.19404   1
  -9   2   6 30.3506 2.26700   2
   6   2   6 135.114 6.93875  -2
  -9   2   6 135.114 6.93875   1
  -8   2   6 74.3191 3.32835   1
   5   2   6 83.7977 5.08815  -2
  -8   2   6 83.7977 5.08815   1
  -8   2   6 20.2236 2.25678   2
   4   2   6 94.0252 5.37173  -2
  -7   2   6 94.0252 5.37173   1
  -7   2   6 66.7400 4.60439   1
  -7   2   6 22.0479 2.03879   2
   3   2   6 33.9887 3.38729  -2
  -6   2   6 33.9887 3.38729   1
  -6   2   6 8.36425 2.34692   1
  -5   2   6 24.0637 1.50538   2
   2   2   6 107.835 5.83419  -2
  -5   2   6 107.835 5.83419   1
  -5   2   6 87.9300 5.02169   1
  -4   2   6 236.467 11.1207   1
   1   2   6 311.995 13.2929  -2
  -4   2   6 311.995 13.2929   1
  -3   2   6 86.8763 3.66209   1
  -3   2   6 15.0769 3.02673   2
   0   2   6 265.663 11.4772  -2
  -3   2   6 265.663 11.4772   1
  -2   2   6 11.8878 1.69380   2
  -1   2   6 61.3602 3.18109  -2
  -2   2   6 61.3602 3.18109   1
  -2   2   6 47.0181 2.65805   1
  -1   2   6 48.7289 2.68954   1
  -2   2   6 76.8617 4.79757  -2
  -1   2   6 76.8617 4.79757   1
  -1   2   6 11.0982 1.76768   2
   0   2   6 198.058 6.77162   2
  -3   2   6 845.915 33.9709  -2
   0   2   6 845.915 33.9709   1
   0   2   6 581.791 25.8042   1
   1   2   6 89.2388 3.47022   2
  -4   2   6 430.469 17.9145  -2
   1   2   6 430.469 17.9145   1
  -5   2   6 85.8830 5.12487  -2
   2   2   6 85.8830 5.12487   1
   2   2   6 12.1311 2.25953   2
   2   2   6 62.0392 2.99470   1
  -6   2   6 123.389 4.33504  -2
   3   2   6 123.389 4.33504   1
   3   2   6 30.4080 2.85479   2
   4   2   6 90.8519 4.60915   1
   4   2   6 27.3943 3.16819   2
  -7   2   6 118.011 6.34519  -2
   4   2   6 118.011 6.34519   1
   5   2   6 10.8278 2.45455   2
  -8   2   6 54.7933 4.24878  -2
   5   2   6 54.7933 4.24878   1
   5   2   6 29.6991 2.59711   1
  -9   2   6 33.9561 2.91962  -2
   6   2   6 33.9561 2.91962   1
   6   2   6 5.97211 1.67556   2
   6   2   6 8.08035 1.74647   1
   7   2   6 11.6109 1.76229   2
 -10   2   6 130.108 3.31035  -2
   7   2   6 130.108 3.31035   1
   7   2   6 60.2303 4.26787   1
 -11   2   6 68.9196 2.48254  -2
   8   2   6 68.9196 2.48254   1
   8   2   6 17.4124 1.78215   2
 -12   2   6 504.382 9.14702  -2
   9   2   6 504.382 9.14702   1
   9   2   6 121.790 3.14209   2
  10   2   6 27.6760 1.79339   2
 -13   2   6 109.799 3.50405  -2
  10   2   6 109.799 3.50405   1
  10   2   6 100.048 5.60818   1
 -14   2   6 47.7598 2.73854  -2
  11   2   6 47.7598 2.73854   1
  11   2   6 13.0739 1.46245   2
  11   2   6 28.8801 3.40334   1
  12   2   6 1.35853 1.26783   2
 -15   2   6 48.2626 2.66453  -2
  12   2   6 48.2626 2.66453   1
  12   2   6 2.04638 2.01984   1
  13   2   6 3.20565 1.65720   2
 -16   2   6 43.8724 2.75741  -2
  13   2   6 43.8724 2.75741   1
  13   2   6 14.7902 3.07520   1
  14   2   6 5.72756 1.67855   2
 -17   2   6 22.0906 2.71734  -2
  14   2   6 22.0906 2.71734   1
  14   2   6 17.3920 2.26923   1
 -18   2   6 38.2999 3.02601  -2
  15   2   6 38.2999 3.02601   1
  15   2   6 34.6051 2.56906   1
  15   2   6 9.39928 1.89102   2
  16   2   6 26.8911 2.48703   2
  16   2   6 102.096 4.03947   1
 -19   2   6 116.111 5.63578  -2
  16   2   6 116.111 5.63578   1
  17   2   6 45.0816 2.32385   1
 -20   2   6 37.7569 3.70249  -2
  17   2   6 37.7569 3.70249   1
  18   2   6 1.24129 1.32665   1
 -21   2   6 6.69704 3.92630  -2
  18   2   6 6.69704 3.92630   1
 -22   2   6 132.535 7.17764  -2
  19   2   6 132.535 7.17764   1
  19   2   6 102.708 3.72765   1
  20   2   6 0.38423 3.10321   2
  20   2   6 8.25664 1.29010   1
 -23   2   6 16.0346 3.56970  -2
  20   2   6 16.0346 3.56970   1
  21   2   6 10.9823 1.49278   2
 -24   2   6 39.1378 2.55715  -2
  21   2   6 39.1378 2.55715   1
  21   2   6 36.1650 1.91935   1
  22   2   6 2.61634 0.75684   1
  22   2   6 0.20664 0.74451   2
 -24   3   6 108.871 5.21179   1
 -24   3   6 25.0460 1.36861   2
 -23   3   6 19.6696 1.32689   2
 -23   3   6 74.2911 4.15676   1
 -22   3   6 1.88399 2.45160   1
 -22   3   6 -0.5716 0.97848   2
  19   3   6 13.1750 4.34823  -2
 -22   3   6 13.1750 4.34823   1
 -21   3   6 13.0163 1.90429   1
  18   3   6 13.7343 2.99605  -2
 -21   3   6 13.7343 2.99605   1
 -21   3   6 4.49096 1.21598   2
  17   3   6 9.61027 2.48862  -2
 -20   3   6 9.61027 2.48862   1
 -20   3   6 8.73424 1.23176   1
 -20   3   6 0.71282 1.06564   2
  16   3   6 26.6480 3.48649  -2
 -19   3   6 26.6480 3.48649   1
 -19   3   6 3.25074 1.08433   2
 -19   3   6 1.56577 1.05428   1
  15   3   6 23.5156 3.66158  -2
 -18   3   6 23.5156 3.66158   1
 -18   3   6 15.2479 1.70672   1
 -18   3   6 5.42472 1.53473   2
 -17   3   6 7.67556 1.66858   2
 -17   3   6 17.3104 1.83083   1
  14   3   6 24.0696 3.78552  -2
 -17   3   6 24.0696 3.78552   1
  13   3   6 9.74568 1.93111  -2
 -16   3   6 9.74568 1.93111   1
 -16   3   6 0.55721 1.88136   2
 -15   3   6 152.410 5.25549   1
  12   3   6 187.475 6.49972  -2
 -15   3   6 187.475 6.49972   1
  11   3   6 214.272 5.84725  -2
 -14   3   6 214.272 5.84725   1
 -14   3   6 190.319 8.66866   1
 -13   3   6 50.3126 2.29458   1
  10   3   6 58.0575 3.75403  -2
 -13   3   6 58.0575 3.75403   1
 -12   3   6 190.032 6.08501   1
   9   3   6 244.124 6.59107  -2
 -12   3   6 244.124 6.59107   1
 -11   3   6 757.366 20.2477   1
   8   3   6 825.866 16.5520  -2
 -11   3   6 825.866 16.5520   1
 -11   3   6 191.667 8.53225   2
   7   3   6 179.066 6.31183  -2
 -10   3   6 179.066 6.31183   1
 -10   3   6 160.339 4.43021   1
 -10   3   6 51.1298 3.88832   2
  -9   3   6 65.7219 2.63948   1
   6   3   6 104.733 3.76340  -2
  -9   3   6 104.733 3.76340   1
  -9   3   6 31.0864 3.48005   2
  -8   3   6 11.0804 1.44950   1
   5   3   6 14.0455 2.92748  -2
  -8   3   6 14.0455 2.92748   1
   4   3   6 354.544 10.6546  -2
  -7   3   6 354.544 10.6546   1
  -7   3   6 241.193 6.01091   1
   3   3   6 540.123 12.5351  -2
  -6   3   6 540.123 12.5351   1
  -6   3   6 452.938 12.8545   1
  -5   3   6 6.58176 1.64156   1
   2   3   6 8.32643 2.23643  -2
  -5   3   6 8.32643 2.23643   1
  -4   3   6 8.44929 1.43573   1
   1   3   6 30.6651 3.05038  -2
  -4   3   6 30.6651 3.05038   1
  -3   3   6 57.6370 2.46566   1
   0   3   6 50.9040 3.98116  -2
  -3   3   6 50.9040 3.98116   1
  -3   3   6 12.0083 2.78857   2
  -2   3   6 37.2261 2.57390   2
  -2   3   6 148.330 3.64116   1
  -1   3   6 159.308 6.01428  -2
  -2   3   6 159.308 6.01428   1
  -1   3   6 9.43613 1.69428   2
  -2   3   6 73.2469 3.76356  -2
  -1   3   6 73.2469 3.76356   1
  -1   3   6 36.9671 2.76883   1
  -3   3   6 16.8659 2.22033  -2
   0   3   6 16.8659 2.22033   1
   0   3   6 2.17295 2.07060   1
   0   3   6 1.19248 1.70793   2
   1   3   6 24.4196 1.76267   2
  -4   3   6 109.586 3.30911  -2
   1   3   6 109.586 3.30911   1
   1   3   6 100.693 5.85947   1
   2   3   6 3.02506 1.44470   2
  -5   3   6 3.95293 1.81669  -2
   2   3   6 3.95293 1.81669   1
  -6   3   6 454.533 9.37482  -2
   3   3   6 454.533 9.37482   1
   3   3   6 376.344 14.9108   1
   3   3   6 83.3937 3.38161   2
   4   3   6 123.732 4.23014   2
   4   3   6 505.622 19.4327   1
  -7   3   6 532.201 9.64550  -2
   4   3   6 532.201 9.64550   1
  -8   3   6 8.07721 1.74631  -2
   5   3   6 8.07721 1.74631   1
   5   3   6 2.10294 1.10119   2
  -9   3   6 134.333 3.43001  -2
   6   3   6 134.333 3.43001   1
   6   3   6 25.1747 1.78232   2
   6   3   6 123.233 6.36419   1
 -10   3   6 195.659 4.32226  -2
   7   3   6 195.659 4.32226   1
   7   3   6 63.1017 2.99827   2
   7   3   6 166.158 7.82769   1
 -11   3   6 569.037 10.2818  -2
   8   3   6 569.037 10.2818   1
   8   3   6 424.321 16.8289   1
   8   3   6 118.142 6.00822   2
 -12   3   6 316.870 5.66897  -2
   9   3   6 316.870 5.66897   1
   9   3   6 75.2939 3.22512   2
 -13   3   6 20.0018 1.98497  -2
  10   3   6 20.0018 1.98497   1
  10   3   6 6.98834 1.44917   2
 -14   3   6 142.376 3.62554  -2
  11   3   6 142.376 3.62554   1
 -15   3   6 247.622 5.76251  -2
  12   3   6 247.622 5.76251   1
  12   3   6 56.7492 4.12507   2
 -16   3   6 22.4459 2.55363  -2
  13   3   6 22.4459 2.55363   1
  13   3   6 21.5155 3.50582   1
 -17   3   6 14.1170 2.54252  -2
  14   3   6 14.1170 2.54252   1
  14   3   6 9.18860 2.01999   1
  14   3   6 2.27793 1.06953   2
  15   3   6 17.3846 1.63982   2
 -18   3   6 62.8982 3.31694  -2
  15   3   6 62.8982 3.31694   1
  15   3   6 62.6447 3.15630   1
  16   3   6 22.9552 1.66950   2
 -19   3   6 89.7846 4.23441  -2
  16   3   6 89.7846 4.23441   1
  16   3   6 80.0367 2.94609   1
  17   3   6 3.68364 1.00112   2
  17   3   6 2.30338 1.23106   1
 -20   3   6 10.9693 2.61779  -2
  17   3   6 10.9693 2.61779   1
  18   3   6 0.49602 1.11853   1
 -21   3   6 7.72553 2.42443  -2
  18   3   6 7.72553 2.42443   1
  18   3   6 -0.7914 1.09457   2
  19   3   6 1.62700 1.04497   1
  19   3   6 -1.5427 2.40529   2
  20   3   6 9.11743 1.79983   2
  20   3   6 36.3926 1.83967   1
 -23   3   6 56.9760 4.14618  -2
  20   3   6 56.9760 4.14618   1
 -24   3   6 78.2121 4.66002  -2
  21   3   6 78.2121 4.66002   1
  21   3   6 53.6234 2.09417   1
  21   3   6 12.0010 1.44996   2
 -21   4   6 1.39612 1.01674   2
 -21   4   6 -1.2149 1.27014   1
  18   4   6 -4.3208 3.24308  -2
 -21   4   6 -4.3208 3.24308   1
 -20   4   6 23.0142 1.53986   1
  17   4   6 25.7548 3.85129  -2
 -20   4   6 25.7548 3.85129   1
 -20   4   6 3.69438 1.42329   2
 -19   4   6 16.1512 1.29622   1
  16   4   6 23.9216 2.91286  -2
 -19   4   6 23.9216 2.91286   1
 -19   4   6 5.12189 1.38390   2
  15   4   6 94.6981 6.50167  -2
 -18   4   6 94.6981 6.50167   1
 -18   4   6 25.7915 2.72578   2
 -18   4   6 98.1392 2.85095   1
 -17   4   6 5.65648 1.17561   1
  14   4   6 17.0306 2.58043  -2
 -17   4   6 17.0306 2.58043   1
 -17   4   6 0.02357 1.30672   2
 -16   4   6 134.900 3.71145   1
 -16   4   6 32.7749 2.35080   2
  13   4   6 132.983 7.83375  -2
 -16   4   6 132.983 7.83375   1
  12   4   6 5.80240 1.75541  -2
 -15   4   6 5.80240 1.75541   1
 -15   4   6 1.76098 1.91169   2
  11   4   6 18.2491 1.93127  -2
 -14   4   6 18.2491 1.93127   1
  10   4   6 41.3594 2.25029  -2
 -13   4   6 41.3594 2.25029   1
   9   4   6 9.52954 1.96205  -2
 -12   4   6 9.52954 1.96205   1
 -12   4   6 4.36362 2.00897   1
   8   4   6 153.293 3.62433  -2
 -11   4   6 153.293 3.62433   1
   7   4   6 116.844 3.03729  -2
 -10   4   6 116.844 3.03729   1
  -9   4   6 3.63247 1.83234   1
   6   4   6 26.2686 2.07553  -2
  -9   4   6 26.2686 2.07553   1
   5   4   6 228.651 4.81173  -2
  -8   4   6 228.651 4.81173   1
  -8   4   6 143.938 7.15848   1
   4   4   6 39.7363 2.03997  -2
  -7   4   6 39.7363 2.03997   1
   3   4   6 48.9797 2.15715  -2
  -6   4   6 48.9797 2.15715   1
   2   4   6 9.85707 1.85495  -2
  -5   4   6 9.85707 1.85495   1
   1   4   6 13.0076 1.96804  -2
  -4   4   6 13.0076 1.96804   1
   0   4   6 6.16261 2.00549  -2
  -3   4   6 6.16261 2.00549   1
  -1   4   6 91.0480 3.11082  -2
  -2   4   6 91.0480 3.11082   1
  -2   4   6 133.371 3.17603  -2
  -1   4   6 133.371 3.17603   1
  -3   4   6 14.8720 1.84596  -2
   0   4   6 14.8720 1.84596   1
  -4   4   6 7.25446 1.82440  -2
   1   4   6 7.25446 1.82440   1
  -5   4   6 28.6033 2.07244  -2
   2   4   6 28.6033 2.07244   1
  -6   4   6 188.500 4.20051  -2
   3   4   6 188.500 4.20051   1
  -7   4   6 133.452 3.14373  -2
   4   4   6 133.452 3.14373   1
  -8   4   6 372.111 6.44832  -2
   5   4   6 372.111 6.44832   1
   5   4   6 77.7992 4.73879   2
   6   4   6 18.1320 2.76792   2
  -9   4   6 77.1257 2.46612  -2
   6   4   6 77.1257 2.46612   1
 -10   4   6 212.909 4.19428  -2
   7   4   6 212.909 4.19428   1
 -11   4   6 48.2022 2.06761  -2
   8   4   6 48.2022 2.06761   1
 -12   4   6 9.72221 2.00608  -2
   9   4   6 9.72221 2.00608   1
   9   4   6 4.13261 1.84275   2
 -13   4   6 7.33201 2.02923  -2
  10   4   6 7.33201 2.02923   1
 -14   4   6 5.32314 2.00076  -2
  11   4   6 5.32314 2.00076   1
 -15   4   6 32.3860 2.39951  -2
  12   4   6 32.3860 2.39951   1
  12   4   6 36.7365 3.74911   1
 -16   4   6 40.3672 2.46898  -2
  13   4   6 40.3672 2.46898   1
  13   4   6 4.94846 1.20362   2
  13   4   6 12.9215 2.18911   1
  14   4   6 3.76661 1.06956   2
  14   4   6 19.3196 2.30113   1
 -17   4   6 18.9075 2.36818  -2
  14   4   6 18.9075 2.36818   1
  15   4   6 0.25231 0.88264   2
  15   4   6 0.76714 1.86633   1
 -18   4   6 28.3737 2.25992  -2
  15   4   6 28.3737 2.25992   1
  16   4   6 2.25451 0.71397   2
 -19   4   6 16.2096 2.30127  -2
  16   4   6 16.2096 2.30127   1
  16   4   6 12.0377 2.09685   1
  17   4   6 0.89758 0.79083   2
 -20   4   6 14.9365 2.13082  -2
  17   4   6 14.9365 2.13082   1
  17   4   6 6.34933 1.80095   1
  18   4   6 -1.5709 0.95398   2
  18   4   6 2.24998 1.64040   1
 -21   4   6 3.29374 2.41076  -2
  18   4   6 3.29374 2.41076   1
  19   4   6 2.26181 0.79474   1
 -18   5   6 -0.3847 0.75446   1
 -18   5   6 -0.5427 0.95684   2
 -17   5   6 2.86383 0.66115   1
 -16   5   6 16.9345 1.15122   1
 -16   5   6 5.95534 2.53830   2
  13   5   6 14.1164 4.88130  -2
 -16   5   6 14.1164 4.88130   1
 -15   5   6 8.87791 1.35110   1
  12   5   6 9.45517 2.12937  -2
 -15   5   6 9.45517 2.12937   1
 -14   5   6 1.74425 0.91175   1
  11   5   6 5.05028 4.56963  -2
 -14   5   6 5.05028 4.56963   1
 -13   5   6 -0.9648 1.27018   1
  10   5   6 0.14427 1.63086  -2
 -13   5   6 0.14427 1.63086   1
   9   5   6 8.27009 1.59598  -2
 -12   5   6 8.27009 1.59598   1
   8   5   6 9.09068 1.97949  -2
 -11   5   6 9.09068 1.97949   1
 -11   5   6 7.15577 1.91129   1
   7   5   6 48.0725 2.04709  -2
 -10   5   6 48.0725 2.04709   1
   6   5   6 27.2174 1.91891  -2
  -9   5   6 27.2174 1.91891   1
   5   5   6 9.82166 1.80617  -2
  -8   5   6 9.82166 1.80617   1
   4   5   6 132.058 3.37485  -2
  -7   5   6 132.058 3.37485   1
   3   5   6 157.510 4.02574  -2
  -6   5   6 157.510 4.02574   1
   2   5   6 83.6738 3.20852  -2
  -5   5   6 83.6738 3.20852   1
  -5   5   6 42.7944 4.25770   1
  -4   5   6 99.6563 5.99153   1
   1   5   6 101.089 3.62575  -2
  -4   5   6 101.089 3.62575   1
   0   5   6 3.48177 2.19735  -2
  -3   5   6 3.48177 2.19735   1
  -3   5   6 3.59390 2.66967   1
  -1   5   6 104.894 3.72039  -2
  -2   5   6 104.894 3.72039   1
  -2   5   6 100.103 6.33528   1
  -2   5   6 28.3407 2.52772  -2
  -1   5   6 28.3407 2.52772   1
  -1   5   6 0.96919 3.00884   2
  -3   5   6 0.53657 2.13095  -2
   0   5   6 0.53657 2.13095   1
   0   5   6 -1.8662 2.66320   2
  -4   5   6 34.2127 2.34680  -2
   1   5   6 34.2127 2.34680   1
   1   5   6 0.76444 2.39502   2
  -5   5   6 197.645 4.35571  -2
   2   5   6 197.645 4.35571   1
   2   5   6 54.8088 4.46932   2
  -6   5   6 245.719 5.06682  -2
   3   5   6 245.719 5.06682   1
  -7   5   6 34.0940 2.00816  -2
   4   5   6 34.0940 2.00816   1
  -8   5   6 3.49835 1.75777  -2
   5   5   6 3.49835 1.75777   1
  -9   5   6 12.4686 1.84065  -2
   6   5   6 12.4686 1.84065   1
 -10   5   6 127.777 3.58410  -2
   7   5   6 127.777 3.58410   1
 -11   5   6 16.4676 1.99243  -2
   8   5   6 16.4676 1.99243   1
   8   5   6 1.37967 1.41189   2
 -12   5   6 8.14828 2.06533  -2
   9   5   6 8.14828 2.06533   1
 -13   5   6 0.05408 2.30227  -2
  10   5   6 0.05408 2.30227   1
  10   5   6 -1.0604 1.20237   2
 -14   5   6 88.8043 3.76905  -2
  11   5   6 88.8043 3.76905   1
  11   5   6 16.7443 1.45335   2
 -15   5   6 28.4016 2.12595  -2
  12   5   6 28.4016 2.12595   1
  12   5   6 6.46669 1.17512   2
  13   5   6 2.14271 0.61697   2
 -16   5   6 6.74454 1.96391  -2
  13   5   6 6.74454 1.96391   1
  13   5   6 0.60246 2.34118   1
  14   5   6 30.6148 3.47219   1
  14   5   6 7.58128 1.07664   2
 -17   5   6 30.6084 2.27867  -2
  14   5   6 30.6084 2.27867   1
  15   5   6 1.63688 0.66853   2
 -18   5   6 17.7654 2.78171  -2
  15   5   6 17.7654 2.78171   1
  15   5   6 9.27370 1.74851   1
  10   6   6 94.0681 4.44006  -2
 -13   6   6 94.0681 4.44006   1
   9   6   6 21.6031 1.40650  -2
 -12   6   6 21.6031 1.40650   1
   8   6   6 14.5806 1.43579  -2
 -11   6   6 14.5806 1.43579   1
   7   6   6 2.40798 1.38056  -2
 -10   6   6 2.40798 1.38056   1
   6   6   6 41.6671 2.30417  -2
  -9   6   6 41.6671 2.30417   1
  -9   6   6 37.2576 2.90571   1
   5   6   6 63.3159 2.76046  -2
  -8   6   6 63.3159 2.76046   1
  -8   6   6 55.3185 3.56465   1
   4   6   6 33.7049 2.28293  -2
  -7   6   6 33.7049 2.28293   1
  -7   6   6 37.2520 3.16759   1
   3   6   6 4.43494 1.80506  -2
  -6   6   6 4.43494 1.80506   1
  -6   6   6 5.16482 1.96643   1
   2   6   6 50.0109 2.35505  -2
  -5   6   6 50.0109 2.35505   1
  -5   6   6 35.0823 3.65415   1
   1   6   6 70.4303 2.69745  -2
  -4   6   6 70.4303 2.69745   1
  -4   6   6 20.3438 2.77215   2
   0   6   6 9.33900 1.93174  -2
  -3   6   6 9.33900 1.93174   1
  -1   6   6 20.5585 2.08271  -2
  -2   6   6 20.5585 2.08271   1
  -2   6   6 11.8660 2.04501  -2
  -1   6   6 11.8660 2.04501   1
  -3   6   6 13.9229 2.10376  -2
   0   6   6 13.9229 2.10376   1
   1   6   6 18.9145 2.75165   1
  -4   6   6 41.6830 3.97371  -2
   1   6   6 41.6830 3.97371   1
   2   6   6 3.39082 2.11367   2
  -5   6   6 36.0465 3.84765  -2
   2   6   6 36.0465 3.84765   1
   2   6   6 24.9021 3.03957   1
  -6   6   6 9.10587 3.11479  -2
   3   6   6 9.10587 3.11479   1
   3   6   6 10.4504 2.66500   2
  -7   6   6 11.9824 2.47493  -2
   4   6   6 11.9824 2.47493   1
  -8   6   6 48.2063 3.52506  -2
   5   6   6 48.2063 3.52506   1
   5   6   6 14.2456 2.31681   2
  -9   6   6 42.7902 2.63529  -2
   6   6   6 42.7902 2.63529   1
   6   6   6 11.9687 2.02075   2
 -10   6   6 1.24429 2.01757  -2
   7   6   6 1.24429 2.01757   1
 -11   6   6 6.87409 2.01454  -2
   8   6   6 6.87409 2.01454   1
 -12   6   6 75.7805 3.17890  -2
   9   6   6 75.7805 3.17890   1
  10   6   6 80.3870 3.95823   1
 -26   0   7 1.87022 1.16587   1
 -26   0   7 1.27263 1.02091   2
 -25   0   7 0.35051 0.85190   2
 -25   0   7 0.12421 1.15498   1
 -24   0   7 -0.5026 0.97352   2
 -24   0   7 1.03351 1.42427   1
 -23   0   7 2.04627 1.06474   2
 -23   0   7 -1.8403 3.66040   1
 -22   0   7 0.89175 1.13661   2
 -22   0   7 -0.8431 4.17170   1
 -21   0   7 0.61525 1.68856   2
 -21   0   7 4.60118 2.12747   1
 -20   0   7 4.32276 2.43007   1
 -20   0   7 0.79983 1.70167   2
 -19   0   7 9.64378 2.58884   1
 -19   0   7 2.29407 1.81834   2
 -18   0   7 2.02020 1.79457   2
 -18   0   7 5.86316 1.67227   1
 -17   0   7 3.64425 1.95217   2
 -17   0   7 0.84819 1.48113   1
 -16   0   7 2.08505 1.74196   2
 -16   0   7 6.32772 1.95468   1
 -15   0   7 5.74437 1.95777   1
 -15   0   7 0.86212 1.77445   2
 -14   0   7 10.9827 2.37054   1
 -14   0   7 1.24742 1.75734   2
 -13   0   7 4.11691 2.03725   2
 -13   0   7 8.75379 2.18728   1
 -12   0   7 2.15820 1.13802   1
 -12   0   7 -0.5165 1.49986   2
 -11   0   7 0.96635 1.09452   1
 -11   0   7 1.66719 1.98266   2
 -10   0   7 0.33522 0.85778   1
 -10   0   7 -0.0527 1.53264   2
  -9   0   7 0.69515 1.04280   2
  -9   0   7 -0.6090 0.79622   1
  -8   0   7 -0.2865 0.80251   2
  -8   0   7 1.58666 0.78789   1
  -7   0   7 -0.0040 0.71388   2
  -7   0   7 0.35883 0.65864   1
  -6   0   7 0.15379 0.61672   1
  -6   0   7 0.73422 0.56664   2
  -5   0   7 0.10740 0.47494   2
  -5   0   7 1.30570 0.48645   1
  -4   0   7 0.46901 0.44345   1
  -4   0   7 0.43232 0.45379   2
  -3   0   7 0.55570 0.62783   2
  -3   0   7 -0.2815 0.38301   1
  -2   0   7 -0.2849 0.39963   1
  -2   0   7 0.81968 0.38412   2
  -1   0   7 0.48320 0.36788   2
  -1   0   7 0.78031 0.42586   1
   0   0   7 0.42559 0.38748   2
   0   0   7 1.26456 0.65771   1
   1   0   7 0.20015 0.36700   2
   1   0   7 1.40537 0.51791   1
   2   0   7 -0.0916 0.43236   2
   2   0   7 0.15867 0.54737   1
   3   0   7 0.57341 0.63896   1
   3   0   7 0.07299 0.61101   2
   4   0   7 0.07689 0.70968   2
   4   0   7 0.93253 0.78958   1
   5   0   7 1.64504 0.82386   2
   5   0   7 1.58862 1.00356   1
   6   0   7 -1.0179 1.16544   1
   6   0   7 0.41788 0.85784   2
   7   0   7 0.79516 0.95660   2
   7   0   7 1.29808 1.87067   1
   8   0   7 3.96112 1.70690   1
   8   0   7 1.29242 1.30980   2
   9   0   7 0.69969 1.80275   1
   9   0   7 1.82238 1.29622   2
  10   0   7 3.76301 1.82388   2
  10   0   7 0.45824 2.30321   1
  11   0   7 -2.0215 1.75389   2
  11   0   7 -1.7625 1.89305   1
  12   0   7 -2.6321 1.96757   1
  12   0   7 1.96610 1.82823   2
  13   0   7 0.82659 1.94214   1
  13   0   7 3.70253 2.05998   2
  14   0   7 0.28675 1.37222   2
  14   0   7 5.39996 1.83979   1
  15   0   7 7.68155 1.83868   1
  15   0   7 1.43087 1.43391   2
  16   0   7 2.47387 2.65692   2
  16   0   7 8.49701 2.02026   1
  17   0   7 -0.9723 2.70569   2
  17   0   7 3.21041 1.65453   1
  18   0   7 -0.2221 1.63346   1
  18   0   7 0.99851 1.50877   2
  19   0   7 3.03049 1.12794   1
  20   0   7 -0.0754 1.04672   1
  21   0   7 -0.2749 1.17284   2
  21   0   7 1.88521 1.10301   1
  22   0   7 -1.3617 1.06486   2
  22   0   7 1.29666 0.96881   1
  23   0   7 -0.3919 1.01734   1
  23   0   7 -0.1729 0.95460   2
 -26   1   7 2.57052 0.71503   2
 -26   1   7 8.39586 1.38055   1
 -25   1   7 57.0793 1.65315   2
 -25   1   7 225.395 6.88377   1
 -24   1   7 99.2507 5.28922   1
 -24   1   7 23.1421 1.20906   2
  21   1   7 105.989 6.14711  -2
 -24   1   7 105.989 6.14711   1
 -23   1   7 1.40864 0.83207   2
 -23   1   7 3.22574 1.54186   1
  20   1   7 -4.8714 3.69832  -2
 -23   1   7 -4.8714 3.69832   1
 -22   1   7 4.86890 1.01695   2
  19   1   7 28.1774 4.38668  -2
 -22   1   7 28.1774 4.38668   1
 -22   1   7 20.1430 2.34154   1
 -21   1   7 1.33439 1.12219   2
 -21   1   7 3.43331 1.51932   1
  18   1   7 7.14276 4.35318  -2
 -21   1   7 7.14276 4.35318   1
  17   1   7 57.4475 5.47389  -2
 -20   1   7 57.4475 5.47389   1
 -20   1   7 17.9880 1.55352   2
 -20   1   7 82.6223 5.46652   1
 -19   1   7 63.2565 2.94004   2
 -19   1   7 223.222 7.46226   1
  16   1   7 314.929 14.4087  -2
 -19   1   7 314.929 14.4087   1
  15   1   7 175.296 9.41754  -2
 -18   1   7 175.296 9.41754   1
 -18   1   7 29.7037 2.21318   2
 -18   1   7 118.837 3.89195   1
 -17   1   7 3.44295 1.30261   2
 -17   1   7 10.3935 2.10939   1
  14   1   7 33.5196 3.53510  -2
 -17   1   7 33.5196 3.53510   1
 -16   1   7 292.662 7.32631   1
  13   1   7 358.296 16.0351  -2
 -16   1   7 358.296 16.0351   1
 -16   1   7 81.0638 3.38351   2
  12   1   7 210.500 10.7958  -2
 -15   1   7 210.500 10.7958   1
 -15   1   7 219.832 5.04364   1
 -15   1   7 53.0824 2.74945   2
 -14   1   7 109.577 3.06517   1
 -14   1   7 27.2895 2.17251   2
  11   1   7 131.695 9.01109  -2
 -14   1   7 131.695 9.01109   1
 -13   1   7 33.6716 2.26216   2
 -13   1   7 124.038 2.97713   1
  10   1   7 128.843 9.05119  -2
 -13   1   7 128.843 9.05119   1
 -12   1   7 19.1153 1.90373   1
 -12   1   7 8.94823 1.59649   2
 -11   1   7 195.559 4.60067   1
 -11   1   7 44.6680 1.91959   2
 -10   1   7 22.9795 2.19171   2
   7   1   7 104.947 4.39088  -2
 -10   1   7 104.947 4.39088   1
 -10   1   7 95.0492 4.91852   1
  -9   1   7 595.566 14.3029   1
  -9   1   7 151.484 4.33182   2
   5   1   7 132.322 6.52985  -2
  -8   1   7 132.322 6.52985   1
  -8   1   7 136.443 3.75651   1
  -8   1   7 35.4802 1.56868   2
  -7   1   7 50.9901 1.57781   2
  -7   1   7 205.897 5.30991   1
  -6   1   7 104.459 3.12574   1
  -6   1   7 27.4684 1.05244   2
   3   1   7 129.153 6.36983  -2
  -6   1   7 129.153 6.36983   1
  -5   1   7 2.67626 0.49120   2
   2   1   7 20.4080 3.18763  -2
  -5   1   7 20.4080 3.18763   1
  -5   1   7 9.75301 1.13950   1
  -4   1   7 60.8749 3.55581   2
  -4   1   7 244.529 7.88741   1
   1   1   7 423.688 17.4563  -2
  -4   1   7 423.688 17.4563   1
  -3   1   7 9.99627 1.28310   1
   0   1   7 11.3490 3.17891  -2
  -3   1   7 11.3490 3.17891   1
  -3   1   7 3.17174 1.15347   2
  -2   1   7 470.908 14.5792   1
  -2   1   7 121.277 5.97503   2
  -1   1   7 5.83770 1.11754   2
  -1   1   7 27.9611 2.52944   1
   0   1   7 33.9848 2.69771   1
   0   1   7 6.89775 1.13586   2
   1   1   7 184.085 6.05661   2
   1   1   7 709.394 30.7097   1
   2   1   7 14.6521 1.37221   2
   2   1   7 67.7960 1.78616   1
  -5   1   7 74.2141 5.00051  -2
   2   1   7 74.2141 5.00051   1
  -6   1   7 141.197 7.06425  -2
   3   1   7 141.197 7.06425   1
   3   1   7 116.980 2.88696   1
   3   1   7 30.3742 1.56234   2
   4   1   7 729.831 15.7843   1
   4   1   7 192.405 5.03502   2
  -7   1   7 802.107 32.2701  -2
   4   1   7 802.107 32.2701   1
  -8   1   7 38.5409 4.29658  -2
   5   1   7 38.5409 4.29658   1
   5   1   7 0.23907 0.60985   2
   5   1   7 5.03175 0.91925   1
  -9   1   7 773.629 31.2567  -2
   6   1   7 773.629 31.2567   1
   6   1   7 628.905 15.9229   1
   6   1   7 179.404 4.82741   2
   7   1   7 24.4743 1.97969   1
   7   1   7 7.61277 1.88124   2
 -10   1   7 41.0505 4.73026  -2
   7   1   7 41.0505 4.73026   1
   8   1   7 28.4090 1.85507   1
 -11   1   7 81.1897 5.97445  -2
   8   1   7 81.1897 5.97445   1
   8   1   7 12.9857 1.46070   2
   9   1   7 185.194 3.88819   2
 -12   1   7 760.207 15.0770  -2
   9   1   7 760.207 15.0770   1
   9   1   7 772.132 17.5842   1
  10   1   7 9.99559 1.80389   2
  10   1   7 28.4413 2.31267   1
 -13   1   7 59.3370 3.04189  -2
  10   1   7 59.3370 3.04189   1
  11   1   7 24.4993 1.72515   2
  11   1   7 99.1567 3.91297   1
 -14   1   7 125.315 4.54304  -2
  11   1   7 125.315 4.54304   1
  12   1   7 7.51976 1.40261   2
 -15   1   7 62.0444 3.41255  -2
  12   1   7 62.0444 3.41255   1
  12   1   7 8.08052 1.81198   1
 -16   1   7 299.843 7.88399  -2
  13   1   7 299.843 7.88399   1
  13   1   7 64.8160 3.34924   2
  13   1   7 257.324 7.83497   1
 -17   1   7 88.0614 4.20171  -2
  14   1   7 88.0614 4.20171   1
  14   1   7 29.0376 4.01781   2
  14   1   7 89.3397 3.78279   1
  15   1   7 212.117 6.74436   1
  15   1   7 62.6389 2.54316   2
 -18   1   7 245.690 8.31740  -2
  15   1   7 245.690 8.31740   1
  16   1   7 386.509 11.0601   1
 -19   1   7 468.197 13.8362  -2
  16   1   7 468.197 13.8362   1
  16   1   7 101.424 4.20328   2
 -20   1   7 28.6367 3.61671  -2
  17   1   7 28.6367 3.61671   1
  17   1   7 12.6929 2.91484   2
  17   1   7 17.1449 1.75586   1
 -21   1   7 32.2528 2.81924  -2
  18   1   7 32.2528 2.81924   1
  18   1   7 27.5321 2.18530   1
  18   1   7 12.0867 2.16702   2
  19   1   7 11.6160 1.93495   2
 -22   1   7 48.6582 3.48443  -2
  19   1   7 48.6582 3.48443   1
  19   1   7 41.8790 1.92989   1
 -23   1   7 3.09698 2.61789  -2
  20   1   7 3.09698 2.61789   1
  20   1   7 0.39507 1.12458   2
  20   1   7 7.37226 1.22331   1
  21   1   7 8.16336 0.92127   1
  21   1   7 3.21126 1.15859   2
  22   1   7 15.7343 1.40000   2
  22   1   7 57.6691 1.72230   1
  23   1   7 1.32414 0.77202   2
  23   1   7 4.39531 0.95937   1
 -25   2   7 12.9057 0.93086   2
 -25   2   7 49.4777 2.40372   1
 -24   2   7 2.73435 0.65819   2
 -24   2   7 2.27226 1.05008   1
 -23   2   7 46.3258 1.70244   2
 -23   2   7 191.627 6.39263   1
  20   2   7 226.244 10.5197  -2
 -23   2   7 226.244 10.5197   1
 -22   2   7 47.6518 2.78385   1
 -22   2   7 14.8135 1.20403   2
  19   2   7 73.5904 5.73494  -2
 -22   2   7 73.5904 5.73494   1
 -21   2   7 17.3334 1.62721   2
 -21   2   7 52.9088 2.99613   1
  18   2   7 89.8309 6.21266  -2
 -21   2   7 89.8309 6.21266   1
  17   2   7 87.6995 6.67871  -2
 -20   2   7 87.6995 6.67871   1
 -20   2   7 20.3041 1.48878   2
 -20   2   7 53.8989 3.03994   1
 -19   2   7 193.734 5.20432   1
  16   2   7 207.991 10.9565  -2
 -19   2   7 207.991 10.9565   1
 -19   2   7 51.2990 2.68366   2
 -18   2   7 112.369 4.12367   2
  15   2   7 455.606 13.9098  -2
 -18   2   7 455.606 13.9098   1
 -18   2   7 425.554 12.0045   1
 -17   2   7 99.3816 3.17144   2
 -17   2   7 324.903 7.79361   1
  14   2   7 434.423 13.3722  -2
 -17   2   7 434.423 13.3722   1
  13   2   7 62.0696 4.23986  -2
 -16   2   7 62.0696 4.23986   1
 -16   2   7 10.8928 1.78902   2
 -16   2   7 28.3323 2.20968   1
 -15   2   7 11.6063 1.51073   1
 -15   2   7 4.06401 1.08909   2
  12   2   7 42.6301 7.22417  -2
 -15   2   7 42.6301 7.22417   1
 -14   2   7 16.4356 1.70987   2
 -14   2   7 53.3149 1.99105   1
  11   2   7 73.6933 4.70583  -2
 -14   2   7 73.6933 4.70583   1
 -13   2   7 6.33050 1.73282   2
  10   2   7 68.1842 5.19182  -2
 -13   2   7 68.1842 5.19182   1
 -13   2   7 14.1855 1.93730   1
 -12   2   7 75.0760 2.24228   1
 -12   2   7 24.7235 2.25305   2
   9   2   7 137.301 7.34629  -2
 -12   2   7 137.301 7.34629   1
   8   2   7 113.382 6.36149  -2
 -11   2   7 113.382 6.36149   1
 -11   2   7 28.6836 3.21199   2
 -11   2   7 105.998 2.62383   1
 -10   2   7 9.83031 2.78438   2
 -10   2   7 52.8154 1.89319   1
   7   2   7 63.0425 4.72357  -2
 -10   2   7 63.0425 4.72357   1
  -9   2   7 3.06688 2.07597   2
  -9   2   7 3.31226 1.00981   1
   6   2   7 15.1240 3.27560  -2
  -9   2   7 15.1240 3.27560   1
  -8   2   7 97.7421 2.45318   1
  -8   2   7 22.1032 3.03808   2
  -7   2   7 1.61964 1.57203   1
  -7   2   7 0.92016 1.19381   2
   4   2   7 4.15568 3.05602  -2
  -7   2   7 4.15568 3.05602   1
  -6   2   7 25.6227 3.35572   1
   3   2   7 85.8847 5.12709  -2
  -6   2   7 85.8847 5.12709   1
  -5   2   7 66.3409 4.49971   1
   2   2   7 115.268 6.05174  -2
  -5   2   7 115.268 6.05174   1
  -4   2   7 176.735 8.13816   2
  -4   2   7 482.773 14.5771   1
  -3   2   7 1359.33 39.6408   1
   0   2   7 1840.49 72.4516  -2
  -3   2   7 1840.49 72.4516   1
  -2   2   7 239.533 7.74364   1
  -1   2   7 671.729 27.1152  -2
  -2   2   7 671.729 27.1152   1
  -2   2   7 67.5909 3.02828   2
  -2   2   7 1984.91 78.2501  -2
  -1   2   7 1984.91 78.2501   1
  -1   2   7 1890.38 54.7032   1
  -1   2   7 522.505 15.7330   2
   0   2   7 690.283 30.2742   2
   0   2   7 2518.28 98.9422   1
   1   2   7 827.304 33.2757   1
   1   2   7 211.259 6.88621   2
  -5   2   7 238.067 10.7514  -2
   2   2   7 238.067 10.7514   1
   2   2   7 54.3879 3.97042   2
   3   2   7 247.901 10.9028   1
   3   2   7 63.6850 4.61895   2
   4   2   7 13.0791 1.85281   1
   4   2   7 3.75315 1.08782   2
   5   2   7 22.3023 1.29365   2
  -8   2   7 110.045 3.47703  -2
   5   2   7 110.045 3.47703   1
   5   2   7 84.6301 5.03327   1
  -9   2   7 47.7090 2.69286  -2
   6   2   7 47.7090 2.69286   1
   6   2   7 11.2321 1.10504   2
   6   2   7 46.3314 3.91923   1
   7   2   7 9.73778 1.16125   2
 -10   2   7 46.6456 2.69147  -2
   7   2   7 46.6456 2.69147   1
   7   2   7 34.0526 3.59347   1
   8   2   7 1.14801 0.87285   2
 -11   2   7 33.1351 2.46856  -2
   8   2   7 33.1351 2.46856   1
   8   2   7 3.53948 1.94407   1
   9   2   7 65.8283 2.04698   2
 -12   2   7 291.127 7.64944  -2
   9   2   7 291.127 7.64944   1
   9   2   7 267.650 8.20731   1
 -13   2   7 264.707 6.20971  -2
  10   2   7 264.707 6.20971   1
  10   2   7 60.9213 2.03588   2
  10   2   7 258.399 7.83488   1
  11   2   7 8.07530 1.20266   2
 -14   2   7 50.1635 3.30592  -2
  11   2   7 50.1635 3.30592   1
  11   2   7 35.1761 2.23904   1
  12   2   7 12.0945 1.57237   2
 -15   2   7 36.9153 3.98059  -2
  12   2   7 36.9153 3.98059   1
  12   2   7 27.7355 1.90966   1
  13   2   7 156.514 5.42347   1
  13   2   7 41.9617 2.33490   2
 -16   2   7 172.214 4.73371  -2
  13   2   7 172.214 4.73371   1
  14   2   7 134.846 3.96941   2
  14   2   7 428.204 9.93784   1
 -17   2   7 532.347 15.5500  -2
  14   2   7 532.347 15.5500   1
  15   2   7 270.924 8.17013   1
  15   2   7 71.8045 3.32531   2
 -18   2   7 385.944 9.52409  -2
  15   2   7 385.944 9.52409   1
  16   2   7 6.86721 1.73435   2
 -19   2   7 53.9955 3.25998  -2
  16   2   7 53.9955 3.25998   1
  16   2   7 4.94809 1.52340   1
  17   2   7 41.7927 2.71712   2
  17   2   7 169.511 3.99936   1
 -20   2   7 201.489 10.1704  -2
  17   2   7 201.489 10.1704   1
  18   2   7 190.672 4.81783   1
  18   2   7 50.0907 2.78357   2
 -21   2   7 212.066 10.2384  -2
  18   2   7 212.066 10.2384   1
  19   2   7 128.881 3.47839   1
  19   2   7 32.9452 2.37980   2
 -22   2   7 134.354 7.33756  -2
  19   2   7 134.354 7.33756   1
  20   2   7 18.1784 1.77134   2
  20   2   7 53.6011 1.90987   1
 -23   2   7 109.332 6.03609  -2
  20   2   7 109.332 6.03609   1
  21   2   7 0.12394 0.82383   2
  21   2   7 2.15917 0.91022   1
  22   2   7 24.3197 2.01416   2
  22   2   7 101.857 2.72729   1
 -23   3   7 2.65426 1.30779   1
 -23   3   7 1.99167 0.75280   2
 -22   3   7 2.35927 0.73449   2
 -22   3   7 16.8080 1.96132   1
 -21   3   7 32.4507 1.94543   1
 -21   3   7 12.7149 1.62846   2
 -20   3   7 33.4073 1.48492   1
 -20   3   7 9.85173 1.29631   2
 -19   3   7 18.4165 1.51668   1
 -19   3   7 5.97356 1.24983   2
 -18   3   7 194.650 4.41428   1
 -18   3   7 49.6871 1.97347   2
 -17   3   7 2.56994 0.97943   1
 -17   3   7 1.48235 1.24177   2
 -16   3   7 97.5258 3.84959   1
  13   3   7 99.6021 4.59328  -2
 -16   3   7 99.6021 4.59328   1
 -16   3   7 25.1322 2.26392   2
 -15   3   7 2.99072 1.47582   2
 -15   3   7 7.14545 1.27786   1
  12   3   7 17.9087 4.35079  -2
 -15   3   7 17.9087 4.35079   1
 -14   3   7 18.4263 2.31888   2
 -14   3   7 56.2196 1.89748   1
 -13   3   7 288.936 7.13678   1
  10   3   7 325.783 10.1641  -2
 -13   3   7 325.783 10.1641   1
 -13   3   7 71.2755 4.48942   2
 -12   3   7 22.7887 2.22864   2
 -12   3   7 85.7259 2.36752   1
   9   3   7 75.6333 5.60473  -2
 -12   3   7 75.6333 5.60473   1
 -11   3   7 63.9623 2.02534   1
 -11   3   7 16.4094 2.08600   2
   8   3   7 78.4501 6.06120  -2
 -11   3   7 78.4501 6.06120   1
 -10   3   7 0.73258 1.00531   1
   7   3   7 -0.6128 2.85514  -2
 -10   3   7 -0.6128 2.85514   1
 -10   3   7 0.92767 1.31723   2
  -9   3   7 4.33961 1.39216   2
   6   3   7 36.4757 3.25950  -2
  -9   3   7 36.4757 3.25950   1
  -9   3   7 10.7112 1.23584   1
  -8   3   7 6.58944 1.19988   2
  -8   3   7 21.2976 1.60728   1
   5   3   7 28.5164 3.03314  -2
  -8   3   7 28.5164 3.03314   1
   4   3   7 71.5642 3.87091  -2
  -7   3   7 71.5642 3.87091   1
  -7   3   7 34.3906 2.06546   1
  -6   3   7 6.55262 1.53264   2
   3   3   7 31.0417 3.31203  -2
  -6   3   7 31.0417 3.31203   1
  -6   3   7 21.4698 1.80297   1
   2   3   7 288.484 9.08056  -2
  -5   3   7 288.484 9.08056   1
  -5   3   7 240.824 6.04269   1
  -5   3   7 67.8131 2.53260   2
  -4   3   7 70.7957 2.30753   1
   1   3   7 62.2120 5.74982  -2
  -4   3   7 62.2120 5.74982   1
  -4   3   7 13.8161 1.99208   2
  -3   3   7 146.048 3.77596   1
   0   3   7 184.285 9.43420  -2
  -3   3   7 184.285 9.43420   1
  -3   3   7 39.7141 2.55904   2
  -1   3   7 112.640 7.42070  -2
  -2   3   7 112.640 7.42070   1
  -2   3   7 105.275 2.68209   1
  -2   3   7 24.9482 2.23556   2
  -2   3   7 34.2088 2.48599  -2
  -1   3   7 34.2088 2.48599   1
  -1   3   7 3.32975 1.34023   2
  -1   3   7 11.8682 1.91929   1
   0   3   7 49.6529 2.78422   1
   0   3   7 14.2045 1.39863   2
  -3   3   7 87.9157 3.10082  -2
   0   3   7 87.9157 3.10082   1
  -4   3   7 38.3315 2.50080  -2
   1   3   7 38.3315 2.50080   1
   1   3   7 6.74335 1.02443   2
   1   3   7 26.4478 2.49782   1
  -5   3   7 236.497 7.72411  -2
   2   3   7 236.497 7.72411   1
   2   3   7 164.207 4.51354   1
   2   3   7 43.0026 2.04861   2
  -6   3   7 6.62294 2.31932  -2
   3   3   7 6.62294 2.31932   1
   3   3   7 6.31531 1.68442   1
   3   3   7 1.98457 1.04324   2
   4   3   7 37.7313 1.98612   2
  -7   3   7 164.716 4.26571  -2
   4   3   7 164.716 4.26571   1
   4   3   7 152.743 7.67292   1
   5   3   7 23.8067 1.85739   1
   5   3   7 8.85143 1.15565   2
  -8   3   7 29.5371 3.81361  -2
   5   3   7 29.5371 3.81361   1
  -9   3   7 95.6722 3.92683  -2
   6   3   7 95.6722 3.92683   1
   6   3   7 20.5880 1.50931   2
   6   3   7 94.5026 3.83917   1
 -10   3   7 9.42484 2.73390  -2
   7   3   7 9.42484 2.73390   1
   7   3   7 2.61413 0.96989   2
   7   3   7 5.20462 1.52706   1
   8   3   7 6.31055 1.08014   2
   8   3   7 15.4840 2.32132   1
 -11   3   7 27.0059 2.88350  -2
   8   3   7 27.0059 2.88350   1
   9   3   7 2.27248 1.22003   2
   9   3   7 4.58867 1.59338   1
 -12   3   7 17.7017 3.50293  -2
   9   3   7 17.7017 3.50293   1
 -13   3   7 214.405 5.29531  -2
  10   3   7 214.405 5.29531   1
  10   3   7 128.796 6.73703   1
  10   3   7 34.0291 2.56163   2
 -14   3   7 159.722 4.45232  -2
  11   3   7 159.722 4.45232   1
  11   3   7 37.4865 1.77742   2
  11   3   7 148.219 5.27546   1
  12   3   7 16.8550 1.73561   2
  12   3   7 68.2039 3.42183   1
 -15   3   7 70.0590 3.16939  -2
  12   3   7 70.0590 3.16939   1
 -16   3   7 81.7421 3.32414  -2
  13   3   7 81.7421 3.32414   1
  13   3   7 66.7165 3.39330   1
  13   3   7 17.7946 1.95359   2
  14   3   7 9.35532 1.23036   2
  14   3   7 45.5715 2.76414   1
 -17   3   7 39.0049 2.78814  -2
  14   3   7 39.0049 2.78814   1
  15   3   7 6.72475 1.21681   2
  15   3   7 16.9953 1.89540   1
 -18   3   7 72.4268 5.56832  -2
  15   3   7 72.4268 5.56832   1
  16   3   7 15.2643 1.32199   2
  16   3   7 55.6535 2.73510   1
 -19   3   7 63.5896 3.79447  -2
  16   3   7 63.5896 3.79447   1
  17   3   7 9.33560 1.22191   1
  17   3   7 3.66829 0.81534   2
 -20   3   7 19.9916 3.80846  -2
  17   3   7 19.9916 3.80846   1
  18   3   7 48.4570 2.00088   1
 -21   3   7 53.1471 4.48194  -2
  18   3   7 53.1471 4.48194   1
  18   3   7 12.1826 1.83876   2
  19   3   7 0.60757 1.00725   2
 -22   3   7 5.44654 3.20930  -2
  19   3   7 5.44654 3.20930   1
  19   3   7 2.08967 0.81268   1
  20   3   7 6.19518 1.09652   1
 -23   3   7 15.7479 3.26713  -2
  20   3   7 15.7479 3.26713   1
  20   3   7 -0.1018 0.99685   2
 -21   4   7 3.84865 0.79577   2
 -21   4   7 17.2867 2.08673   1
 -20   4   7 0.54743 0.83074   1
 -20   4   7 1.77070 0.66104   2
 -19   4   7 3.51463 0.67334   1
 -19   4   7 0.04247 0.93367   2
 -18   4   7 16.0037 1.24401   1
 -18   4   7 4.15810 1.24888   2
 -17   4   7 9.86290 1.16494   2
 -17   4   7 30.7507 1.44579   1
 -16   4   7 47.4224 2.54604   2
 -16   4   7 195.743 4.36599   1
 -15   4   7 14.5757 1.82774   1
  12   4   7 24.3145 3.01399  -2
 -15   4   7 24.3145 3.01399   1
 -15   4   7 4.94085 1.11575   2
 -14   4   7 12.5146 1.59576   1
  11   4   7 10.0916 3.00984  -2
 -14   4   7 10.0916 3.00984   1
 -14   4   7 2.45342 1.24470   2
  10   4   7 63.0966 3.81353  -2
 -13   4   7 63.0966 3.81353   1
 -13   4   7 54.8757 2.36066   1
 -13   4   7 13.5878 1.95912   2
   9   4   7 59.7132 3.89702  -2
 -12   4   7 59.7132 3.89702   1
 -12   4   7 60.2792 2.47185   1
 -11   4   7 21.6788 1.63637   1
   8   4   7 22.9167 4.18945  -2
 -11   4   7 22.9167 4.18945   1
 -10   4   7 4.25710 1.38398   1
   7   4   7 5.55684 2.24321  -2
 -10   4   7 5.55684 2.24321   1
  -9   4   7 0.45977 1.02101   1
   6   4   7 3.40971 2.76904  -2
  -9   4   7 3.40971 2.76904   1
  -9   4   7 1.34002 1.15246   2
  -8   4   7 6.82765 1.31836   1
   5   4   7 7.32665 2.39283  -2
  -8   4   7 7.32665 2.39283   1
  -8   4   7 1.74402 1.55990   2
   4   4   7 58.7368 3.61138  -2
  -7   4   7 58.7368 3.61138   1
  -7   4   7 46.7274 2.45992   1
   3   4   7 15.4984 2.59477  -2
  -6   4   7 15.4984 2.59477   1
  -6   4   7 6.69416 1.72272   1
  -6   4   7 8.60813 2.55518   2
   2   4   7 58.4240 4.20437  -2
  -5   4   7 58.4240 4.20437   1
  -5   4   7 18.7305 2.32828   1
  -4   4   7 19.2074 2.76587   1
   1   4   7 36.5063 2.63812  -2
  -4   4   7 36.5063 2.63812   1
  -3   4   7 23.9497 2.34845   1
   0   4   7 40.9919 4.54094  -2
  -3   4   7 40.9919 4.54094   1
  -2   4   7 92.2551 3.27177   1
  -1   4   7 77.6963 5.74776  -2
  -2   4   7 77.6963 5.74776   1
  -2   4   7 105.556 3.40891  -2
  -1   4   7 105.556 3.40891   1
  -3   4   7 50.0115 2.54513  -2
   0   4   7 50.0115 2.54513   1
   0   4   7 19.9403 2.19065   2
   0   4   7 44.5635 3.80025   1
   1   4   7 17.4972 2.45137   2
  -4   4   7 89.9582 3.28472  -2
   1   4   7 89.9582 3.28472   1
   1   4   7 75.5056 4.73908   1
   2   4   7 43.6140 2.07634   2
  -5   4   7 201.921 4.46707  -2
   2   4   7 201.921 4.46707   1
   3   4   7 17.5889 3.16316   1
   3   4   7 5.20966 1.44209   2
  -6   4   7 24.3805 2.45493  -2
   3   4   7 24.3805 2.45493   1
   4   4   7 18.4560 1.76878   2
  -7   4   7 84.4150 2.78057  -2
   4   4   7 84.4150 2.78057   1
   5   4   7 7.89470 2.20756   1
   5   4   7 2.57747 1.10919   2
  -8   4   7 12.9956 2.26460  -2
   5   4   7 12.9956 2.26460   1
   6   4   7 0.13465 0.96325   2
  -9   4   7 4.57999 2.49882  -2
   6   4   7 4.57999 2.49882   1
   6   4   7 9.32928 1.53262   1
 -10   4   7 5.51683 1.90504  -2
   7   4   7 5.51683 1.90504   1
   7   4   7 -0.1409 1.25719   2
 -11   4   7 5.82541 1.89035  -2
   8   4   7 5.82541 1.89035   1
   8   4   7 1.25512 0.90065   2
 -12   4   7 13.8746 1.95908  -2
   9   4   7 13.8746 1.95908   1
   9   4   7 1.13776 1.31934   2
  10   4   7 2.09636 1.43289   1
 -13   4   7 16.0757 2.75013  -2
  10   4   7 16.0757 2.75013   1
  10   4   7 2.37027 1.79255   2
 -14   4   7 17.0810 2.79784  -2
  11   4   7 17.0810 2.79784   1
  11   4   7 9.36037 1.72462   1
  11   4   7 2.18914 0.93849   2
  12   4   7 1.61870 1.04855   2
  12   4   7 7.99388 1.34447   1
 -15   4   7 12.9018 2.98589  -2
  12   4   7 12.9018 2.98589   1
  13   4   7 4.65725 1.38492   2
  13   4   7 12.7909 2.85910   1
 -16   4   7 63.5349 2.92424  -2
  13   4   7 63.5349 2.92424   1
  14   4   7 25.8274 1.58123   1
  14   4   7 5.04333 0.86922   2
 -17   4   7 32.0513 3.94327  -2
  14   4   7 32.0513 3.94327   1
  15   4   7 33.8096 2.05856   1
  15   4   7 6.64344 0.85436   2
 -18   4   7 43.6649 2.95902  -2
  15   4   7 43.6649 2.95902   1
  16   4   7 3.80624 0.64444   2
  16   4   7 12.1177 1.64367   1
 -19   4   7 14.8182 3.03962  -2
  16   4   7 14.8182 3.03962   1
  17   4   7 0.88262 0.73343   2
  17   4   7 7.25568 0.95829   1
  18   4   7 1.33854 1.26119   2
  18   4   7 7.40355 1.67690   1
 -18   5   7 8.73311 1.17528   1
 -18   5   7 1.27364 0.58081   2
 -17   5   7 19.9302 1.01650   1
 -17   5   7 6.43298 1.49904   2
 -16   5   7 25.1126 1.21381   1
 -16   5   7 6.75459 1.33143   2
  13   5   7 43.0832 5.75409  -2
 -16   5   7 43.0832 5.75409   1
  12   5   7 29.4038 2.74554  -2
 -15   5   7 29.4038 2.74554   1
 -15   5   7 26.4511 1.63013   1
 -15   5   7 4.41410 2.18858   2
 -14   5   7 3.08898 1.30347   1
  11   5   7 17.5259 1.73537  -2
 -14   5   7 17.5259 1.73537   1
 -13   5   7 14.1072 1.71650   2
 -13   5   7 70.0460 3.07876   1
  10   5   7 70.4774 3.11576  -2
 -13   5   7 70.4774 3.11576   1
 -12   5   7 44.8736 3.26483   1
 -12   5   7 13.1197 2.65131   2
   9   5   7 54.6584 2.58555  -2
 -12   5   7 54.6584 2.58555   1
 -11   5   7 3.00423 1.84051   2
   8   5   7 14.2354 2.75617  -2
 -11   5   7 14.2354 2.75617   1
 -11   5   7 1.27516 1.03784   1
   7   5   7 5.18652 2.22606  -2
 -10   5   7 5.18652 2.22606   1
 -10   5   7 1.25441 1.66805   1
   6   5   7 46.5229 2.27978  -2
  -9   5   7 46.5229 2.27978   1
  -9   5   7 13.2767 2.82228   2
  -9   5   7 52.5610 4.05579   1
   5   5   7 22.6402 1.85040  -2
  -8   5   7 22.6402 1.85040   1
  -8   5   7 1.06117 1.87352   2
   4   5   7 141.264 3.71262  -2
  -7   5   7 141.264 3.71262   1
  -6   5   7 -1.4195 2.83206   1
   3   5   7 3.26737 1.81158  -2
  -6   5   7 3.26737 1.81158   1
   2   5   7 20.6488 1.96161  -2
  -5   5   7 20.6488 1.96161   1
  -5   5   7 2.09718 2.20047   2
   1   5   7 16.8245 2.58395  -2
  -4   5   7 16.8245 2.58395   1
  -4   5   7 4.66473 2.37463   2
  -4   5   7 26.1188 3.52514   1
   0   5   7 108.806 3.75275  -2
  -3   5   7 108.806 3.75275   1
  -3   5   7 25.2117 3.87860   2
  -1   5   7 4.23413 2.02106  -2
  -2   5   7 4.23413 2.02106   1
  -2   5   7 3.96074 2.18189  -2
  -1   5   7 3.96074 2.18189   1
  -3   5   7 32.0421 2.55378  -2
   0   5   7 32.0421 2.55378   1
   0   5   7 6.99665 2.86344   1
  -4   5   7 6.73425 2.26480  -2
   1   5   7 6.73425 2.26480   1
   1   5   7 3.05224 2.63527   1
   1   5   7 0.85579 1.73133   2
  -5   5   7 94.7269 3.62539  -2
   2   5   7 94.7269 3.62539   1
   2   5   7 90.7588 5.72062   1
  -6   5   7 3.22946 2.37861  -2
   3   5   7 3.22946 2.37861   1
   3   5   7 -0.1297 3.02116   2
  -7   5   7 32.0914 2.56595  -2
   4   5   7 32.0914 2.56595   1
  -8   5   7 98.3950 3.27425  -2
   5   5   7 98.3950 3.27425   1
   5   5   7 92.4890 5.27135   1
  -9   5   7 17.9099 2.08003  -2
   6   5   7 17.9099 2.08003   1
   6   5   7 5.41664 2.18191   1
 -10   5   7 2.28596 1.74879  -2
   7   5   7 2.28596 1.74879   1
 -11   5   7 60.9227 2.91560  -2
   8   5   7 60.9227 2.91560   1
   8   5   7 14.2188 1.36437   2
   8   5   7 61.6101 4.18770   1
 -12   5   7 48.8261 2.62226  -2
   9   5   7 48.8261 2.62226   1
   9   5   7 41.1908 3.70117   1
  10   5   7 4.55535 1.44757   1
 -13   5   7 17.7392 2.99275  -2
  10   5   7 17.7392 2.99275   1
  10   5   7 1.37092 2.29547   2
  11   5   7 14.0574 2.00529   2
 -14   5   7 52.6118 2.89253  -2
  11   5   7 52.6118 2.89253   1
 -15   5   7 11.3389 2.01326  -2
  12   5   7 11.3389 2.01326   1
  12   5   7 1.40372 0.75084   2
  12   5   7 0.81242 2.10967   1
  13   5   7 0.78186 0.56448   2
  13   5   7 1.13887 1.10563   1
 -16   5   7 12.9459 2.66656  -2
  13   5   7 12.9459 2.66656   1
  14   5   7 1.25336 0.54526   2
  14   5   7 7.11787 1.78183   1
 -17   5   7 7.18419 2.49970  -2
  14   5   7 7.18419 2.49970   1
 -12   6   7 -0.6052 1.17814   2
 -12   6   7 3.06695 0.81247   1
   9   6   7 6.38997 2.52998  -2
 -12   6   7 6.38997 2.52998   1
   8   6   7 40.6689 1.75743  -2
 -11   6   7 40.6689 1.75743   1
   7   6   7 17.0456 1.49693  -2
 -10   6   7 17.0456 1.49693   1
 -10   6   7 3.80712 1.39138   2
   6   6   7 51.5460 2.04680  -2
  -9   6   7 51.5460 2.04680   1
  -9   6   7 7.97469 2.33289   2
   5   6   7 1.06619 1.43552  -2
  -8   6   7 1.06619 1.43552   1
   4   6   7 16.4679 1.89057  -2
  -7   6   7 16.4679 1.89057   1
   3   6   7 27.8016 1.65066  -2
  -6   6   7 27.8016 1.65066   1
  -5   6   7 12.3067 1.85599   2
   2   6   7 67.3295 2.56843  -2
  -5   6   7 67.3295 2.56843   1
   1   6   7 42.4475 2.21608  -2
  -4   6   7 42.4475 2.21608   1
  -4   6   7 9.27697 2.52286   2
  -3   6   7 0.98111 1.63101   1
   0   6   7 6.32308 2.16635  -2
  -3   6   7 6.32308 2.16635   1
  -1   6   7 6.71033 1.87404  -2
  -2   6   7 6.71033 1.87404   1
  -2   6   7 3.76162 1.87708  -2
  -1   6   7 3.76162 1.87708   1
  -3   6   7 3.85721 1.94468  -2
   0   6   7 3.85721 1.94468   1
   0   6   7 0.34738 1.52092   2
  -4   6   7 35.8603 2.71463  -2
   1   6   7 35.8603 2.71463   1
   1   6   7 23.1728 2.95794   1
   2   6   7 3.00891 1.34466   1
  -5   6   7 31.2605 3.54127  -2
   2   6   7 31.2605 3.54127   1
  -6   6   7 4.64690 3.24213  -2
   3   6   7 4.64690 3.24213   1
   4   6   7 51.0421 4.32212   1
  -7   6   7 48.9930 4.12228  -2
   4   6   7 48.9930 4.12228   1
  -8   6   7 6.34261 3.16764  -2
   5   6   7 6.34261 3.16764   1
   5   6   7 4.02067 2.00989   1
  -9   6   7 16.2564 3.08796  -2
   6   6   7 16.2564 3.08796   1
   6   6   7 3.55259 1.77944   1
 -10   6   7 2.83059 2.92526  -2
   7   6   7 2.83059 2.92526   1
   7   6   7 1.99543 1.63598   1
 -11   6   7 22.7457 3.18866  -2
   8   6   7 22.7457 3.18866   1
   9   6   7 2.12038 0.84004   2
   9   6   7 1.22107 1.51893   1
 -26   0   8 7.05001 1.93952   1
 -26   0   8 0.85278 0.98170   2
 -25   0   8 26.0273 1.62553   2
 -25   0   8 109.331 5.37740   1
 -24   0   8 -0.0599 0.92035   2
 -24   0   8 1.92707 1.47137   1
 -23   0   8 51.2518 2.35514   2
 -23   0   8 187.851 8.74249   1
 -22   0   8 3.28954 1.15482   2
 -22   0   8 16.7412 3.01855   1
 -21   0   8 50.2716 3.32685   1
 -21   0   8 14.7690 1.86439   2
 -20   0   8 51.4759 3.20309   1
 -20   0   8 14.4858 2.74397   2
 -19   0   8 46.4422 3.16238   1
 -19   0   8 16.2102 2.76135   2
 -18   0   8 250.002 8.16192   1
 -18   0   8 66.5356 4.30785   2
 -17   0   8 0.64418 1.64620   2
 -17   0   8 0.56649 1.49544   1
 -16   0   8 11.4783 1.98256   1
 -16   0   8 2.57429 1.84507   2
 -15   0   8 158.648 7.67241   1
 -15   0   8 42.8765 3.39120   2
 -14   0   8 0.28192 1.75746   2
 -14   0   8 13.8033 2.61610   1
 -13   0   8 5.43171 2.04255   2
 -13   0   8 25.3359 2.72985   1
 -12   0   8 21.0985 3.03848   2
 -12   0   8 79.9495 4.54915   1
 -11   0   8 44.5906 2.94864   2
 -11   0   8 168.215 7.71509   1
 -10   0   8 67.4619 2.95125   1
 -10   0   8 11.7268 3.09893   2
  -9   0   8 52.5253 2.38942   1
  -9   0   8 13.2785 2.09607   2
  -8   0   8 22.9287 1.82848   2
  -8   0   8 91.5637 3.31226   1
  -7   0   8 285.770 7.20815   1
  -7   0   8 75.9785 2.97595   2
  -6   0   8 333.516 8.29777   1
  -6   0   8 79.6908 2.93459   2
  -5   0   8 117.320 3.22236   1
  -5   0   8 30.0125 2.16335   2
  -4   0   8 128.176 4.28721   2
  -4   0   8 521.969 12.7034   1
  -3   0   8 66.6516 2.00688   1
  -3   0   8 17.2180 0.94920   2
  -2   0   8 25.6901 1.11302   2
  -2   0   8 103.140 2.84492   1
  -1   0   8 1.90828 0.45850   2
  -1   0   8 7.10120 0.82796   1
   0   0   8 74.6990 2.82242   1
   0   0   8 18.9769 0.97507   2
   1   0   8 41.8886 1.49868   2
   1   0   8 160.502 5.22375   1
   2   0   8 41.5068 1.93182   1
   2   0   8 10.1464 1.05275   2
   3   0   8 98.2056 3.66314   1
   3   0   8 25.7737 1.32480   2
   4   0   8 54.6751 2.36814   2
   4   0   8 220.033 7.28573   1
   5   0   8 15.2468 2.14073   1
   5   0   8 5.08382 1.21693   2
   6   0   8 4.81236 1.28170   2
   6   0   8 5.92384 2.22073   1
   7   0   8 1141.80 31.9539   1
 -11   0   8 1251.47 46.6348  -2
   7   0   8 1251.47 46.6348   1
   7   0   8 327.508 13.9574   2
   8   0   8 5.42742 2.02305   1
   8   0   8 1.08800 1.74336   2
 -12   0   8 9.72236 4.45298  -2
   8   0   8 9.72236 4.45298   1
 -13   0   8 106.003 6.73136  -2
   9   0   8 106.003 6.73136   1
   9   0   8 121.324 6.23238   1
   9   0   8 36.8672 3.20855   2
  10   0   8 215.694 9.46295   1
 -14   0   8 215.564 10.1260  -2
  10   0   8 215.564 10.1260   1
  10   0   8 58.4166 4.07240   2
 -15   0   8 108.627 6.77592  -2
  11   0   8 108.627 6.77592   1
  11   0   8 21.4126 2.89182   2
  11   0   8 65.3476 4.49661   1
  12   0   8 11.7357 1.89160   2
 -16   0   8 32.4395 5.06407  -2
  12   0   8 32.4395 5.06407   1
  12   0   8 40.3484 3.70671   1
  13   0   8 19.9332 2.32989   2
  13   0   8 85.0096 5.12938   1
 -17   0   8 95.0046 6.41262  -2
  13   0   8 95.0046 6.41262   1
  14   0   8 181.715 6.23622   2
  14   0   8 665.389 25.4614   1
 -18   0   8 791.340 30.3500  -2
  14   0   8 791.340 30.3500   1
  15   0   8 66.5480 3.38069   2
  15   0   8 274.932 11.7210   1
 -19   0   8 280.234 12.3393  -2
  15   0   8 280.234 12.3393   1
  16   0   8 84.4106 3.82296   2
 -20   0   8 398.385 16.3588  -2
  16   0   8 398.385 16.3588   1
  16   0   8 350.849 14.3525   1
  17   0   8 0.88024 1.29147   2
  17   0   8 4.71915 1.38930   1
  18   0   8 12.4208 1.83982   1
  18   0   8 2.21921 1.42384   2
  19   0   8 250.841 7.38631   1
  19   0   8 65.6501 4.08239   2
  20   0   8 5.69895 1.15943   1
  20   0   8 2.56045 1.27935   2
  21   0   8 0.33190 1.06834   2
  21   0   8 5.29564 1.08276   1
  22   0   8 0.59664 1.00496   1
  22   0   8 -0.9104 0.99201   2
 -26   1   8 4.83186 0.71451   2
 -26   1   8 17.1312 1.55199   1
 -25   1   8 7.18470 0.91372   2
 -25   1   8 22.9302 1.76346   1
 -24   1   8 19.5676 1.14634   2
 -24   1   8 84.7747 3.33641   1
 -23   1   8 9.79303 1.06973   2
 -23   1   8 37.6227 2.29376   1
 -22   1   8 25.7300 1.91613   1
 -22   1   8 6.28897 1.02233   2
  17   1   8 9.23288 5.03756  -2
 -21   1   8 9.23288 5.03756   1
 -21   1   8 0.61056 1.02606   2
 -21   1   8 3.72722 1.53073   1
 -20   1   8 78.7921 3.08015   1
 -20   1   8 20.7802 1.91341   2
 -19   1   8 5.48380 1.00491   2
 -19   1   8 25.5458 2.27652   1
  15   1   8 39.9484 6.14048  -2
 -19   1   8 39.9484 6.14048   1
 -18   1   8 3.09858 0.97429   2
 -18   1   8 13.8948 1.78114   1
 -17   1   8 17.0169 1.87475   1
 -17   1   8 7.99561 1.32146   2
 -16   1   8 131.675 3.55099   1
 -16   1   8 36.3484 1.85558   2
 -15   1   8 19.8933 1.75712   1
 -15   1   8 8.69264 1.32794   2
  11   1   8 56.1667 7.42604  -2
 -15   1   8 56.1667 7.42604   1
 -14   1   8 94.7449 2.86844   1
 -14   1   8 21.7245 1.77369   2
  10   1   8 80.8729 8.49094  -2
 -14   1   8 80.8729 8.49094   1
 -13   1   8 91.3157 2.51817   1
 -13   1   8 20.2841 1.65311   2
   9   1   8 112.802 9.45705  -2
 -13   1   8 112.802 9.45705   1
 -12   1   8 136.046 2.98085   1
 -12   1   8 33.4125 1.97116   2
 -11   1   8 27.8607 2.40179   2
 -11   1   8 124.399 3.26117   1
 -10   1   8 9.72461 1.38116   1
 -10   1   8 3.05521 1.59711   2
  -9   1   8 10.8327 1.27071   2
  -9   1   8 21.8965 1.52455   1
  -8   1   8 111.922 3.32095   1
  -8   1   8 32.4395 2.14682   2
  -7   1   8 56.4663 2.50459   2
  -7   1   8 199.823 5.46544   1
   3   1   8 241.275 10.6855  -2
  -7   1   8 241.275 10.6855   1
  -6   1   8 25.0529 1.60669   2
   2   1   8 246.728 10.9108  -2
  -6   1   8 246.728 10.9108   1
  -6   1   8 84.5638 2.81404   1
  -5   1   8 21.6995 2.69624   2
  -5   1   8 48.1890 1.98197   1
   1   1   8 186.498 8.72756  -2
  -5   1   8 186.498 8.72756   1
  -4   1   8 57.8157 3.82375   2
  -4   1   8 210.391 5.56255   1
  -3   1   8 277.224 8.95965   1
  -3   1   8 73.0334 3.07544   2
  -1   1   8 309.865 13.2593  -2
  -3   1   8 309.865 13.2593   1
  -2   1   8 77.5102 3.11659   2
  -2   1   8 277.397 8.95382   1
  -2   1   8 368.767 15.5395  -2
  -2   1   8 368.767 15.5395   1
  -1   1   8 95.4587 2.97855   1
  -1   1   8 25.4119 1.77930   2
   0   1   8 24.8132 1.49690   2
   0   1   8 91.0229 3.59551   1
   1   1   8 114.619 3.34662   2
   1   1   8 453.781 20.1257   1
   2   1   8 618.615 18.9262   1
   2   1   8 155.374 4.33690   2
   3   1   8 14.6602 1.46853   2
   3   1   8 75.3879 3.03846   1
   4   1   8 39.1883 2.33293   1
   4   1   8 10.4086 1.17757   2
   5   1   8 4.26597 1.00905   2
  -9   1   8 34.3300 4.71620  -2
   5   1   8 34.3300 4.71620   1
   5   1   8 20.4156 1.93942   1
   6   1   8 56.6822 3.17145   1
 -10   1   8 61.7637 3.38151  -2
   6   1   8 61.7637 3.38151   1
   6   1   8 14.8155 1.49099   2
   7   1   8 2.33049 1.08545   2
 -11   1   8 31.2209 2.99143  -2
   7   1   8 31.2209 2.99143   1
   7   1   8 -0.1345 1.62450   1
 -12   1   8 65.7407 3.92766  -2
   8   1   8 65.7407 3.92766   1
   8   1   8 13.7361 1.23445   2
   8   1   8 26.7698 2.58232   1
 -13   1   8 24.9826 4.28409  -2
   9   1   8 24.9826 4.28409   1
   9   1   8 5.92976 1.13510   2
   9   1   8 3.74233 1.20316   1
  10   1   8 4.50785 1.11664   2
 -14   1   8 43.1276 4.22378  -2
  10   1   8 43.1276 4.22378   1
  10   1   8 7.12233 1.33645   1
 -15   1   8 45.2922 4.08121  -2
  11   1   8 45.2922 4.08121   1
  11   1   8 16.9698 1.71833   2
  11   1   8 50.1017 2.53462   1
  12   1   8 7.80282 1.31001   1
  12   1   8 2.41916 1.15081   2
 -16   1   8 45.3479 5.21297  -2
  12   1   8 45.3479 5.21297   1
  13   1   8 16.4809 1.66963   2
  13   1   8 62.7329 2.78944   1
 -17   1   8 67.5113 4.38418  -2
  13   1   8 67.5113 4.38418   1
  14   1   8 24.4291 2.04192   1
  14   1   8 9.50416 1.35442   2
 -18   1   8 32.9299 3.98962  -2
  14   1   8 32.9299 3.98962   1
  15   1   8 66.2593 2.31612   1
  15   1   8 17.1879 2.08917   2
 -19   1   8 90.1217 7.55496  -2
  15   1   8 90.1217 7.55496   1
  16   1   8 93.9164 3.20794   2
  16   1   8 396.957 9.21791   1
 -20   1   8 420.100 12.5560  -2
  16   1   8 420.100 12.5560   1
  17   1   8 2.99027 1.37359   2
 -21   1   8 10.2269 2.60773  -2
  17   1   8 10.2269 2.60773   1
  17   1   8 11.0935 1.82498   1
  18   1   8 14.6022 1.60241   2
 -22   1   8 57.2282 3.80723  -2
  18   1   8 57.2282 3.80723   1
  18   1   8 46.5683 2.03326   1
  19   1   8 12.0494 1.45829   2
  19   1   8 59.5693 1.89826   1
 -23   1   8 75.9025 6.20485  -2
  19   1   8 75.9025 6.20485   1
  20   1   8 2.26843 0.67490   1
  20   1   8 -0.4033 1.12018   2
  21   1   8 2.38563 0.79985   2
  21   1   8 12.6132 1.13220   1
  22   1   8 5.95015 0.87631   1
  22   1   8 0.51936 0.79890   2
 -25   2   8 7.06158 0.88480   2
 -25   2   8 31.0043 2.42879   1
 -24   2   8 1.07365 0.57889   2
 -24   2   8 6.46240 1.17556   1
 -23   2   8 2.96283 0.65976   2
 -23   2   8 12.4222 1.45870   1
 -22   2   8 35.8971 2.45745   1
 -22   2   8 9.55937 1.07145   2
  18   2   8 51.6265 5.69726  -2
 -22   2   8 51.6265 5.69726   1
 -21   2   8 4.21665 0.99641   2
 -21   2   8 18.6829 2.23914   1
  17   2   8 26.9232 5.30432  -2
 -21   2   8 26.9232 5.30432   1
 -20   2   8 -0.2195 0.85613   2
 -20   2   8 -0.7158 1.62416   1
  16   2   8 9.23912 5.63206  -2
 -20   2   8 9.23912 5.63206   1
 -19   2   8 0.73053 0.92004   2
 -19   2   8 3.36379 1.31877   1
  15   2   8 4.22379 6.16433  -2
 -19   2   8 4.22379 6.16433   1
 -18   2   8 8.85770 1.39803   2
 -18   2   8 11.5430 1.68313   1
  14   2   8 30.0934 6.87315  -2
 -18   2   8 30.0934 6.87315   1
 -17   2   8 261.254 5.85876   1
 -17   2   8 64.6983 3.02201   2
 -16   2   8 15.3641 1.60338   1
  12   2   8 20.0896 4.45636  -2
 -16   2   8 20.0896 4.45636   1
 -16   2   8 4.62093 1.33211   2
 -15   2   8 111.048 3.14377   1
 -15   2   8 31.3573 1.81208   2
  11   2   8 148.487 8.19151  -2
 -15   2   8 148.487 8.19151   1
 -14   2   8 18.9827 1.34487   1
 -14   2   8 4.36743 1.10731   2
 -13   2   8 418.292 7.04958   1
 -13   2   8 110.522 3.46078   2
 -12   2   8 135.165 3.02897   2
 -12   2   8 496.878 8.19475   1
 -11   2   8 46.0022 1.62897   1
 -11   2   8 15.2399 1.81335   2
 -10   2   8 37.4724 2.09139   2
 -10   2   8 159.920 3.16651   1
  -9   2   8 75.2075 2.18921   1
   5   2   8 88.8997 5.71187  -2
  -9   2   8 88.8997 5.71187   1
  -9   2   8 21.6549 2.87686   2
  -8   2   8 430.579 7.14838   1
  -8   2   8 111.655 2.96784   2
  -7   2   8 3.20905 2.02966   2
  -7   2   8 12.0897 1.11187   1
  -6   2   8 32.4206 1.47825   1
  -6   2   8 13.5574 1.63722   2
  -5   2   8 12.1128 2.94271   2
  -5   2   8 8.09464 1.26142   1
  -4   2   8 27.2647 2.45030   1
  -4   2   8 2.29627 1.46103   2
  -3   2   8 107.127 4.17194   2
  -3   2   8 439.275 13.4542   1
  -2   2   8 509.391 15.4163   1
  -2   2   8 124.946 3.72320   2
  -1   2   8 19.7950 2.10697   2
  -1   2   8 50.0806 2.32181   1
   0   2   8 10.8615 2.05823   2
   0   2   8 5.98754 3.12292   1
   1   2   8 417.147 8.76889   2
   1   2   8 1764.91 45.5525   1
  -5   2   8 1952.56 77.1480  -2
   1   2   8 1952.56 77.1480   1
   2   2   8 107.535 2.56884   2
   2   2   8 473.212 8.51287   1
   3   2   8 23.8046 1.22442   2
   3   2   8 99.0264 4.14517   1
  -7   2   8 119.676 4.24337  -2
   3   2   8 119.676 4.24337   1
   4   2   8 17.4264 1.34137   2
  -8   2   8 194.862 9.46443  -2
   4   2   8 194.862 9.46443   1
   4   2   8 77.3882 2.56121   1
   5   2   8 0.66957 0.88102   2
  -9   2   8 29.9914 2.45543  -2
   5   2   8 29.9914 2.45543   1
   5   2   8 6.70321 2.33908   1
 -10   2   8 93.2157 3.81821  -2
   6   2   8 93.2157 3.81821   1
   6   2   8 47.9531 2.49953   1
   6   2   8 12.1936 1.11566   2
   7   2   8 9.26309 1.04569   2
 -11   2   8 45.0839 3.16199  -2
   7   2   8 45.0839 3.16199   1
   7   2   8 36.5461 2.25296   1
   8   2   8 116.944 2.86998   1
 -12   2   8 233.880 11.5161  -2
   8   2   8 233.880 11.5161   1
   8   2   8 32.0183 1.53137   2
 -13   2   8 102.157 4.85037  -2
   9   2   8 102.157 4.85037   1
   9   2   8 1.83094 1.07187   2
   9   2   8 3.08281 1.09588   1
  10   2   8 0.72863 1.14253   1
  10   2   8 2.19348 0.85485   2
 -14   2   8 10.0963 3.67175  -2
  10   2   8 10.0963 3.67175   1
  11   2   8 92.1028 2.83435   1
 -15   2   8 121.076 5.58665  -2
  11   2   8 121.076 5.58665   1
  11   2   8 25.4601 1.61943   2
  12   2   8 6.63455 1.26004   2
 -16   2   8 28.8011 3.19881  -2
  12   2   8 28.8011 3.19881   1
  12   2   8 21.3092 2.03916   1
  13   2   8 83.5821 3.07595   2
 -17   2   8 394.517 9.75541  -2
  13   2   8 394.517 9.75541   1
  13   2   8 326.863 8.06583   1
  14   2   8 4.46823 1.25837   2
  14   2   8 27.9910 2.07108   1
 -18   2   8 40.4361 3.98539  -2
  14   2   8 40.4361 3.98539   1
  15   2   8 17.7383 1.69410   1
  15   2   8 8.31675 1.44645   2
  16   2   8 20.2407 1.80690   2
  16   2   8 80.1651 2.52308   1
 -20   2   8 74.6971 6.11243  -2
  16   2   8 74.6971 6.11243   1
  17   2   8 23.4063 1.65041   1
 -21   2   8 8.38456 5.09476  -2
  17   2   8 8.38456 5.09476   1
  17   2   8 4.56378 1.18496   2
  18   2   8 21.6183 2.06690   2
 -22   2   8 108.915 6.49593  -2
  18   2   8 108.915 6.49593   1
  18   2   8 89.9774 2.40175   1
  19   2   8 12.0193 1.17157   1
  19   2   8 3.10111 0.91691   2
  20   2   8 26.0181 1.23229   1
  20   2   8 4.60940 1.20615   2
  21   2   8 13.0106 0.98149   1
  21   2   8 2.10656 0.96688   2
 -23   3   8 16.3219 1.07235   2
 -23   3   8 69.3457 3.69687   1
 -22   3   8 2.32046 0.60427   2
 -22   3   8 8.54434 1.33538   1
 -21   3   8 0.39436 0.68059   2
 -21   3   8 2.93469 1.14226   1
 -20   3   8 8.77697 1.09615   1
 -20   3   8 0.33732 0.84870   2
 -19   3   8 12.3695 1.18371   2
 -19   3   8 33.8798 1.70011   1
 -18   3   8 63.2361 2.14197   1
 -18   3   8 15.1195 1.27301   2
 -17   3   8 12.1264 1.36408   1
 -17   3   8 2.99406 1.17341   2
 -16   3   8 2.74840 1.00204   1
 -16   3   8 -0.3019 1.17249   2
 -15   3   8 71.5900 2.13383   1
 -15   3   8 20.3079 1.70661   2
 -14   3   8 272.592 5.31881   1
 -14   3   8 64.6959 2.68333   2
 -13   3   8 40.9604 1.63214   1
 -13   3   8 11.9600 1.55977   2
 -12   3   8 214.129 4.37011   1
 -12   3   8 55.4631 2.00506   2
   8   3   8 290.543 13.6577  -2
 -12   3   8 290.543 13.6577   1
 -11   3   8 299.306 5.72444   1
 -11   3   8 81.3396 2.89438   2
   7   3   8 377.422 16.8892  -2
 -11   3   8 377.422 16.8892   1
 -10   3   8 28.1318 2.34681   2
 -10   3   8 109.493 2.50209   1
  -9   3   8 6.89710 0.95067   1
  -9   3   8 3.98823 1.93125   2
  -8   3   8 6.86889 1.53481   2
  -8   3   8 5.70746 0.89012   1
  -7   3   8 51.5147 2.74299   2
  -7   3   8 171.482 3.66225   1
  -6   3   8 65.4202 2.45441   2
  -6   3   8 245.939 4.82868   1
  -5   3   8 25.3395 2.02622   2
  -5   3   8 92.4603 2.42598   1
  -4   3   8 82.6200 2.31252   1
  -4   3   8 24.4725 1.65393   2
  -3   3   8 36.1986 1.64611   2
  -3   3   8 145.916 3.02207   1
  -2   3   8 178.591 3.77575   1
  -2   3   8 42.3416 1.63759   2
  -1   3   8 15.4607 1.20292   2
  -1   3   8 57.6574 2.01542   1
   0   3   8 79.1974 2.30626   1
   0   3   8 17.5222 1.30076   2
  -4   3   8 108.817 6.68831  -2
   0   3   8 108.817 6.68831   1
   1   3   8 96.8266 2.92068   1
   1   3   8 25.1099 1.41425   2
  -5   3   8 126.426 5.29438  -2
   1   3   8 126.426 5.29438   1
  -6   3   8 96.3529 4.61338  -2
   2   3   8 96.3529 4.61338   1
   2   3   8 14.0365 1.43021   2
   2   3   8 37.5964 1.96592   1
   3   3   8 223.450 6.95863   1
   3   3   8 51.9623 1.74003   2
  -7   3   8 259.738 6.98391  -2
   3   3   8 259.738 6.98391   1
   4   3   8 96.0650 3.92173   1
   4   3   8 22.1004 1.26386   2
  -8   3   8 93.2161 3.97531  -2
   4   3   8 93.2161 3.97531   1
  -9   3   8 104.230 3.52459  -2
   5   3   8 104.230 3.52459   1
   5   3   8 23.5329 1.27513   2
   5   3   8 120.546 6.19510   1
   6   3   8 31.3102 1.48689   2
 -10   3   8 172.770 5.35514  -2
   6   3   8 172.770 5.35514   1
   6   3   8 137.009 4.96109   1
   7   3   8 40.3673 1.63093   2
 -11   3   8 243.492 8.23333  -2
   7   3   8 243.492 8.23333   1
   7   3   8 153.153 4.44716   1
 -12   3   8 255.785 12.4135  -2
   8   3   8 255.785 12.4135   1
   8   3   8 203.772 4.78087   1
   8   3   8 51.2910 1.80924   2
   9   3   8 32.3008 2.00233   1
   9   3   8 12.1438 1.17575   2
 -13   3   8 52.6408 3.98450  -2
   9   3   8 52.6408 3.98450   1
  10   3   8 103.726 3.53779   1
  10   3   8 30.1788 1.54385   2
 -14   3   8 186.346 5.56567  -2
  10   3   8 186.346 5.56567   1
  11   3   8 98.8638 2.97637   1
 -15   3   8 128.192 5.51102  -2
  11   3   8 128.192 5.51102   1
  11   3   8 26.0590 1.47390   2
 -16   3   8 159.391 5.09371  -2
  12   3   8 159.391 5.09371   1
  12   3   8 34.6650 1.74340   2
  12   3   8 150.243 4.42608   1
 -17   3   8 40.9060 3.16921  -2
  13   3   8 40.9060 3.16921   1
  13   3   8 44.4003 2.40556   1
  13   3   8 11.2231 1.25463   2
  14   3   8 1.69915 0.96819   1
  14   3   8 -1.0582 0.99821   2
 -18   3   8 11.5590 4.13020  -2
  14   3   8 11.5590 4.13020   1
  15   3   8 2.28105 0.86810   2
  15   3   8 5.66554 1.03380   1
 -19   3   8 6.76675 3.84183  -2
  15   3   8 6.76675 3.84183   1
  16   3   8 7.64344 1.10013   2
 -20   3   8 31.1593 4.54081  -2
  16   3   8 31.1593 4.54081   1
  16   3   8 27.7943 1.71600   1
  17   3   8 53.9413 1.76080   1
  17   3   8 11.6035 1.29837   2
 -21   3   8 49.0371 4.59207  -2
  17   3   8 49.0371 4.59207   1
  18   3   8 0.24959 0.99115   2
  18   3   8 0.85811 0.68380   1
  19   3   8 9.84152 1.00090   1
  19   3   8 1.34625 0.96970   2
 -21   4   8 7.42575 1.14789   2
 -21   4   8 32.8955 2.70487   1
 -20   4   8 2.53283 0.61378   2
 -20   4   8 7.49109 1.11244   1
 -19   4   8 1.45532 0.67921   2
 -19   4   8 4.78390 0.76263   1
 -18   4   8 2.83689 0.75585   1
 -18   4   8 -0.4019 0.65774   2
 -17   4   8 4.64318 1.34434   2
 -17   4   8 13.7524 1.18338   1
 -16   4   8 10.6270 1.58685   2
 -16   4   8 39.1267 1.60776   1
 -15   4   8 16.2407 1.32122   1
 -15   4   8 5.37625 1.22237   2
 -14   4   8 5.84419 1.31434   2
 -14   4   8 13.2073 1.27584   1
 -13   4   8 4.40479 1.28980   2
 -13   4   8 9.50031 1.17234   1
 -12   4   8 10.9319 1.11534   1
 -12   4   8 2.36852 1.15568   2
 -11   4   8 1.50301 0.82995   1
 -11   4   8 1.11352 1.13381   2
 -10   4   8 2.33215 0.82323   1
 -10   4   8 0.56195 1.06627   2
  -9   4   8 121.648 2.69596   1
  -9   4   8 31.2749 2.38738   2
  -8   4   8 28.6243 1.59734   1
  -8   4   8 8.60618 2.53481   2
  -7   4   8 489.004 8.16473   1
  -7   4   8 114.334 4.18137   2
  -6   4   8 10.7182 1.39413   1
   2   4   8 20.7554 5.26130  -2
  -6   4   8 20.7554 5.26130   1
  -6   4   8 2.30702 1.29073   2
  -5   4   8 134.299 3.16922   1
  -5   4   8 26.2944 2.14832   2
  -4   4   8 6.77377 1.63225   2
  -4   4   8 14.3705 1.61716   1
  -3   4   8 139.095 3.57783   1
  -3   4   8 38.9670 2.29106   2
  -2   4   8 18.7384 1.81510   1
  -2   4   8 4.10942 1.09257   2
  -2   4   8 25.5509 4.26366  -2
  -2   4   8 25.5509 4.26366   1
  -1   4   8 59.6471 2.52081   2
  -1   4   8 219.793 4.98031   1
  -3   4   8 261.278 12.2692  -2
  -1   4   8 261.278 12.2692   1
  -4   4   8 50.1856 4.03122  -2
   0   4   8 50.1856 4.03122   1
   0   4   8 13.4267 1.43420   2
   0   4   8 50.5856 2.55478   1
  -5   4   8 49.8151 3.60422  -2
   1   4   8 49.8151 3.60422   1
   1   4   8 9.59309 1.69154   1
   1   4   8 3.08287 1.25867   2
  -6   4   8 32.7270 2.92930  -2
   2   4   8 32.7270 2.92930   1
   2   4   8 8.51266 1.11837   2
   2   4   8 25.8040 2.44037   1
   3   4   8 67.0770 3.34468   1
   3   4   8 22.9313 1.61392   2
  -7   4   8 175.347 5.29020  -2
   3   4   8 175.347 5.29020   1
   4   4   8 4.78894 0.86966   2
  -8   4   8 28.6917 2.45573  -2
   4   4   8 28.6917 2.45573   1
   4   4   8 20.7158 3.12831   1
  -9   4   8 103.450 3.93308  -2
   5   4   8 103.450 3.93308   1
   5   4   8 23.1543 1.55434   2
   5   4   8 71.1580 3.40672   1
   6   4   8 5.58874 0.88346   2
   6   4   8 13.9039 1.86824   1
 -10   4   8 13.3786 3.25443  -2
   6   4   8 13.3786 3.25443   1
   7   4   8 7.71695 0.95080   2
 -11   4   8 36.2343 3.49913  -2
   7   4   8 36.2343 3.49913   1
   7   4   8 29.2870 2.49408   1
   8   4   8 8.97234 1.06061   2
 -12   4   8 32.4513 3.38858  -2
   8   4   8 32.4513 3.38858   1
   8   4   8 22.2454 1.95972   1
   9   4   8 3.35294 1.24739   1
 -13   4   8 7.42493 2.91666  -2
   9   4   8 7.42493 2.91666   1
   9   4   8 1.04061 0.80667   2
  10   4   8 159.891 4.49729   1
  10   4   8 41.3534 1.56823   2
 -14   4   8 177.610 6.34672  -2
  10   4   8 177.610 6.34672   1
  11   4   8 -0.6540 0.75792   2
  11   4   8 1.39181 1.16259   1
 -15   4   8 3.40612 2.40745  -2
  11   4   8 3.40612 2.40745   1
  12   4   8 1.21642 1.29845   1
  12   4   8 1.90301 0.71235   2
 -16   4   8 15.3211 2.32972  -2
  12   4   8 15.3211 2.32972   1
  13   4   8 28.6161 2.28639   1
 -17   4   8 31.4153 2.72987  -2
  13   4   8 31.4153 2.72987   1
  13   4   8 5.36208 0.87997   2
  14   4   8 19.7299 1.41672   1
  14   4   8 4.11600 0.72279   2
  15   4   8 25.5330 1.19503   2
  15   4   8 110.569 2.82857   1
  16   4   8 1.50338 0.67209   2
  16   4   8 0.43407 0.69030   1
  17   4   8 5.16222 1.02291   1
  17   4   8 10.3902 2.72787   2
 -17   5   8 2.64361 0.57551   1
 -17   5   8 0.17727 0.61071   2
 -16   5   8 6.48176 1.13618   2
 -16   5   8 27.2751 1.20040   1
 -15   5   8 104.899 2.53506   1
 -15   5   8 26.4313 1.78982   2
 -14   5   8 25.8315 1.25430   1
 -14   5   8 6.08611 1.09412   2
 -13   5   8 6.12887 1.03861   2
 -13   5   8 28.2344 1.34430   1
 -12   5   8 86.7053 2.13361   1
 -12   5   8 25.6674 2.06038   2
 -11   5   8 2.59064 1.05928   2
 -11   5   8 6.99025 0.90591   1
 -10   5   8 16.3865 1.61280   2
   6   5   8 68.9970 5.14331  -2
 -10   5   8 68.9970 5.14331   1
 -10   5   8 60.9322 2.05822   1
  -9   5   8 4.51229 1.08009   2
  -9   5   8 16.6792 1.39851   1
   5   5   8 24.6225 3.92289  -2
  -9   5   8 24.6225 3.92289   1
  -8   5   8 10.4680 1.87774   2
   4   5   8 47.2908 4.46478  -2
  -8   5   8 47.2908 4.46478   1
  -8   5   8 41.7464 1.95711   1
  -7   5   8 5.51199 1.13042   1
   3   5   8 27.8592 4.15665  -2
  -7   5   8 27.8592 4.15665   1
   2   5   8 34.9015 2.67820  -2
  -6   5   8 34.9015 2.67820   1
  -6   5   8 7.79623 1.46138   2
  -6   5   8 24.5604 2.17951   1
  -5   5   8 50.6337 2.17469   2
  -5   5   8 188.222 4.92061   1
   1   5   8 203.011 9.96035  -2
  -5   5   8 203.011 9.96035   1
  -4   5   8 4.35240 1.42982   2
   0   5   8 39.9580 4.31424  -2
  -4   5   8 39.9580 4.31424   1
  -4   5   8 21.1128 1.92874   1
  -1   5   8 96.2593 4.25234  -2
  -3   5   8 96.2593 4.25234   1
  -3   5   8 47.7723 2.88499   1
  -2   5   8 13.2098 2.29735  -2
  -2   5   8 13.2098 2.29735   1
  -2   5   8 3.60499 2.54960   2
  -2   5   8 12.1555 2.78046   1
  -3   5   8 211.347 5.71528  -2
  -1   5   8 211.347 5.71528   1
  -1   5   8 52.3214 2.79411   2
   0   5   8 56.1772 2.53655   1
  -4   5   8 58.2435 5.35127  -2
   0   5   8 58.2435 5.35127   1
   0   5   8 19.5422 1.71128   2
   1   5   8 77.9526 2.79984   1
   1   5   8 23.0256 3.26537   2
  -5   5   8 128.806 7.26466  -2
   1   5   8 128.806 7.26466   1
   2   5   8 37.0740 2.51424   1
   2   5   8 7.18687 2.03114   2
  -6   5   8 48.8707 3.55214  -2
   2   5   8 48.8707 3.55214   1
   3   5   8 102.993 5.60877   1
  -7   5   8 101.621 3.60819  -2
   3   5   8 101.621 3.60819   1
   3   5   8 26.7532 1.62035   2
   4   5   8 2.63114 1.11595   2
   4   5   8 11.9058 1.77004   1
  -8   5   8 19.0481 2.77616  -2
   4   5   8 19.0481 2.77616   1
   5   5   8 7.51482 1.03691   2
   5   5   8 29.4549 1.90985   1
  -9   5   8 29.9119 2.95310  -2
   5   5   8 29.9119 2.95310   1
 -10   5   8 40.1459 2.97575  -2
   6   5   8 40.1459 2.97575   1
   6   5   8 7.16896 1.13371   2
   6   5   8 24.5160 1.82210   1
 -11   5   8 20.7529 3.73455  -2
   7   5   8 20.7529 3.73455   1
   7   5   8 31.9183 1.92646   1
   7   5   8 4.84857 0.80363   2
   8   5   8 15.7637 1.75031   1
   8   5   8 2.98959 0.84405   2
 -12   5   8 35.3036 2.48432  -2
   8   5   8 35.3036 2.48432   1
   9   5   8 3.59498 1.03655   1
   9   5   8 0.18609 0.61232   2
 -13   5   8 2.05721 2.65925  -2
   9   5   8 2.05721 2.65925   1
  10   5   8 1.90884 0.65876   2
 -14   5   8 10.4283 2.55141  -2
  10   5   8 10.4283 2.55141   1
  10   5   8 7.13905 1.24368   1
  11   5   8 1.53306 0.56709   2
  11   5   8 1.90613 1.08385   1
 -15   5   8 18.9186 2.64294  -2
  11   5   8 18.9186 2.64294   1
 -16   5   8 8.63795 3.54407  -2
  12   5   8 8.63795 3.54407   1
  12   5   8 1.57248 0.57394   2
  12   5   8 9.67639 1.37983   1
  13   5   8 47.8015 1.74933   1
  13   5   8 11.8683 0.80807   2
 -11   6   8 -0.0618 0.62944   1
   6   6   8 11.9740 2.34662  -2
 -10   6   8 11.9740 2.34662   1
 -10   6   8 1.21456 0.79792   1
  -9   6   8 -0.3365 0.79973   1
   5   6   8 2.00550 2.19275  -2
  -9   6   8 2.00550 2.19275   1
   4   6   8 70.3756 2.80657  -2
  -8   6   8 70.3756 2.80657   1
  -8   6   8 57.8218 3.41408   1
  -7   6   8 1.48070 1.73870   1
   3   6   8 0.28896 1.75737  -2
  -7   6   8 0.28896 1.75737   1
  -6   6   8 1.43384 1.20996   2
  -6   6   8 1.07661 2.12100   1
   2   6   8 16.5867 1.72155  -2
  -6   6   8 16.5867 1.72155   1
  -5   6   8 1.43279 1.09502   2
   1   6   8 13.4980 2.11264  -2
  -5   6   8 13.4980 2.11264   1
  -5   6   8 -0.1815 1.12433   1
  -4   6   8 13.8498 2.07008   1
  -4   6   8 1.56772 1.01613   2
   0   6   8 15.8921 2.22456  -2
  -4   6   8 15.8921 2.22456   1
  -3   6   8 12.5045 2.17646   2
  -1   6   8 43.6048 2.67743  -2
  -3   6   8 43.6048 2.67743   1
  -3   6   8 37.7856 2.69839   1
  -2   6   8 27.5922 3.45970  -2
  -2   6   8 27.5922 3.45970   1
  -2   6   8 26.9780 1.79701   1
  -2   6   8 9.53723 1.43234   2
  -3   6   8 10.6997 2.14807  -2
  -1   6   8 10.6997 2.14807   1
  -1   6   8 2.52599 1.60463   1
  -1   6   8 0.82529 1.16363   2
  -4   6   8 27.2366 3.45000  -2
   0   6   8 27.2366 3.45000   1
   0   6   8 14.9463 1.66597   1
   0   6   8 3.94203 1.27589   2
  -5   6   8 62.8661 4.40126  -2
   1   6   8 62.8661 4.40126   1
   1   6   8 54.3995 2.40270   1
   1   6   8 13.9615 1.83759   2
   2   6   8 76.9199 2.90250   1
  -6   6   8 82.1206 4.85280  -2
   2   6   8 82.1206 4.85280   1
   2   6   8 29.5205 5.36075   2
   3   6   8 1.14468 1.63557   2
  -7   6   8 9.31648 2.90428  -2
   3   6   8 9.31648 2.90428   1
   4   6   8 2.44533 1.45791   2
  -8   6   8 28.9961 3.14853  -2
   4   6   8 28.9961 3.14853   1
   5   6   8 3.64275 1.37802   2
  -9   6   8 30.8152 3.20898  -2
   5   6   8 30.8152 3.20898   1
   6   6   8 10.1944 1.07301   2
 -10   6   8 48.6334 3.56459  -2
   6   6   8 48.6334 3.56459   1
   7   6   8 6.68692 0.82583   2
 -11   6   8 34.9039 3.24659  -2
   7   6   8 34.9039 3.24659   1
 -26   0   9 -1.4159 1.20948   1
 -26   0   9 0.03629 0.87600   2
 -25   0   9 -0.4249 0.75830   2
 -25   0   9 0.78783 3.00434   1
 -24   0   9 0.85550 3.26072   1
 -24   0   9 1.16223 1.04073   2
 -23   0   9 1.78871 1.24674   2
 -23   0   9 1.03936 3.44809   1
 -22   0   9 1.73035 1.35918   2
 -22   0   9 -0.5246 3.82346   1
 -21   0   9 0.80588 3.10280   1
 -20   0   9 1.56524 3.16466   1
 -19   0   9 -0.3553 3.16998   1
 -18   0   9 0.50711 3.07637   1
 -17   0   9 -2.2731 3.08243   1
 -16   0   9 -0.4070 3.03784   1
 -15   0   9 1.51862 3.43290   1
 -14   0   9 2.55935 3.36762   1
 -13   0   9 -1.5709 2.90324   1
 -12   0   9 1.26622 2.98778   1
 -11   0   9 -0.3684 2.57893   1
 -10   0   9 0.15925 2.54107   1
  -9   0   9 0.39775 2.57756   1
  -8   0   9 -1.2809 2.35938   1
  -7   0   9 2.04500 2.54144   1
  -6   0   9 -1.8012 2.43170   1
  -5   0   9 -0.9922 2.52099   1
  -4   0   9 -0.2409 1.06428   2
  -4   0   9 0.33331 1.52476   1
  -3   0   9 -0.0823 1.29546   1
  -2   0   9 0.42090 1.29786   1
  -1   0   9 1.68672 1.39544   1
   0   0   9 1.32942 0.97840   1
   1   0   9 4.68403 3.49357   1
   2   0   9 2.07293 2.72353   1
   3   0   9 -3.0037 2.94332   1
   4   0   9 2.46990 4.51692   1
   5   0   9 4.37482 3.67327   1
   6   0   9 4.21664 2.99269   1
   7   0   9 3.65106 3.01659   1
   8   0   9 1.25821 2.78656   1
   9   0   9 -0.2813 2.72397   1
  10   0   9 -1.2017 2.72304   1
  11   0   9 3.79937 2.81578   1
  12   0   9 -0.4651 2.78766   1
  13   0   9 0.80337 2.74836   1
  14   0   9 3.07979 2.55072   1
  15   0   9 3.09659 2.65770   1
  16   0   9 -0.2513 2.44312   1
  17   0   9 1.48920 2.39420   1
  18   0   9 1.26437 1.44257   1
  19   0   9 0.36143 1.17899   1
  20   0   9 1.04172 1.06504   1
  21   0   9 -0.6109 1.03341   1
  21   1   9 51.5073 2.94105  -2
 -25   1   9 51.5073 2.94105   1
 -25   1   9 13.2506 0.94233   2
  20   1   9 120.686 4.45297  -2
 -24   1   9 120.686 4.45297   1
 -24   1   9 34.3100 1.68443   2
 -23   1   9 22.3259 1.56022   2
  19   1   9 84.8414 3.45463  -2
 -23   1   9 84.8414 3.45463   1
 -22   1   9 1.98043 0.91234   2
  18   1   9 12.0484 2.20968  -2
 -22   1   9 12.0484 2.20968   1
  17   1   9 12.5506 2.32350  -2
 -21   1   9 12.5506 2.32350   1
 -21   1   9 3.19105 1.52563   2
  16   1   9 40.2655 2.76803  -2
 -20   1   9 40.2655 2.76803   1
  15   1   9 91.9974 3.36481  -2
 -19   1   9 91.9974 3.36481   1
  14   1   9 41.2218 2.86851  -2
 -18   1   9 41.2218 2.86851   1
  13   1   9 15.3711 2.61080  -2
 -17   1   9 15.3711 2.61080   1
  12   1   9 8.60046 2.24897  -2
 -16   1   9 8.60046 2.24897   1
  11   1   9 40.7044 2.46691  -2
 -15   1   9 40.7044 2.46691   1
  10   1   9 184.255 4.78325  -2
 -14   1   9 184.255 4.78325   1
   9   1   9 65.1409 2.81279  -2
 -13   1   9 65.1409 2.81279   1
   8   1   9 99.8231 3.47239  -2
 -12   1   9 99.8231 3.47239   1
   7   1   9 342.089 7.37768  -2
 -11   1   9 342.089 7.37768   1
   6   1   9 277.687 7.16984  -2
 -10   1   9 277.687 7.16984   1
 -10   1   9 262.076 11.2801   1
  -9   1   9 54.1833 4.69549   1
   5   1   9 49.0710 2.33228  -2
  -9   1   9 49.0710 2.33228   1
   4   1   9 61.4585 2.75662  -2
  -8   1   9 61.4585 2.75662   1
  -8   1   9 35.6101 3.90810   1
  -7   1   9 199.465 9.65609   1
   3   1   9 361.857 10.8815  -2
  -7   1   9 361.857 10.8815   1
   2   1   9 46.0570 2.25865  -2
  -6   1   9 46.0570 2.25865   1
   1   1   9 27.8495 2.22586  -2
  -5   1   9 27.8495 2.22586   1
  -5   1   9 13.6286 2.51562   1
   0   1   9 282.096 6.38543  -2
  -4   1   9 282.096 6.38543   1
  -1   1   9 122.647 3.97870  -2
  -3   1   9 122.647 3.97870   1
  -2   1   9 1388.35 59.5602   1
  -2   1   9 501.443 22.1801   2
  -2   1   9 1833.42 53.0829  -2
  -2   1   9 1833.42 53.0829   1
  -3   1   9 446.787 11.3039  -2
  -1   1   9 446.787 11.3039   1
  -4   1   9 251.933 8.32248  -2
   0   1   9 251.933 8.32248   1
   1   1   9 28.3321 2.93405   2
   3   1   9 202.010 9.79950   2
   4   1   9 28.1373 2.56191   2
  -8   1   9 112.837 4.56065  -2
   4   1   9 112.837 4.56065   1
  -9   1   9 34.8531 2.55594  -2
   5   1   9 34.8531 2.55594   1
   5   1   9 14.6359 3.64809   2
 -10   1   9 68.5000 2.42969  -2
   6   1   9 68.5000 2.42969   1
 -11   1   9 375.698 7.02792  -2
   7   1   9 375.698 7.02792   1
 -12   1   9 294.426 5.81489  -2
   8   1   9 294.426 5.81489   1
 -13   1   9 76.0253 2.90602  -2
   9   1   9 76.0253 2.90602   1
 -14   1   9 64.5232 2.67063  -2
  10   1   9 64.5232 2.67063   1
 -15   1   9 26.3907 2.25568  -2
  11   1   9 26.3907 2.25568   1
 -16   1   9 25.6689 2.02288  -2
  12   1   9 25.6689 2.02288   1
 -17   1   9 22.8703 1.97677  -2
  13   1   9 22.8703 1.97677   1
 -18   1   9 111.426 3.02931  -2
  14   1   9 111.426 3.02931   1
 -19   1   9 107.582 2.90981  -2
  15   1   9 107.582 2.90981   1
 -20   1   9 110.468 2.93051  -2
  16   1   9 110.468 2.93051   1
 -21   1   9 16.5520 1.91643  -2
  17   1   9 16.5520 1.91643   1
  17   1   9 10.0191 2.30559   1
  18   1   9 8.64721 1.47607   1
 -22   1   9 14.6588 2.22823  -2
  18   1   9 14.6588 2.22823   1
  19   1   9 17.6505 1.56751   1
 -23   1   9 38.9453 2.69807  -2
  19   1   9 38.9453 2.69807   1
  20   1   9 93.2351 2.66508   1
 -24   1   9 113.681 5.63265  -2
  20   1   9 113.681 5.63265   1
  21   1   9 31.1066 1.28739   1
 -24   2   9 3.74774 0.75137   2
  20   2   9 17.1050 2.77957  -2
 -24   2   9 17.1050 2.77957   1
  19   2   9 22.9715 2.90266  -2
 -23   2   9 22.9715 2.90266   1
  18   2   9 52.2366 3.31770  -2
 -22   2   9 52.2366 3.31770   1
 -22   2   9 17.6196 1.49066   2
  17   2   9 29.5061 2.92705  -2
 -21   2   9 29.5061 2.92705   1
  16   2   9 16.1811 2.39522  -2
 -20   2   9 16.1811 2.39522   1
  15   2   9 14.7386 2.51368  -2
 -19   2   9 14.7386 2.51368   1
  14   2   9 329.237 8.12955  -2
 -18   2   9 329.237 8.12955   1
  13   2   9 144.965 4.40816  -2
 -17   2   9 144.965 4.40816   1
  12   2   9 61.4354 2.62324  -2
 -16   2   9 61.4354 2.62324   1
  11   2   9 46.4364 2.48329  -2
 -15   2   9 46.4364 2.48329   1
  10   2   9 85.5366 2.66255  -2
 -14   2   9 85.5366 2.66255   1
   9   2   9 170.132 3.51875  -2
 -13   2   9 170.132 3.51875   1
   8   2   9 685.207 12.2095  -2
 -12   2   9 685.207 12.2095   1
   7   2   9 341.818 5.94708  -2
 -11   2   9 341.818 5.94708   1
   6   2   9 29.1657 1.69171  -2
 -10   2   9 29.1657 1.69171   1
   5   2   9 93.2689 2.41927  -2
  -9   2   9 93.2689 2.41927   1
   4   2   9 185.394 3.66409  -2
  -8   2   9 185.394 3.66409   1
   3   2   9 32.0820 1.83887  -2
  -7   2   9 32.0820 1.83887   1
   2   2   9 4.70392 1.49429  -2
  -6   2   9 4.70392 1.49429   1
   1   2   9 57.0230 2.17771  -2
  -5   2   9 57.0230 2.17771   1
   0   2   9 106.016 2.76184  -2
  -4   2   9 106.016 2.76184   1
  -1   2   9 514.525 9.18851  -2
  -3   2   9 514.525 9.18851   1
  -2   2   9 525.503 9.40361  -2
  -2   2   9 525.503 9.40361   1
  -3   2   9 1198.37 22.6319  -2
  -1   2   9 1198.37 22.6319   1
  -4   2   9 435.283 7.95361  -2
   0   2   9 435.283 7.95361   1
  -5   2   9 206.378 4.40572  -2
   1   2   9 206.378 4.40572   1
  -6   2   9 9.47656 1.92800  -2
   2   2   9 9.47656 1.92800   1
  -7   2   9 92.1291 2.80884  -2
   3   2   9 92.1291 2.80884   1
  -8   2   9 136.089 3.12842  -2
   4   2   9 136.089 3.12842   1
  -9   2   9 187.891 4.14566  -2
   5   2   9 187.891 4.14566   1
 -10   2   9 78.2814 2.63483  -2
   6   2   9 78.2814 2.63483   1
 -11   2   9 338.809 5.94843  -2
   7   2   9 338.809 5.94843   1
 -12   2   9 210.307 4.07483  -2
   8   2   9 210.307 4.07483   1
 -13   2   9 43.4298 1.99547  -2
   9   2   9 43.4298 1.99547   1
 -14   2   9 144.957 3.29091  -2
  10   2   9 144.957 3.29091   1
 -15   2   9 24.1119 1.96645  -2
  11   2   9 24.1119 1.96645   1
 -16   2   9 100.124 2.92119  -2
  12   2   9 100.124 2.92119   1
 -17   2   9 37.3268 2.02785  -2
  13   2   9 37.3268 2.02785   1
 -18   2   9 381.875 7.92069  -2
  14   2   9 381.875 7.92069   1
 -19   2   9 47.7008 2.09101  -2
  15   2   9 47.7008 2.09101   1
 -20   2   9 44.4537 1.91170  -2
  16   2   9 44.4537 1.91170   1
 -21   2   9 56.4350 2.27351  -2
  17   2   9 56.4350 2.27351   1
  17   2   9 49.1103 3.41251   1
  18   2   9 38.1900 1.99869   1
 -22   2   9 49.4818 2.56648  -2
  18   2   9 49.4818 2.56648   1
  19   2   9 85.0175 2.95808   1
 -23   2   9 88.0498 3.57557  -2
  19   2   9 88.0498 3.57557   1
  20   2   9 15.8719 1.21618   1
 -24   2   9 19.0800 2.76388  -2
  20   2   9 19.0800 2.76388   1
 -23   3   9 20.0893 1.98011   1
 -23   3   9 10.9098 2.04863   2
 -22   3   9 38.6381 4.36423   1
  18   3   9 40.7046 3.53226  -2
 -22   3   9 40.7046 3.53226   1
 -22   3   9 10.0956 1.32771   2
  17   3   9 131.432 4.98598  -2
 -21   3   9 131.432 4.98598   1
 -21   3   9 29.5810 1.70601   2
  16   3   9 51.0799 2.56641  -2
 -20   3   9 51.0799 2.56641   1
 -20   3   9 39.9283 3.03067   1
 -20   3   9 9.57411 1.80326   2
  15   3   9 114.287 4.58580  -2
 -19   3   9 114.287 4.58580   1
 -19   3   9 103.740 5.09840   1
  14   3   9 12.9255 2.23234  -2
 -18   3   9 12.9255 2.23234   1
  13   3   9 66.6043 2.45580  -2
 -17   3   9 66.6043 2.45580   1
  12   3   9 18.5635 1.93502  -2
 -16   3   9 18.5635 1.93502   1
  11   3   9 12.5037 1.87472  -2
 -15   3   9 12.5037 1.87472   1
  10   3   9 55.0657 2.22982  -2
 -14   3   9 55.0657 2.22982   1
   9   3   9 27.5397 1.70915  -2
 -13   3   9 27.5397 1.70915   1
   8   3   9 31.6638 1.75297  -2
 -12   3   9 31.6638 1.75297   1
   7   3   9 85.7600 2.33312  -2
 -11   3   9 85.7600 2.33312   1
   6   3   9 139.059 3.06145  -2
 -10   3   9 139.059 3.06145   1
   5   3   9 64.8153 2.05053  -2
  -9   3   9 64.8153 2.05053   1
   4   3   9 22.9827 1.64584  -2
  -8   3   9 22.9827 1.64584   1
   3   3   9 11.8890 1.76704  -2
  -7   3   9 11.8890 1.76704   1
   2   3   9 44.1522 2.06966  -2
  -6   3   9 44.1522 2.06966   1
   1   3   9 54.4061 2.12083  -2
  -5   3   9 54.4061 2.12083   1
   0   3   9 13.3722 1.80999  -2
  -4   3   9 13.3722 1.80999   1
  -1   3   9 15.3472 1.89495  -2
  -3   3   9 15.3472 1.89495   1
  -2   3   9 70.8349 2.70447  -2
  -2   3   9 70.8349 2.70447   1
  -3   3   9 44.6926 2.13228  -2
  -1   3   9 44.6926 2.13228   1
  -4   3   9 10.5369 1.77539  -2
   0   3   9 10.5369 1.77539   1
  -5   3   9 198.576 4.26122  -2
   1   3   9 198.576 4.26122   1
  -6   3   9 25.1520 2.18168  -2
   2   3   9 25.1520 2.18168   1
  -7   3   9 2.62386 1.72302  -2
   3   3   9 2.62386 1.72302   1
  -8   3   9 88.0580 2.68105  -2
   4   3   9 88.0580 2.68105   1
  -9   3   9 250.999 5.14518  -2
   5   3   9 250.999 5.14518   1
 -10   3   9 162.229 3.74829  -2
   6   3   9 162.229 3.74829   1
 -11   3   9 325.495 6.34744  -2
   7   3   9 325.495 6.34744   1
 -12   3   9 133.603 3.39159  -2
   8   3   9 133.603 3.39159   1
 -13   3   9 115.045 3.16797  -2
   9   3   9 115.045 3.16797   1
 -14   3   9 44.1807 2.09015  -2
  10   3   9 44.1807 2.09015   1
 -15   3   9 6.36586 1.74109  -2
  11   3   9 6.36586 1.74109   1
 -16   3   9 9.42749 1.83619  -2
  12   3   9 9.42749 1.83619   1
 -17   3   9 79.6797 2.51136  -2
  13   3   9 79.6797 2.51136   1
 -18   3   9 24.3930 1.74055  -2
  14   3   9 24.3930 1.74055   1
 -19   3   9 54.5588 2.11759  -2
  15   3   9 54.5588 2.11759   1
  16   3   9 20.0805 2.39864   1
 -20   3   9 30.5049 2.01099  -2
  16   3   9 30.5049 2.01099   1
 -21   3   9 28.7573 2.14380  -2
  17   3   9 28.7573 2.14380   1
  17   3   9 8.66695 2.10897   1
  18   3   9 7.54191 1.47688   1
 -22   3   9 18.4949 2.01672  -2
  18   3   9 18.4949 2.01672   1
  19   3   9 14.5179 1.67886   2
 -23   3   9 60.6034 3.51569  -2
  19   3   9 60.6034 3.51569   1
  19   3   9 48.6690 3.37219   1
  16   4   9 12.1812 2.01019  -2
 -20   4   9 12.1812 2.01019   1
  15   4   9 16.2342 1.61562  -2
 -19   4   9 16.2342 1.61562   1
 -19   4   9 3.94916 1.36654   2
 -19   4   9 15.5456 1.94628   1
 -18   4   9 11.4271 1.93070   2
  14   4   9 35.9483 2.09782  -2
 -18   4   9 35.9483 2.09782   1
 -18   4   9 26.9229 2.28154   1
  13   4   9 23.0115 1.54705  -2
 -17   4   9 23.0115 1.54705   1
  12   4   9 14.3769 1.54076  -2
 -16   4   9 14.3769 1.54076   1
  11   4   9 30.1666 1.75467  -2
 -15   4   9 30.1666 1.75467   1
  10   4   9 31.6336 1.86502  -2
 -14   4   9 31.6336 1.86502   1
   9   4   9 92.1715 2.85275  -2
 -13   4   9 92.1715 2.85275   1
   8   4   9 59.5345 2.13639  -2
 -12   4   9 59.5345 2.13639   1
   7   4   9 18.7200 1.61866  -2
 -11   4   9 18.7200 1.61866   1
   6   4   9 63.0458 2.09576  -2
 -10   4   9 63.0458 2.09576   1
   5   4   9 56.8776 2.05741  -2
  -9   4   9 56.8776 2.05741   1
   4   4   9 125.606 2.94497  -2
  -8   4   9 125.606 2.94497   1
   3   4   9 65.3097 2.20179  -2
  -7   4   9 65.3097 2.20179   1
   2   4   9 30.8418 1.96394  -2
  -6   4   9 30.8418 1.96394   1
   1   4   9 187.453 4.55066  -2
  -5   4   9 187.453 4.55066   1
   0   4   9 224.469 5.19316  -2
  -4   4   9 224.469 5.19316   1
  -1   4   9 6.73956 2.12568  -2
  -3   4   9 6.73956 2.12568   1
  -2   4   9 156.251 3.99169  -2
  -2   4   9 156.251 3.99169   1
  -3   4   9 19.0559 2.20818  -2
  -1   4   9 19.0559 2.20818   1
  -4   4   9 284.038 5.60369  -2
   0   4   9 284.038 5.60369   1
  -5   4   9 84.8192 2.86686  -2
   1   4   9 84.8192 2.86686   1
  -6   4   9 37.4555 2.21391  -2
   2   4   9 37.4555 2.21391   1
  -7   4   9 24.3613 2.02089  -2
   3   4   9 24.3613 2.02089   1
  -8   4   9 42.1450 2.26928  -2
   4   4   9 42.1450 2.26928   1
  -9   4   9 64.5266 2.67539  -2
   5   4   9 64.5266 2.67539   1
 -10   4   9 117.743 3.42091  -2
   6   4   9 117.743 3.42091   1
 -11   4   9 58.9764 2.53907  -2
   7   4   9 58.9764 2.53907   1
 -12   4   9 75.4933 2.75719  -2
   8   4   9 75.4933 2.75719   1
 -13   4   9 125.315 4.05071  -2
   9   4   9 125.315 4.05071   1
 -14   4   9 45.1367 2.14835  -2
  10   4   9 45.1367 2.14835   1
 -15   4   9 47.6709 2.11677  -2
  11   4   9 47.6709 2.11677   1
 -16   4   9 6.74695 1.57715  -2
  12   4   9 6.74695 1.57715   1
 -17   4   9 55.5950 2.37124  -2
  13   4   9 55.5950 2.37124   1
 -18   4   9 41.5602 2.58065  -2
  14   4   9 41.5602 2.58065   1
  14   4   9 37.1614 2.87257   1
 -19   4   9 12.9855 1.96188  -2
  15   4   9 12.9855 1.96188   1
  15   4   9 7.95409 1.82988   1
  15   4   9 6.95509 1.78099   2
 -20   4   9 12.6239 1.86191  -2
  16   4   9 12.6239 1.86191   1
 -16   5   9 5.53943 1.33746   1
  12   5   9 4.74253 1.87859  -2
 -16   5   9 4.74253 1.87859   1
  11   5   9 35.8059 1.62789  -2
 -15   5   9 35.8059 1.62789   1
  10   5   9 14.1659 1.33551  -2
 -14   5   9 14.1659 1.33551   1
 -14   5   9 3.42047 1.59887   2
   9   5   9 4.11715 1.25592  -2
 -13   5   9 4.11715 1.25592   1
   8   5   9 16.1509 1.43565  -2
 -12   5   9 16.1509 1.43565   1
   7   5   9 8.66101 1.44111  -2
 -11   5   9 8.66101 1.44111   1
   6   5   9 1.67545 1.35186  -2
 -10   5   9 1.67545 1.35186   1
   5   5   9 5.17125 1.57317  -2
  -9   5   9 5.17125 1.57317   1
   4   5   9 38.2225 1.84697  -2
  -8   5   9 38.2225 1.84697   1
   3   5   9 13.1077 1.51111  -2
  -7   5   9 13.1077 1.51111   1
   2   5   9 110.297 2.80013  -2
  -6   5   9 110.297 2.80013   1
   1   5   9 2.69053 1.36393  -2
  -5   5   9 2.69053 1.36393   1
   0   5   9 4.93945 1.50904  -2
  -4   5   9 4.93945 1.50904   1
  -1   5   9 7.31222 1.55476  -2
  -3   5   9 7.31222 1.55476   1
  -2   5   9 4.17879 1.66560  -2
  -2   5   9 4.17879 1.66560   1
  -3   5   9 22.9013 2.09210  -2
  -1   5   9 22.9013 2.09210   1
  -4   5   9 14.8879 1.93687  -2
   0   5   9 14.8879 1.93687   1
  -5   5   9 10.9481 1.97218  -2
   1   5   9 10.9481 1.97218   1
  -6   5   9 29.9851 2.12386  -2
   2   5   9 29.9851 2.12386   1
  -7   5   9 22.0102 2.02826  -2
   3   5   9 22.0102 2.02826   1
  -8   5   9 15.0333 1.92239  -2
   4   5   9 15.0333 1.92239   1
  -9   5   9 4.20601 1.60107  -2
   5   5   9 4.20601 1.60107   1
 -10   5   9 3.45798 1.52328  -2
   6   5   9 3.45798 1.52328   1
 -11   5   9 32.2365 1.83816  -2
   7   5   9 32.2365 1.83816   1
 -12   5   9 15.6092 1.63572  -2
   8   5   9 15.6092 1.63572   1
 -13   5   9 4.77135 1.95894  -2
   9   5   9 4.77135 1.95894   1
  10   5   9 10.6750 2.50178   1
 -14   5   9 6.01105 2.46538  -2
  10   5   9 6.01105 2.46538   1
 -15   5   9 11.7101 2.43427  -2
  11   5   9 11.7101 2.43427   1
  12   5   9 6.62202 1.42498   2
 -16   5   9 25.9144 2.77253  -2
  12   5   9 25.9144 2.77253   1
   5   6   9 17.7213 1.51505  -2
  -9   6   9 17.7213 1.51505   1
   4   6   9 1.15993 1.27130  -2
  -8   6   9 1.15993 1.27130   1
   3   6   9 3.24044 1.28810  -2
  -7   6   9 3.24044 1.28810   1
   2   6   9 0.57960 1.52454  -2
  -6   6   9 0.57960 1.52454   1
   1   6   9 18.8434 1.52833  -2
  -5   6   9 18.8434 1.52833   1
   0   6   9 2.68166 1.39119  -2
  -4   6   9 2.68166 1.39119   1
  -1   6   9 1.78429 1.44118  -2
  -3   6   9 1.78429 1.44118   1
  -2   6   9 1.22444 1.40837  -2
  -2   6   9 1.22444 1.40837   1
  -3   6   9 8.68837 1.52677  -2
  -1   6   9 8.68837 1.52677   1
  -4   6   9 -1.6655 1.51168  -2
   0   6   9 -1.6655 1.51168   1
  -5   6   9 35.2938 1.91414  -2
   1   6   9 35.2938 1.91414   1
  -6   6   9 17.2715 1.77739  -2
   2   6   9 17.2715 1.77739   1
  -7   6   9 10.6600 2.80832  -2
   3   6   9 10.6600 2.80832   1
  -8   6   9 4.00897 2.49661  -2
   4   6   9 4.00897 2.49661   1
  -9   6   9 36.2523 3.02778  -2
   5   6   9 36.2523 3.02778   1
 -25   0  10 8.36784 1.15790   2
 -25   0  10 25.6102 2.60384   1
 -24   0  10 -0.2988 0.73744   2
 -24   0  10 0.34624 1.45216   1
 -23   0  10 56.5423 3.92550   1
 -23   0  10 14.9988 1.46822   2
 -22   0  10 3.84602 1.06164   2
 -22   0  10 12.8533 2.43184   1
 -21   0  10 3.69772 1.49029   1
 -21   0  10 1.42483 1.09468   2
 -20   0  10 73.1463 3.11055   2
 -20   0  10 267.382 8.53887   1
 -19   0  10 214.885 7.18366   1
 -19   0  10 54.1594 2.75127   2
 -18   0  10 34.0327 2.31561   2
 -18   0  10 126.419 4.89747   1
 -17   0  10 444.307 13.3621   1
 -17   0  10 118.503 4.30401   2
 -16   0  10 53.7360 2.81106   2
 -16   0  10 198.334 6.81874   1
 -15   0  10 41.8783 2.49211   2
 -15   0  10 194.631 9.23246   1
 -14   0  10 32.7587 2.33727   2
 -14   0  10 151.337 7.49924   1
 -13   0  10 69.3445 3.11679   2
 -13   0  10 265.038 11.7605   1
 -12   0  10 145.201 5.30605   1
 -12   0  10 37.2601 2.46317   2
 -11   0  10 5.18613 1.45551   2
 -11   0  10 16.9180 2.19618   1
 -10   0  10 1.17185 1.40878   2
 -10   0  10 0.93809 1.32343   1
  -9   0  10 17.0275 2.21127   2
  -9   0  10 60.7706 3.05848   1
  -8   0  10 11.1730 1.61866   2
  -8   0  10 40.5884 2.51243   1
  -7   0  10 873.554 24.1325   1
  -7   0  10 204.111 6.40975   2
  -6   0  10 36.7345 3.28420   2
  -6   0  10 140.068 4.87272   1
  -5   0  10 1.30028 1.69621   2
  -5   0  10 2.52687 1.52738   1
  -4   0  10 9.57455 2.19989   1
  -4   0  10 3.83417 1.83354   2
  -3   0  10 239.293 10.5464   1
  -3   0  10 62.7373 3.99553   2
  -2   0  10 904.277 36.2764   1
  -2   0  10 221.142 9.82579   2
  -1   0  10 1.42164 1.61304   2
  -1   0  10 0.26506 1.68595   1
   0   0  10 180.149 8.34851   1
   0   0  10 44.1997 3.40069   2
   1   0  10 1.05506 1.27677   2
   1   0  10 13.5517 2.46611   1
   2   0  10 142.267 4.94213   2
   2   0  10 510.471 14.5361   1
   3   0  10 100.428 3.89055   2
   3   0  10 405.683 11.7212   1
   4   0  10 1183.05 30.9009   1
   4   0  10 289.151 8.73774   2
   5   0  10 17.5827 1.82075   2
   5   0  10 73.5261 3.48717   1
   6   0  10 0.27505 1.35185   2
   6   0  10 4.17113 1.70555   1
   7   0  10 10.8414 1.98683   2
   7   0  10 36.8454 2.72398   1
   8   0  10 5.44504 1.56257   1
   8   0  10 -0.9391 1.40181   2
   9   0  10 6.03598 1.60508   1
   9   0  10 -0.8890 1.68776   2
  10   0  10 3.69734 1.95586   2
  10   0  10 13.9083 3.01371   1
  11   0  10 130.812 4.89555   2
  11   0  10 545.348 15.0562   1
  12   0  10 80.9476 3.66785   2
  12   0  10 328.162 9.62598   1
  13   0  10 64.3292 3.24725   2
  13   0  10 266.229 8.08095   1
  14   0  10 13.9020 2.07720   1
  14   0  10 4.06970 1.48201   2
  15   0  10 700.046 18.9158   1
  15   0  10 163.596 5.70517   2
  16   0  10 58.6729 2.85368   1
  16   0  10 15.4374 1.94524   2
  17   0  10 3.59134 1.13060   1
  17   0  10 -1.1070 1.24448   2
  18   0  10 143.162 4.57631   1
  18   0  10 33.3683 2.92275   2
  19   0  10 0.70548 0.85439   1
  19   0  10 1.11109 1.27123   2
  20   0  10 69.4235 2.55199   1
  20   0  10 14.8527 2.10948   2
  21   0  10 -0.6939 1.27068   2
  21   0  10 0.35720 1.02080   1
 -25   1  10 10.9319 2.09552   1
 -25   1  10 1.10929 0.56615   2
 -24   1  10 2.71154 0.57217   2
 -24   1  10 11.7448 1.74790   1
 -23   1  10 -0.3546 0.60487   2
 -23   1  10 1.91800 1.01929   1
 -22   1  10 12.8769 1.49174   1
 -22   1  10 4.62260 0.72782   2
 -21   1  10 2.32838 0.72684   2
 -21   1  10 5.12204 1.22555   1
 -20   1  10 29.2788 1.91549   1
 -20   1  10 15.4626 1.36674   2
 -19   1  10 31.9850 1.94267   1
 -19   1  10 8.45815 1.29639   2
 -18   1  10 13.7817 1.60317   2
 -18   1  10 41.9218 2.52181   1
 -17   1  10 49.7123 2.54644   1
 -17   1  10 18.3987 1.67842   2
 -16   1  10 17.1820 1.66966   1
 -16   1  10 3.82358 0.94720   2
 -15   1  10 41.3411 2.15010   1
 -15   1  10 11.7844 1.38113   2
 -14   1  10 13.0582 1.23707   2
 -14   1  10 51.5396 2.42479   1
 -13   1  10 0.09267 0.80791   2
 -13   1  10 1.24835 0.99052   1
 -12   1  10 2.48295 0.84916   2
 -12   1  10 8.95650 1.34908   1
 -11   1  10 27.4891 1.67047   1
 -11   1  10 8.37597 1.00349   2
 -10   1  10 3.50616 0.86243   2
 -10   1  10 7.96541 1.12075   1
  -9   1  10 1.55845 0.84855   2
  -9   1  10 1.75146 0.87230   1
  -8   1  10 68.4781 2.13209   1
  -8   1  10 18.3561 1.33983   2
  -7   1  10 1.69201 0.91107   2
  -7   1  10 6.55484 0.97191   1
  -6   1  10 167.536 3.96880   1
  -6   1  10 42.9146 2.13757   2
  -5   1  10 5.62323 1.06676   1
  -5   1  10 3.89128 1.05516   2
  -4   1  10 94.4270 3.11125   1
  -4   1  10 30.6689 1.88878   2
  -3   1  10 7.35064 1.18134   1
  -3   1  10 1.72686 1.52121   2
  -2   1  10 134.054 3.97654   1
  -2   1  10 34.8267 1.64793   2
  -1   1  10 62.5128 2.08248   2
  -1   1  10 246.646 6.42504   1
   0   1  10 139.904 3.62988   1
   0   1  10 35.6873 1.68825   2
   1   1  10 19.8914 1.47713   2
   1   1  10 58.8504 2.62998   1
   2   1  10 7.71899 1.27115   1
   2   1  10 1.60071 0.91477   2
   3   1  10 86.1789 2.41043   1
   3   1  10 23.4489 1.41138   2
   4   1  10 27.9214 1.60453   1
   4   1  10 7.80461 1.03128   2
 -10   1  10 324.996 16.8987  -2
   5   1  10 324.996 16.8987   1
   5   1  10 343.363 5.75938   1
   5   1  10 81.1797 2.47910   2
   6   1  10 2.88941 0.97256   1
   6   1  10 2.21904 0.91972   2
 -11   1  10 19.1706 9.13329  -2
   6   1  10 19.1706 9.13329   1
   7   1  10 0.30791 1.02756   2
   7   1  10 4.32928 1.00119   1
 -12   1  10 10.0897 8.52299  -2
   7   1  10 10.0897 8.52299   1
   8   1  10 9.69217 1.14283   1
   8   1  10 2.43637 1.01282   2
 -13   1  10 3.52828 8.83372  -2
   8   1  10 3.52828 8.83372   1
   9   1  10 44.8590 1.83317   1
   9   1  10 13.8532 1.76010   2
 -14   1  10 38.1237 8.54988  -2
   9   1  10 38.1237 8.54988   1
  10   1  10 0.81443 0.94425   2
  10   1  10 6.39632 1.19431   1
 -15   1  10 11.9520 7.57707  -2
  10   1  10 11.9520 7.57707   1
  11   1  10 71.4490 2.40624   1
  11   1  10 17.0513 1.67966   2
 -16   1  10 69.8877 8.22246  -2
  11   1  10 69.8877 8.22246   1
  12   1  10 56.4500 2.31072   2
 -17   1  10 257.434 8.77182  -2
  12   1  10 257.434 8.77182   1
  12   1  10 235.782 5.98755   1
 -18   1  10 11.8062 6.88217  -2
  13   1  10 11.8062 6.88217   1
  13   1  10 22.7762 1.91503   1
  13   1  10 4.89032 1.33032   2
 -19   1  10 10.8960 3.58111  -2
  14   1  10 10.8960 3.58111   1
  14   1  10 7.77441 1.34614   1
  14   1  10 2.17459 1.00869   2
  15   1  10 14.3811 1.21531   1
  15   1  10 1.79828 1.00010   2
  16   1  10 57.4516 1.94345   1
  16   1  10 16.0528 1.73668   2
  17   1  10 3.55227 0.77705   1
  17   1  10 1.26756 0.90693   2
  18   1  10 16.5027 1.55471   2
  18   1  10 63.0273 1.84986   1
  19   1  10 83.1231 2.09668   1
  19   1  10 21.2032 1.72298   2
  20   1  10 40.0971 1.31828   1
  20   1  10 12.3651 1.76649   2
 -24   2  10 1.59978 0.61120   2
 -24   2  10 8.94006 1.84006   1
 -23   2  10 9.29109 0.88833   2
 -23   2  10 33.0558 2.66267   1
 -22   2  10 4.58595 0.61566   2
 -22   2  10 9.66105 1.86598   1
 -21   2  10 8.34078 1.81576   1
 -21   2  10 2.12692 0.64865   2
 -20   2  10 2.36078 0.76417   2
 -20   2  10 6.87262 1.62605   1
 -19   2  10 9.06144 1.06563   2
 -19   2  10 35.0797 2.20223   1
 -18   2  10 30.5829 2.17549   1
 -18   2  10 7.60245 1.01003   2
 -17   2  10 9.89710 1.27864   1
 -17   2  10 1.92100 0.78249   2
 -16   2  10 8.79769 1.16126   2
 -16   2  10 37.6285 1.95960   1
 -15   2  10 3.77933 1.20875   2
 -15   2  10 7.30215 1.25547   1
 -14   2  10 12.0922 1.33732   2
 -14   2  10 45.6135 1.75120   1
 -13   2  10 43.4428 1.75254   2
 -13   2  10 177.912 3.50228   1
 -12   2  10 3.07789 0.95624   2
 -12   2  10 12.7067 1.24140   1
 -11   2  10 26.2155 1.42558   1
 -11   2  10 8.15392 1.11928   2
 -10   2  10 2.06721 0.83453   1
 -10   2  10 1.56192 1.31077   2
  -9   2  10 133.627 2.82266   1
  -9   2  10 34.9476 1.49823   2
  -8   2  10 3.02228 0.94824   2
  -8   2  10 9.81919 1.04529   1
  -7   2  10 14.2731 1.16218   1
  -7   2  10 4.27445 1.04033   2
  -6   2  10 13.0901 1.17940   1
  -6   2  10 5.99145 0.98067   2
  -5   2  10 143.569 3.21853   1
  -5   2  10 38.6590 1.64171   2
  -4   2  10 11.0610 1.13542   2
  -4   2  10 36.7305 1.77458   1
  -3   2  10 269.597 5.21034   1
  -3   2  10 65.5962 1.79932   2
  -2   2  10 25.5002 1.61837   1
  -2   2  10 7.38747 0.97480   2
  -1   2  10 10.3754 1.27164   1
  -1   2  10 5.33905 0.97977   2
   0   2  10 49.9755 1.75820   2
   0   2  10 203.819 4.16987   1
   1   2  10 134.541 3.14143   1
   1   2  10 34.1291 1.40140   2
   2   2  10 22.4962 1.60312   1
   2   2  10 5.76210 0.86037   2
   3   2  10 8.78005 0.99069   2
   3   2  10 36.7949 1.66225   1
   4   2  10 38.1149 1.64294   1
   4   2  10 10.2540 0.99776   2
   5   2  10 539.520 8.85909   1
   5   2  10 126.162 2.65908   2
   6   2  10 5.88471 0.87291   2
   6   2  10 23.7568 1.74323   1
 -11   2  10 19.2134 6.10889  -2
   6   2  10 19.2134 6.10889   1
   7   2  10 26.7718 1.40874   2
 -12   2  10 92.2673 7.99356  -2
   7   2  10 92.2673 7.99356   1
   7   2  10 84.6063 2.45518   1
   8   2  10 14.4754 1.40828   1
   8   2  10 3.92231 0.88054   2
 -13   2  10 42.5495 6.55454  -2
   8   2  10 42.5495 6.55454   1
   9   2  10 7.43107 1.18840   1
   9   2  10 7.59844 1.33291   2
 -14   2  10 16.9743 6.22623  -2
   9   2  10 16.9743 6.22623   1
  10   2  10 239.822 5.32398   1
  10   2  10 60.9708 1.99644   2
 -15   2  10 269.567 13.5956  -2
  10   2  10 269.567 13.5956   1
  11   2  10 3.10113 1.06144   2
  11   2  10 2.88439 1.15843   1
 -16   2  10 24.0614 6.04332  -2
  11   2  10 24.0614 6.04332   1
  12   2  10 17.5168 1.47263   1
  12   2  10 6.32527 1.23879   2
 -17   2  10 36.6276 6.76767  -2
  12   2  10 36.6276 6.76767   1
  13   2  10 1.77092 0.94440   1
  13   2  10 -1.5892 1.05273   2
 -18   2  10 14.6122 5.93251  -2
  13   2  10 14.6122 5.93251   1
  14   2  10 28.7232 2.01888   2
  14   2  10 108.424 2.88882   1
 -19   2  10 129.153 8.37263  -2
  14   2  10 129.153 8.37263   1
 -20   2  10 78.0945 6.85203  -2
  15   2  10 78.0945 6.85203   1
  15   2  10 58.1353 2.00270   1
  15   2  10 11.4630 1.99109   2
  16   2  10 4.93918 0.79121   1
  16   2  10 0.45779 1.29219   2
  17   2  10 56.3013 1.60929   1
  17   2  10 13.9394 1.76364   2
  18   2  10 11.4809 1.62086   2
  18   2  10 53.2792 1.50017   1
  19   2  10 2.20825 0.67691   1
  19   2  10 1.25732 0.93364   2
 -22   3  10 4.30924 0.83620   2
 -22   3  10 14.0856 2.09678   1
 -21   3  10 9.15514 1.74741   1
 -21   3  10 3.77788 0.64849   2
 -20   3  10 11.3155 0.95398   2
 -20   3  10 53.1930 2.13382   1
 -19   3  10 24.5020 1.14460   2
 -19   3  10 104.582 3.08841   1
 -18   3  10 135.249 3.77616   1
 -18   3  10 35.6635 1.22748   2
 -17   3  10 18.1012 1.46357   1
 -17   3  10 5.07300 1.01071   2
 -16   3  10 30.4316 1.69743   1
 -16   3  10 9.40227 1.30248   2
 -15   3  10 17.2278 1.31311   1
 -15   3  10 7.14462 1.11751   2
 -14   3  10 19.8428 1.57585   2
 -14   3  10 77.3554 2.03728   1
 -13   3  10 2.04067 0.83854   1
 -13   3  10 -0.1447 0.93134   2
 -12   3  10 96.3326 2.32328   1
 -12   3  10 26.0789 1.64396   2
 -11   3  10 8.90872 1.00050   1
 -11   3  10 3.04590 0.95795   2
 -10   3  10 3.42409 0.91205   1
 -10   3  10 1.62875 0.92153   2
  -9   3  10 11.7457 1.13071   1
  -9   3  10 2.81615 0.94404   2
  -8   3  10 39.2082 1.58310   1
  -8   3  10 10.0778 1.25012   2
  -7   3  10 14.8368 1.31497   2
  -7   3  10 42.2152 1.62889   1
  -6   3  10 0.53807 0.77075   2
  -6   3  10 4.23565 0.91470   1
  -5   3  10 79.7966 2.31730   1
  -5   3  10 17.5149 1.55043   2
  -4   3  10 18.5697 1.38716   2
  -4   3  10 63.0837 2.08769   1
  -3   3  10 2.43810 0.85134   2
  -3   3  10 4.00101 1.13055   1
  -2   3  10 28.9255 1.64083   1
  -2   3  10 10.5120 1.28239   2
  -1   3  10 450.340 8.15716   1
  -1   3  10 105.703 2.86006   2
   0   3  10 162.465 3.58826   1
   0   3  10 35.3474 1.57744   2
   1   3  10 7.12314 0.97201   2
   1   3  10 31.5807 1.71521   1
  -7   3  10 290.186 13.6313  -2
   2   3  10 290.186 13.6313   1
   2   3  10 63.2517 1.79937   2
   2   3  10 270.018 5.31518   1
   3   3  10 43.1573 1.89997   1
  -8   3  10 58.2366 5.81255  -2
   3   3  10 58.2366 5.81255   1
   3   3  10 12.7983 1.17896   2
   4   3  10 3.41648 0.91049   2
   4   3  10 4.76474 1.10050   1
  -9   3  10 5.82717 4.52286  -2
   4   3  10 5.82717 4.52286   1
   5   3  10 95.4045 2.85580   1
   5   3  10 21.9294 1.29819   2
 -10   3  10 94.6558 7.03886  -2
   5   3  10 94.6558 7.03886   1
   6   3  10 55.8483 2.19807   1
   6   3  10 15.7165 1.22598   2
 -11   3  10 63.1958 5.98090  -2
   6   3  10 63.1958 5.98090   1
   7   3  10 0.69609 0.84298   2
 -12   3  10 28.0157 4.56115  -2
   7   3  10 28.0157 4.56115   1
   7   3  10 1.79682 1.06115   1
   8   3  10 3.52328 1.05938   1
 -13   3  10 1.59614 4.25681  -2
   8   3  10 1.59614 4.25681   1
   8   3  10 1.04570 0.80956   2
   9   3  10 39.0363 1.96365   1
   9   3  10 9.27780 1.03881   2
 -14   3  10 46.2389 5.18705  -2
   9   3  10 46.2389 5.18705   1
  10   3  10 9.92740 1.06652   2
  10   3  10 40.0712 1.94040   1
 -15   3  10 36.7640 5.02976  -2
  10   3  10 36.7640 5.02976   1
  11   3  10 126.662 3.34325   1
 -16   3  10 145.273 8.07473  -2
  11   3  10 145.273 8.07473   1
  11   3  10 34.0540 1.63979   2
  12   3  10 8.11986 1.20091   1
  12   3  10 1.56145 0.85128   2
 -17   3  10 10.1372 3.68421  -2
  12   3  10 10.1372 3.68421   1
  13   3  10 35.3276 1.72064   2
  13   3  10 130.999 2.64487   1
  14   3  10 13.0515 1.44667   2
  14   3  10 40.2430 1.36690   1
  15   3  10 6.12894 1.06048   2
  15   3  10 19.6744 1.17186   1
  16   3  10 18.4553 1.23915   1
  16   3  10 4.64617 1.12088   2
  17   3  10 56.4999 1.68662   1
  17   3  10 14.4068 1.93895   2
  18   3  10 54.7552 1.81490   1
  18   3  10 14.8434 1.66153   2
 -20   4  10 18.6314 2.11614   1
 -20   4  10 5.13859 0.94304   2
 -19   4  10 35.0242 1.43252   1
 -19   4  10 7.88161 0.87763   2
 -18   4  10 1.71743 0.64160   2
 -18   4  10 0.72237 0.73686   1
 -17   4  10 8.30799 0.95018   2
 -17   4  10 30.9181 1.37911   1
 -16   4  10 -0.6171 0.77247   2
 -16   4  10 1.89428 0.74395   1
 -15   4  10 34.0346 1.51288   1
 -15   4  10 9.27029 1.09933   2
 -14   4  10 -0.0687 0.68770   1
 -14   4  10 -0.3745 0.82692   2
 -13   4  10 83.2351 2.18768   1
 -13   4  10 19.1430 1.41160   2
 -12   4  10 37.0047 1.56293   1
 -12   4  10 10.2671 1.24754   2
 -11   4  10 2.26882 0.77722   1
 -11   4  10 -0.1476 1.02645   2
 -10   4  10 9.16822 1.07870   2
 -10   4  10 39.1083 1.53518   1
  -9   4  10 4.73443 0.82817   2
  -9   4  10 24.3220 1.41642   1
  -8   4  10 42.0238 1.60432   1
  -8   4  10 10.6841 1.16554   2
  -7   4  10 12.6152 1.17690   1
  -7   4  10 4.92882 1.17184   2
  -6   4  10 2.39634 1.03522   2
  -6   4  10 9.05740 1.48286   1
  -5   4  10 -0.1583 0.92917   2
  -5   4  10 3.98533 1.04175   1
  -4   4  10 18.9725 1.38962   2
  -4   4  10 65.1576 2.34836   1
  -3   4  10 20.4012 1.68433   1
  -3   4  10 11.1333 1.60607   2
  -2   4  10 85.1478 2.65654   1
  -2   4  10 26.4273 1.56280   2
  -1   4  10 5.57402 1.55174   2
  -1   4  10 24.4137 1.64305   1
   0   4  10 2.45564 0.88641   2
   0   4  10 9.57143 1.52020   1
  -5   4  10 6.33728 4.10010  -2
   0   4  10 6.33728 4.10010   1
   1   4  10 5.72573 0.88913   2
   1   4  10 22.9974 1.84828   1
  -6   4  10 29.8588 4.91832  -2
   1   4  10 29.8588 4.91832   1
   2   4  10 183.987 4.95977   1
  -7   4  10 198.790 10.1598  -2
   2   4  10 198.790 10.1598   1
   2   4  10 41.5435 1.53510   2
   3   4  10 8.84333 0.98295   2
   3   4  10 36.5291 1.88945   1
   4   4  10 9.53051 1.10945   1
   4   4  10 2.02105 0.76877   2
   5   4  10 39.9550 1.73121   1
   5   4  10 10.1552 1.06830   2
   6   4  10 2.48882 1.04368   1
   6   4  10 0.60547 0.72829   2
 -11   4  10 7.16730 4.05278  -2
   6   4  10 7.16730 4.05278   1
   7   4  10 38.6572 1.45940   2
 -12   4  10 176.858 9.23487  -2
   7   4  10 176.858 9.23487   1
   7   4  10 154.280 3.78994   1
   8   4  10 2.52260 0.71678   2
 -13   4  10 33.9963 4.33710  -2
   8   4  10 33.9963 4.33710   1
   8   4  10 10.7657 1.25146   1
   9   4  10 13.9460 1.12951   2
   9   4  10 62.8605 2.14582   1
 -14   4  10 59.0922 4.93003  -2
   9   4  10 59.0922 4.93003   1
  10   4  10 -0.4545 0.71628   2
 -15   4  10 10.6753 3.41492  -2
  10   4  10 10.6753 3.41492   1
  10   4  10 1.28580 0.97389   1
  11   4  10 -0.0279 0.66410   2
 -16   4  10 2.25318 2.99597  -2
  11   4  10 2.25318 2.99597   1
  11   4  10 0.41305 0.78741   1
  12   4  10 13.0018 1.12926   1
  12   4  10 3.47486 0.72109   2
 -17   4  10 18.6264 3.36487  -2
  12   4  10 18.6264 3.36487   1
  13   4  10 7.91251 0.90483   2
  13   4  10 21.7072 1.24612   1
  14   4  10 8.45340 1.05717   1
  14   4  10 2.36612 0.79746   2
  15   4  10 1.03136 0.81285   1
  15   4  10 0.02461 0.76263   2
 -16   5  10 12.7862 1.96695   1
 -16   5  10 1.78665 0.91725   2
 -15   5  10 23.4281 2.05577   2
 -15   5  10 91.2572 2.39044   1
 -14   5  10 54.3540 1.71958   1
 -14   5  10 9.85954 1.96981   2
 -13   5  10 4.28844 0.83253   2
 -13   5  10 16.0909 1.12881   1
 -12   5  10 1.32149 0.59931   1
 -12   5  10 -0.1996 0.73374   2
 -11   5  10 96.1912 2.40322   1
 -11   5  10 26.8958 1.48096   2
 -10   5  10 5.38867 0.95136   2
 -10   5  10 21.5478 1.20708   1
  -9   5  10 0.33404 0.80305   2
  -9   5  10 0.49316 0.64521   1
  -8   5  10 2.14823 0.85162   2
  -8   5  10 9.21570 0.88198   1
  -7   5  10 20.9058 1.21158   1
  -7   5  10 4.52771 1.10063   2
  -6   5  10 1.99166 0.71463   1
  -6   5  10 -0.6128 0.93604   2
  -5   5  10 16.4239 1.23673   1
  -5   5  10 3.80177 1.05151   2
  -4   5  10 48.5568 1.65676   1
  -4   5  10 9.38896 1.49410   2
  -3   5  10 14.0155 1.23390   1
  -3   5  10 4.81094 1.13409   2
  -2   5  10 30.4117 1.59896   1
  -2   5  10 9.07360 1.07105   2
  -4   5  10 12.8728 3.28108  -2
  -1   5  10 12.8728 3.28108   1
  -1   5  10 1.35752 1.10620   1
  -1   5  10 1.12051 0.72008   2
   0   5  10 54.3471 2.65615   1
   0   5  10 14.7889 1.10845   2
  -5   5  10 59.7873 4.83562  -2
   0   5  10 59.7873 4.83562   1
   1   5  10 0.20738 0.61046   2
   1   5  10 0.77322 1.04465   1
  -6   5  10 3.33760 3.35561  -2
   1   5  10 3.33760 3.35561   1
   2   5  10 45.8676 2.45652   1
   2   5  10 11.8426 1.02798   2
  -7   5  10 58.2793 4.70156  -2
   2   5  10 58.2793 4.70156   1
   3   5  10 36.4137 1.64116   1
   3   5  10 9.56442 1.03084   2
   4   5  10 1.26127 0.92949   1
   4   5  10 0.91313 0.62883   2
   5   5  10 2.81864 0.64282   2
 -10   5  10 6.60547 3.30172  -2
   5   5  10 6.60547 3.30172   1
   5   5  10 16.1011 1.89390   1
   6   5  10 7.62768 0.95484   2
   6   5  10 20.5825 1.52223   1
 -11   5  10 47.4667 3.99783  -2
   6   5  10 47.4667 3.99783   1
 -12   5  10 79.2744 5.09223  -2
   7   5  10 79.2744 5.09223   1
   7   5  10 68.2586 2.28620   1
   7   5  10 17.4829 1.05280   2
   8   5  10 18.0262 1.45509   1
 -13   5  10 21.1284 2.96636  -2
   8   5  10 21.1284 2.96636   1
   8   5  10 3.14276 0.65278   2
   9   5  10 1.46374 0.55203   2
   9   5  10 0.35138 1.00170   1
 -14   5  10 16.3115 2.74668  -2
   9   5  10 16.3115 2.74668   1
  10   5  10 6.49865 1.90356   1
  10   5  10 1.25095 0.54986   2
  11   5  10 1.46062 0.54281   2
  11   5  10 0.50122 1.10724   1
  -7   6  10 4.20143 0.73163   1
  -6   6  10 5.79464 1.00744   1
  -6   6  10 1.04090 1.17918   2
   1   6  10 12.3461 3.17202  -2
  -6   6  10 12.3461 3.17202   1
  -5   6  10 16.2717 1.33681   1
  -5   6  10 8.58796 1.95651   2
   0   6  10 21.3444 3.18504  -2
  -5   6  10 21.3444 3.18504   1
  -1   6  10 11.0954 2.84230  -2
  -4   6  10 11.0954 2.84230   1
  -4   6  10 3.71818 0.85179   1
  -4   6  10 1.42483 0.85900   2
  -2   6  10 5.80443 2.83138  -2
  -3   6  10 5.80443 2.83138   1
  -3   6  10 9.95879 1.25797   1
  -3   6  10 5.04690 1.02388   2
  -2   6  10 0.66972 0.80080   2
  -2   6  10 0.77356 0.84734   1
  -3   6  10 4.43185 2.83035  -2
  -2   6  10 4.43185 2.83035   1
  -1   6  10 3.02725 0.95493   2
  -1   6  10 1.58951 0.91716   1
  -4   6  10 2.64413 2.74994  -2
  -1   6  10 2.64413 2.74994   1
   0   6  10 7.57334 0.97022   2
   0   6  10 26.3627 1.61598   1
  -5   6  10 28.5427 3.15483  -2
   0   6  10 28.5427 3.15483   1
   1   6  10 21.0644 1.66105   1
   1   6  10 6.51945 1.60536   2
  -6   6  10 28.0758 3.25689  -2
   1   6  10 28.0758 3.25689   1
  -7   6  10 13.4394 2.80513  -2
   2   6  10 13.4394 2.80513   1
   2   6  10 3.19233 0.65978   2
   3   6  10 1.85098 0.58681   2
   3   6  10 7.74461 1.97030   1
 -24   0  11 -0.4701 3.12597   1
 -23   0  11 2.74210 3.41137   1
 -22   0  11 -0.2354 2.95168   1
 -21   0  11 3.13558 2.85430   1
 -20   0  11 1.34203 2.81262   1
 -19   0  11 2.28187 2.61925   1
 -18   0  11 3.58252 2.73928   1
 -17   0  11 1.46708 2.80087   1
 -16   0  11 -1.6701 2.65977   1
 -15   0  11 2.01313 3.32628   1
 -14   0  11 -0.1207 2.93372   1
 -13   0  11 0.02663 2.54922   1
 -12   0  11 1.14813 2.50585   1
 -11   0  11 -1.5992 2.28824   1
 -10   0  11 2.56778 2.61869   1
  -9   0  11 1.87835 2.23590   1
  -8   0  11 -0.0113 2.17411   1
  -7   0  11 -0.9604 2.08519   1
  -6   0  11 -0.5499 2.04458   1
  -5   0  11 0.79180 2.01542   1
  -4   0  11 -0.5681 2.09747   1
  -3   0  11 -2.7928 2.11024   1
  -2   0  11 0.11952 2.34960   1
  -1   0  11 1.48998 2.17305   1
   0   0  11 -0.8540 2.42664   1
   1   0  11 2.13995 2.56713   1
   2   0  11 4.75972 2.66653   1
   3   0  11 0.42186 2.51698   1
   4   0  11 1.20794 2.76465   1
   5   0  11 1.58564 2.68540   1
   6   0  11 -0.4971 2.42179   1
   7   0  11 2.90564 2.52018   1
   8   0  11 1.99357 2.45367   1
   9   0  11 0.03949 2.35037   1
  10   0  11 0.03478 2.41581   1
  11   0  11 2.04481 2.23875   1
  12   0  11 1.66077 2.39001   1
  13   0  11 2.00608 2.41757   1
  14   0  11 3.15779 2.32369   1
  15   0  11 0.06901 2.02303   1
  16   0  11 0.76480 1.87873   1
  17   0  11 -1.2138 1.69719   1
  18   0  11 -0.9522 1.59564   1
  19   0  11 0.56091 1.56365   1
  20   0  11 0.00738 1.50575   1
  19   1  11 34.6562 3.20083  -2
 -24   1  11 34.6562 3.20083   1
  18   1  11 26.8858 3.11098  -2
 -23   1  11 26.8858 3.11098   1
  17   1  11 22.9540 2.20011  -2
 -22   1  11 22.9540 2.20011   1
  16   1  11 78.8688 3.17295  -2
 -21   1  11 78.8688 3.17295   1
  15   1  11 127.367 3.61381  -2
 -20   1  11 127.367 3.61381   1
  14   1  11 33.1876 2.29909  -2
 -19   1  11 33.1876 2.29909   1
  13   1  11 69.2462 3.15568  -2
 -18   1  11 69.2462 3.15568   1
  12   1  11 125.850 4.93898  -2
 -17   1  11 125.850 4.93898   1
  11   1  11 21.9024 2.33024  -2
 -16   1  11 21.9024 2.33024   1
  10   1  11 19.4953 2.10037  -2
 -15   1  11 19.4953 2.10037   1
   9   1  11 219.500 5.95988  -2
 -14   1  11 219.500 5.95988   1
   8   1  11 97.5612 3.44545  -2
 -13   1  11 97.5612 3.44545   1
   7   1  11 42.6176 2.44882  -2
 -12   1  11 42.6176 2.44882   1
   6   1  11 144.658 3.83484  -2
 -11   1  11 144.658 3.83484   1
   5   1  11 357.030 6.86464  -2
 -10   1  11 357.030 6.86464   1
   4   1  11 73.5208 2.39104  -2
  -9   1  11 73.5208 2.39104   1
   3   1  11 220.866 4.60597  -2
  -8   1  11 220.866 4.60597   1
   2   1  11 113.082 3.00517  -2
  -7   1  11 113.082 3.00517   1
   1   1  11 8.93397 1.48075  -2
  -6   1  11 8.93397 1.48075   1
   0   1  11 320.925 5.23170  -2
  -5   1  11 320.925 5.23170   1
  -1   1  11 47.8394 1.89701  -2
  -4   1  11 47.8394 1.89701   1
  -2   1  11 261.669 4.80167  -2
  -3   1  11 261.669 4.80167   1
  -3   1  11 175.472 3.76633  -2
  -2   1  11 175.472 3.76633   1
  -4   1  11 150.578 3.38719  -2
  -1   1  11 150.578 3.38719   1
  -5   1  11 86.3035 2.76642  -2
   0   1  11 86.3035 2.76642   1
  -6   1  11 5.66070 2.00587  -2
   1   1  11 5.66070 2.00587   1
  -7   1  11 33.1496 2.13143  -2
   2   1  11 33.1496 2.13143   1
  -8   1  11 189.144 4.41444  -2
   3   1  11 189.144 4.41444   1
  -9   1  11 60.0730 2.43860  -2
   4   1  11 60.0730 2.43860   1
 -10   1  11 134.501 3.22304  -2
   5   1  11 134.501 3.22304   1
 -11   1  11 59.4619 2.23251  -2
   6   1  11 59.4619 2.23251   1
 -12   1  11 20.3672 1.80714  -2
   7   1  11 20.3672 1.80714   1
 -13   1  11 225.230 4.58238  -2
   8   1  11 225.230 4.58238   1
 -14   1  11 59.6001 2.31535  -2
   9   1  11 59.6001 2.31535   1
 -15   1  11 66.6953 2.47320  -2
  10   1  11 66.6953 2.47320   1
 -16   1  11 7.66727 1.66130  -2
  11   1  11 7.66727 1.66130   1
 -17   1  11 261.268 5.65364  -2
  12   1  11 261.268 5.65364   1
 -18   1  11 239.237 5.23707  -2
  13   1  11 239.237 5.23707   1
 -19   1  11 39.1584 1.93804  -2
  14   1  11 39.1584 1.93804   1
 -20   1  11 288.815 5.97634  -2
  15   1  11 288.815 5.97634   1
 -21   1  11 30.8272 1.57044  -2
  16   1  11 30.8272 1.57044   1
 -22   1  11 67.5221 2.04327  -2
  17   1  11 67.5221 2.04327   1
 -23   1  11 9.84093 1.13966  -2
  18   1  11 9.84093 1.13966   1
 -24   1  11 14.5493 1.13064  -2
  19   1  11 14.5493 1.13064   1
  18   2  11 4.15361 2.13336  -2
 -23   2  11 4.15361 2.13336   1
  17   2  11 1.96994 2.13720  -2
 -22   2  11 1.96994 2.13720   1
  16   2  11 32.5495 2.54620  -2
 -21   2  11 32.5495 2.54620   1
  15   2  11 82.4265 3.69798  -2
 -20   2  11 82.4265 3.69798   1
  14   2  11 11.8949 2.49827  -2
 -19   2  11 11.8949 2.49827   1
  13   2  11 78.4792 3.25011  -2
 -18   2  11 78.4792 3.25011   1
  12   2  11 13.2608 1.90716  -2
 -17   2  11 13.2608 1.90716   1
  11   2  11 12.1926 1.88657  -2
 -16   2  11 12.1926 1.88657   1
  10   2  11 77.3451 2.72184  -2
 -15   2  11 77.3451 2.72184   1
   9   2  11 13.7118 1.79773  -2
 -14   2  11 13.7118 1.79773   1
   8   2  11 399.411 8.35788  -2
 -13   2  11 399.411 8.35788   1
   7   2  11 661.176 10.7473  -2
 -12   2  11 661.176 10.7473   1
   6   2  11 84.8437 2.26943  -2
 -11   2  11 84.8437 2.26943   1
   5   2  11 64.8920 2.04081  -2
 -10   2  11 64.8920 2.04081   1
   4   2  11 350.630 6.07290  -2
  -9   2  11 350.630 6.07290   1
   3   2  11 333.961 5.81578  -2
  -8   2  11 333.961 5.81578   1
   2   2  11 28.4169 1.55389  -2
  -7   2  11 28.4169 1.55389   1
   1   2  11 10.5624 1.50341  -2
  -6   2  11 10.5624 1.50341   1
   0   2  11 74.1175 2.15344  -2
  -5   2  11 74.1175 2.15344   1
  -1   2  11 8.41045 1.42704  -2
  -4   2  11 8.41045 1.42704   1
  -2   2  11 108.793 2.84001  -2
  -3   2  11 108.793 2.84001   1
  -3   2  11 43.2505 2.16045  -2
  -2   2  11 43.2505 2.16045   1
  -4   2  11 8.72487 2.35931  -2
  -1   2  11 8.72487 2.35931   1
  -5   2  11 32.9947 2.11759  -2
   0   2  11 32.9947 2.11759   1
  -6   2  11 19.5952 1.94230  -2
   1   2  11 19.5952 1.94230   1
  -7   2  11 75.6528 2.69465  -2
   2   2  11 75.6528 2.69465   1
  -8   2  11 154.145 3.59390  -2
   3   2  11 154.145 3.59390   1
  -9   2  11 153.445 3.95389  -2
   4   2  11 153.445 3.95389   1
 -10   2  11 252.147 5.12588  -2
   5   2  11 252.147 5.12588   1
 -11   2  11 233.582 5.33496  -2
   6   2  11 233.582 5.33496   1
 -12   2  11 188.189 4.45378  -2
   7   2  11 188.189 4.45378   1
 -13   2  11 115.435 3.22135  -2
   8   2  11 115.435 3.22135   1
 -14   2  11 23.1576 1.86599  -2
   9   2  11 23.1576 1.86599   1
 -15   2  11 106.614 2.87904  -2
  10   2  11 106.614 2.87904   1
 -16   2  11 46.8626 2.08360  -2
  11   2  11 46.8626 2.08360   1
 -17   2  11 11.9463 1.62129  -2
  12   2  11 11.9463 1.62129   1
 -18   2  11 54.2233 1.95910  -2
  13   2  11 54.2233 1.95910   1
 -19   2  11 12.1833 1.39343  -2
  14   2  11 12.1833 1.39343   1
 -20   2  11 23.5094 1.40639  -2
  15   2  11 23.5094 1.40639   1
 -21   2  11 52.4435 1.69826  -2
  16   2  11 52.4435 1.69826   1
 -22   2  11 6.14598 1.15741  -2
  17   2  11 6.14598 1.15741   1
 -23   2  11 0.48991 1.09988  -2
  18   2  11 0.48991 1.09988   1
 -22   3  11 0.21941 1.05386   1
 -22   3  11 0.53297 0.69678   2
  16   3  11 5.19407 2.14508  -2
 -21   3  11 5.19407 2.14508   1
  15   3  11 16.4908 2.15760  -2
 -20   3  11 16.4908 2.15760   1
  14   3  11 4.23473 2.10463  -2
 -19   3  11 4.23473 2.10463   1
  13   3  11 23.3599 1.86922  -2
 -18   3  11 23.3599 1.86922   1
  12   3  11 87.2184 2.94587  -2
 -17   3  11 87.2184 2.94587   1
  11   3  11 31.8994 1.84043  -2
 -16   3  11 31.8994 1.84043   1
  10   3  11 84.7597 2.44571  -2
 -15   3  11 84.7597 2.44571   1
   9   3  11 93.0668 2.54854  -2
 -14   3  11 93.0668 2.54854   1
   8   3  11 31.0988 1.63412  -2
 -13   3  11 31.0988 1.63412   1
   7   3  11 53.6740 1.90987  -2
 -12   3  11 53.6740 1.90987   1
   6   3  11 43.0405 1.70886  -2
 -11   3  11 43.0405 1.70886   1
   5   3  11 117.930 2.69862  -2
 -10   3  11 117.930 2.69862   1
   4   3  11 105.297 2.55249  -2
  -9   3  11 105.297 2.55249   1
   3   3  11 90.8231 2.38001  -2
  -8   3  11 90.8231 2.38001   1
   2   3  11 50.5434 1.89177  -2
  -7   3  11 50.5434 1.89177   1
   1   3  11 74.9667 2.16170  -2
  -6   3  11 74.9667 2.16170   1
   0   3  11 467.185 7.80476  -2
  -5   3  11 467.185 7.80476   1
  -1   3  11 68.4845 2.50014  -2
  -4   3  11 68.4845 2.50014   1
  -2   3  11 427.075 8.72911  -2
  -3   3  11 427.075 8.72911   1
  -3   3  11 147.656 3.72349  -2
  -2   3  11 147.656 3.72349   1
  -4   3  11 63.1342 2.41587  -2
  -1   3  11 63.1342 2.41587   1
  -5   3  11 1752.00 32.7924  -2
   0   3  11 1752.00 32.7924   1
  -6   3  11 165.334 4.14808  -2
   1   3  11 165.334 4.14808   1
  -7   3  11 120.009 3.38277  -2
   2   3  11 120.009 3.38277   1
  -8   3  11 82.9944 2.83946  -2
   3   3  11 82.9944 2.83946   1
  -9   3  11 214.679 5.76957  -2
   4   3  11 214.679 5.76957   1
 -10   3  11 106.788 3.24594  -2
   5   3  11 106.788 3.24594   1
 -11   3  11 125.239 3.53697  -2
   6   3  11 125.239 3.53697   1
 -12   3  11 23.7363 1.91079  -2
   7   3  11 23.7363 1.91079   1
 -13   3  11 98.5777 3.02088  -2
   8   3  11 98.5777 3.02088   1
 -14   3  11 36.4576 1.97694  -2
   9   3  11 36.4576 1.97694   1
 -15   3  11 65.0162 2.36058  -2
  10   3  11 65.0162 2.36058   1
 -16   3  11 15.7605 1.57638  -2
  11   3  11 15.7605 1.57638   1
 -17   3  11 62.6303 2.15643  -2
  12   3  11 62.6303 2.15643   1
 -18   3  11 34.5679 1.70988  -2
  13   3  11 34.5679 1.70988   1
 -19   3  11 14.8704 1.68250  -2
  14   3  11 14.8704 1.68250   1
 -20   3  11 29.8810 1.51282  -2
  15   3  11 29.8810 1.51282   1
 -21   3  11 -1.2259 1.46654  -2
  16   3  11 -1.2259 1.46654   1
  14   4  11 3.84446 1.54789  -2
 -19   4  11 3.84446 1.54789   1
  13   4  11 22.7776 2.36849  -2
 -18   4  11 22.7776 2.36849   1
  12   4  11 5.18178 1.23702  -2
 -17   4  11 5.18178 1.23702   1
  11   4  11 23.3661 1.42538  -2
 -16   4  11 23.3661 1.42538   1
  10   4  11 31.3324 1.57652  -2
 -15   4  11 31.3324 1.57652   1
   9   4  11 39.7750 1.74909  -2
 -14   4  11 39.7750 1.74909   1
   8   4  11 54.8164 2.02594  -2
 -13   4  11 54.8164 2.02594   1
   7   4  11 86.0222 2.19773  -2
 -12   4  11 86.0222 2.19773   1
   6   4  11 46.7255 1.71305  -2
 -11   4  11 46.7255 1.71305   1
   5   4  11 17.6745 1.41992  -2
 -10   4  11 17.6745 1.41992   1
   4   4  11 4.95563 1.34380  -2
  -9   4  11 4.95563 1.34380   1
   3   4  11 184.302 3.63500  -2
  -8   4  11 184.302 3.63500   1
   2   4  11 163.885 3.64023  -2
  -7   4  11 163.885 3.64023   1
   1   4  11 13.9067 1.52086  -2
  -6   4  11 13.9067 1.52086   1
   0   4  11 9.32162 1.52175  -2
  -5   4  11 9.32162 1.52175   1
  -1   4  11 8.97113 1.62601  -2
  -4   4  11 8.97113 1.62601   1
  -2   4  11 109.560 3.09146  -2
  -3   4  11 109.560 3.09146   1
  -3   4  11 52.3628 2.24056  -2
  -2   4  11 52.3628 2.24056   1
  -4   4  11 15.3613 1.78631  -2
  -1   4  11 15.3613 1.78631   1
  -5   4  11 12.7635 1.76864  -2
   0   4  11 12.7635 1.76864   1
  -6   4  11 56.5828 2.40846  -2
   1   4  11 56.5828 2.40846   1
  -7   4  11 77.8641 2.93581  -2
   2   4  11 77.8641 2.93581   1
  -8   4  11 49.1309 2.47480  -2
   3   4  11 49.1309 2.47480   1
  -9   4  11 6.90529 1.81720  -2
   4   4  11 6.90529 1.81720   1
 -10   4  11 30.8218 2.18901  -2
   5   4  11 30.8218 2.18901   1
 -11   4  11 134.952 3.92633  -2
   6   4  11 134.952 3.92633   1
 -12   4  11 66.4255 2.55609  -2
   7   4  11 66.4255 2.55609   1
 -13   4  11 14.7570 1.49870  -2
   8   4  11 14.7570 1.49870   1
 -14   4  11 57.9566 2.04417  -2
   9   4  11 57.9566 2.04417   1
 -15   4  11 81.0410 2.34238  -2
  10   4  11 81.0410 2.34238   1
 -16   4  11 32.3076 1.60195  -2
  11   4  11 32.3076 1.60195   1
 -17   4  11 2.19194 1.18629  -2
  12   4  11 2.19194 1.18629   1
 -18   4  11 5.47488 1.26915  -2
  13   4  11 5.47488 1.26915   1
 -19   4  11 10.0940 1.65416  -2
  14   4  11 10.0940 1.65416   1
   9   5  11 125.320 3.11592  -2
 -14   5  11 125.320 3.11592   1
   8   5  11 27.8502 1.34255  -2
 -13   5  11 27.8502 1.34255   1
   7   5  11 7.20275 1.10904  -2
 -12   5  11 7.20275 1.10904   1
   6   5  11 1.21131 1.15017  -2
 -11   5  11 1.21131 1.15017   1
   5   5  11 12.5828 1.15191  -2
 -10   5  11 12.5828 1.15191   1
   4   5  11 156.056 3.50375  -2
  -9   5  11 156.056 3.50375   1
   3   5  11 43.2683 1.63317  -2
  -8   5  11 43.2683 1.63317   1
   2   5  11 13.8990 1.19499  -2
  -7   5  11 13.8990 1.19499   1
   1   5  11 16.7545 1.24804  -2
  -6   5  11 16.7545 1.24804   1
   0   5  11 29.2878 1.40439  -2
  -5   5  11 29.2878 1.40439   1
  -1   5  11 82.0181 2.15153  -2
  -4   5  11 82.0181 2.15153   1
  -2   5  11 4.15044 1.22356  -2
  -3   5  11 4.15044 1.22356   1
  -3   5  11 8.52789 1.38163  -2
  -2   5  11 8.52789 1.38163   1
  -4   5  11 50.9703 2.15977  -2
  -1   5  11 50.9703 2.15977   1
  -5   5  11 32.8209 1.79290  -2
   0   5  11 32.8209 1.79290   1
  -6   5  11 11.7268 1.46832  -2
   1   5  11 11.7268 1.46832   1
  -7   5  11 8.53488 1.47899  -2
   2   5  11 8.53488 1.47899   1
  -8   5  11 11.7920 1.50164  -2
   3   5  11 11.7920 1.50164   1
  -9   5  11 217.141 5.31576  -2
   4   5  11 217.141 5.31576   1
 -10   5  11 19.2523 1.56901  -2
   5   5  11 19.2523 1.56901   1
 -11   5  11 9.25855 1.40969  -2
   6   5  11 9.25855 1.40969   1
 -12   5  11 9.86052 1.39527  -2
   7   5  11 9.86052 1.39527   1
 -13   5  11 25.5906 1.61714  -2
   8   5  11 25.5906 1.61714   1
 -14   5  11 75.3825 2.79213  -2
   9   5  11 75.3825 2.79213   1
 -24   0  12 0.22624 0.70588   2
 -23   0  12 30.4603 3.27755   1
 -23   0  12 6.72340 1.10514   2
 -22   0  12 0.29133 0.78197   2
 -22   0  12 7.80277 1.66080   1
 -21   0  12 27.4075 2.53987   1
 -21   0  12 5.48636 1.04087   2
 -20   0  12 104.737 4.22501   1
 -20   0  12 24.8753 1.84837   2
 -19   0  12 86.5782 3.76291   1
 -19   0  12 19.1310 1.83413   2
 -18   0  12 60.0457 3.34745   1
 -18   0  12 19.1482 1.94123   2
 -17   0  12 51.8043 2.35736   2
 -17   0  12 208.881 7.03352   1
 -16   0  12 2.63663 1.15939   2
 -16   0  12 -0.0909 1.46400   1
 -15   0  12 177.241 5.70775   2
 -15   0  12 696.719 20.1927   1
 -14   0  12 2.34211 1.20167   2
 -14   0  12 1.27340 1.61392   1
 -13   0  12 175.814 6.13434   1
 -13   0  12 43.7421 2.63647   2
 -12   0  12 39.2608 2.57902   2
 -12   0  12 163.943 5.77142   1
 -11   0  12 29.1075 2.50502   1
 -11   0  12 8.78180 1.86950   2
 -10   0  12 3.50956 1.45278   2
 -10   0  12 7.39812 2.56767   1
  -9   0  12 12.5094 2.02565   1
  -9   0  12 3.54442 1.59478   2
  -8   0  12 300.199 9.13032   1
  -8   0  12 72.5635 2.79402   2
  -7   0  12 40.1174 1.96292   2
  -7   0  12 156.916 5.37735   1
  -6   0  12 10.2185 1.59244   2
  -6   0  12 20.8869 2.10990   1
  -5   0  12 28.5596 2.07564   2
  -5   0  12 124.005 4.52734   1
  -4   0  12 4.50380 1.32441   2
  -4   0  12 9.57168 1.87275   1
  -3   0  12 233.372 6.02530   2
  -3   0  12 966.964 26.6963   1
  -2   0  12 142.903 4.26905   1
  -2   0  12 36.8666 2.40444   2
  -1   0  12 216.916 5.67562   1
  -1   0  12 55.0259 2.84172   2
   0   0  12 22.3426 2.08150   1
   0   0  12 8.84313 1.70582   2
   1   0  12 198.558 4.60850   1
   1   0  12 49.8756 2.72251   2
   2   0  12 166.085 4.02803   1
   2   0  12 43.8129 2.55553   2
   3   0  12 281.812 8.39476   1
   3   0  12 68.5598 3.21074   2
   4   0  12 129.696 4.74794   1
   4   0  12 29.2347 2.36642   2
   5   0  12 215.109 6.89329   2
   5   0  12 897.883 23.8429   1
   6   0  12 -0.0149 1.54117   1
   6   0  12 -0.3508 1.50917   2
   7   0  12 9.47504 1.90015   2
   7   0  12 36.6705 2.69731   1
   8   0  12 274.615 6.81576   1
   8   0  12 66.4660 3.53596   2
   9   0  12 27.8289 2.68642   2
   9   0  12 115.136 3.67721   1
  10   0  12 45.4560 2.87723   2
  10   0  12 219.297 5.68940   1
  11   0  12 89.8301 3.21979   1
  11   0  12 23.2972 2.47019   2
  12   0  12 48.1382 2.75561   1
  12   0  12 9.49300 1.77951   2
  13   0  12 41.1610 2.63315   2
  13   0  12 181.242 5.81504   1
  14   0  12 46.6316 2.43991   1
  14   0  12 11.3991 1.79675   2
  15   0  12 4.72091 1.36409   2
  15   0  12 17.7764 1.69502   1
  16   0  12 43.9302 2.17211   1
  16   0  12 15.6751 2.09080   2
  17   0  12 71.3810 2.68745   1
  17   0  12 19.8172 2.63765   2
  18   0  12 7.65424 1.24588   1
  18   0  12 -1.1112 1.62199   2
 -24   1  12 0.40772 0.50686   2
 -24   1  12 8.99570 2.31951   1
 -23   1  12 2.11532 0.56095   2
 -23   1  12 10.8625 2.18911   1
 -22   1  12 -1.4345 1.15650   1
 -22   1  12 1.25924 0.56703   2
 -21   1  12 0.57737 0.63078   2
 -21   1  12 0.90515 1.21309   1
 -20   1  12 0.18867 0.64013   2
 -20   1  12 2.56812 1.16488   1
 -19   1  12 17.6083 1.17203   2
 -19   1  12 71.2807 2.81856   1
 -18   1  12 36.3445 2.21179   1
 -18   1  12 12.7536 1.26477   2
 -17   1  12 9.88638 1.16952   2
 -17   1  12 37.7767 2.21720   1
 -16   1  12 14.1875 1.83442   1
 -16   1  12 4.58983 1.00313   2
 -15   1  12 132.750 4.02237   1
 -15   1  12 31.2864 1.64376   2
 -14   1  12 3.83062 0.92495   2
 -14   1  12 17.9612 1.85542   1
 -13   1  12 13.4935 1.20750   2
 -13   1  12 45.6469 2.30149   1
 -12   1  12 19.6086 1.38313   2
 -12   1  12 90.1797 2.77639   1
 -11   1  12 14.2757 1.20152   2
 -11   1  12 61.1380 2.13351   1
 -10   1  12 1.09934 0.90711   2
 -10   1  12 4.81931 0.99480   1
  -9   1  12 93.7930 2.53438   1
  -9   1  12 21.2118 1.44439   2
  -8   1  12 4.83240 0.95323   2
  -8   1  12 11.9282 1.31975   1
  -7   1  12 39.1330 1.75242   1
  -7   1  12 12.5793 1.41222   2
  -6   1  12 6.87902 0.95645   1
  -6   1  12 6.35874 1.05960   2
  -5   1  12 29.6223 1.43743   1
  -5   1  12 9.82118 1.25736   2
  -4   1  12 64.9804 1.83002   1
  -4   1  12 19.4436 1.47141   2
  -3   1  12 4.16085 0.99304   2
  -3   1  12 5.01476 0.99578   1
  -2   1  12 43.3864 1.51572   2
  -2   1  12 158.613 3.46337   1
  -1   1  12 3.75730 0.85572   2
  -1   1  12 3.63884 0.99791   1
   0   1  12 21.4161 1.32941   2
   0   1  12 71.2511 2.41423   1
   1   1  12 58.4382 2.06146   1
   1   1  12 16.3069 1.28738   2
   2   1  12 54.0292 1.98822   1
   2   1  12 13.3333 1.29506   2
   3   1  12 0.81635 0.88607   2
   3   1  12 1.95225 1.03479   1
   4   1  12 5.92307 1.00273   2
   4   1  12 17.2858 1.49459   1
   5   1  12 13.0040 1.29974   1
   5   1  12 4.50108 1.06979   2
   6   1  12 62.6129 1.97237   1
   6   1  12 17.5342 1.55434   2
   7   1  12 63.6824 2.09920   1
   7   1  12 19.0906 1.86383   2
   8   1  12 10.1722 1.58502   2
   8   1  12 9.56266 1.38819   1
   9   1  12 83.1382 2.58476   1
   9   1  12 23.5896 1.83812   2
  10   1  12 3.94760 1.19051   2
  10   1  12 4.50709 1.10233   1
  11   1  12 6.98562 1.32385   2
  11   1  12 5.21093 1.10705   1
  12   1  12 10.9294 1.27504   1
  12   1  12 7.28411 1.69792   2
  13   1  12 177.124 4.01440   1
  13   1  12 45.9933 2.18976   2
  14   1  12 12.1190 1.67000   2
  14   1  12 38.7700 1.53121   1
  15   1  12 1.56562 0.75208   1
  15   1  12 4.13686 1.11024   2
  16   1  12 42.8509 1.49388   1
  16   1  12 9.79133 1.70199   2
  17   1  12 1.46864 1.16853   2
  17   1  12 3.91411 0.65288   1
  18   1  12 54.4762 1.49981   1
  18   1  12 14.5898 1.96651   2
 -23   2  12 8.00610 1.87385   1
 -23   2  12 2.18330 0.67800   2
 -22   2  12 23.9784 1.05317   2
 -22   2  12 88.6226 4.44931   1
 -21   2  12 29.6714 2.12399   1
 -21   2  12 7.04650 0.85826   2
 -20   2  12 7.10323 1.56001   1
 -20   2  12 2.16344 0.63307   2
 -19   2  12 1.69830 0.66795   2
 -19   2  12 14.9940 2.26618   1
 -18   2  12 6.55784 1.49652   1
 -18   2  12 1.25066 0.70426   2
 -17   2  12 1.95191 0.74114   2
 -17   2  12 4.86391 1.29611   1
 -16   2  12 1.50395 0.83074   2
 -16   2  12 8.92381 1.27215   1
 -15   2  12 3.68313 0.92305   2
 -15   2  12 16.6086 1.86924   1
 -14   2  12 3.92625 0.97967   1
 -14   2  12 0.98017 1.00476   2
 -13   2  12 6.87475 1.13763   2
 -13   2  12 26.3628 1.58818   1
 -12   2  12 7.88785 1.14311   2
 -12   2  12 29.5421 1.48791   1
 -11   2  12 140.866 2.96247   1
 -11   2  12 37.8335 1.71195   2
 -10   2  12 1.07632 0.98268   2
 -10   2  12 1.20357 0.92442   1
  -9   2  12 4.25809 0.94122   1
  -9   2  12 0.80832 0.90265   2
  -8   2  12 92.4347 2.15963   1
  -8   2  12 23.3974 1.52728   2
  -7   2  12 62.8751 1.77521   1
  -7   2  12 17.2426 1.48349   2
  -6   2  12 19.6329 1.81009   2
  -6   2  12 68.9340 1.86690   1
  -5   2  12 7.48519 1.15677   2
  -5   2  12 15.3802 1.31945   1
  -4   2  12 6.82718 1.13369   2
  -4   2  12 25.7132 1.49908   1
  -3   2  12 74.4070 2.09162   2
  -3   2  12 330.309 6.34515   1
  -2   2  12 14.2648 1.69546   1
  -2   2  12 5.66371 0.86177   2
  -1   2  12 31.0534 1.55460   2
  -1   2  12 116.289 3.19164   1
   0   2  12 112.758 2.29972   2
   0   2  12 467.764 9.44428   1
   1   2  12 1.77574 0.75752   2
   1   2  12 8.39693 1.27433   1
   2   2  12 21.1973 1.27395   2
   2   2  12 97.6406 2.92666   1
   3   2  12 25.7814 1.37235   2
   3   2  12 106.891 2.79575   1
   4   2  12 156.076 3.53339   1
   4   2  12 40.8208 1.57365   2
   5   2  12 1.08644 1.04563   1
   5   2  12 1.37147 0.80657   2
   6   2  12 4.14831 1.06743   1
   6   2  12 1.72062 0.82753   2
   7   2  12 14.7192 1.38345   2
   7   2  12 54.0884 2.26576   1
   8   2  12 0.54552 1.10358   1
   8   2  12 -0.9191 0.81474   2
   9   2  12 12.5844 1.56229   2
   9   2  12 51.9703 2.19446   1
  10   2  12 10.7113 1.16748   1
  10   2  12 4.06936 1.06972   2
  11   2  12 54.6335 1.92201   1
  11   2  12 11.2310 1.68019   2
  12   2  12 0.24395 0.87016   1
  12   2  12 2.80563 1.11329   2
  13   2  12 -0.9239 1.16538   2
  13   2  12 1.54267 0.76262   1
  14   2  12 94.4724 2.23845   1
  14   2  12 23.7561 1.99724   2
  15   2  12 10.3139 0.91242   1
  15   2  12 5.31518 1.37154   2
  16   2  12 -0.3289 0.62454   1
  16   2  12 1.32710 0.95913   2
  17   2  12 46.8407 1.50382   1
  17   2  12 13.5361 1.63271   2
 -21   3  12 2.90358 0.77175   2
 -21   3  12 8.88204 1.81943   1
 -20   3  12 82.5325 2.76618   1
 -20   3  12 20.4891 1.01976   2
 -19   3  12 33.6339 1.24403   2
 -19   3  12 150.089 4.87419   1
 -18   3  12 2.81874 0.64334   2
 -18   3  12 6.05249 1.10652   1
 -17   3  12 0.03369 0.67391   2
 -17   3  12 4.98550 1.06222   1
 -16   3  12 58.4691 2.25674   1
 -16   3  12 14.8615 1.24074   2
 -15   3  12 20.9524 1.34776   2
 -15   3  12 86.6675 2.28698   1
 -14   3  12 1.51692 0.81317   2
 -14   3  12 3.67610 0.80450   1
 -13   3  12 11.3830 1.11578   2
 -13   3  12 55.9899 1.72229   1
 -12   3  12 10.3785 1.08477   1
 -12   3  12 0.37320 0.77449   2
 -11   3  12 9.37061 0.99853   2
 -11   3  12 29.6227 1.41660   1
 -10   3  12 22.0618 1.35462   1
 -10   3  12 5.64935 0.94300   2
  -9   3  12 72.6760 2.02441   1
  -9   3  12 15.2771 1.76024   2
  -8   3  12 2.72940 0.86576   1
  -8   3  12 0.79238 1.05857   2
  -7   3  12 133.795 2.87498   1
  -7   3  12 30.7941 1.69184   2
  -6   3  12 207.390 3.66587   1
  -6   3  12 56.8375 2.06224   2
  -5   3  12 4.01668 0.97636   1
  -5   3  12 4.31172 1.15511   2
  -4   3  12 25.6383 1.54668   1
  -4   3  12 11.9171 1.22070   2
  -3   3  12 48.8519 2.08596   1
  -3   3  12 13.0360 1.41411   2
  -2   3  12 54.2448 1.80661   2
  -2   3  12 228.661 5.15171   1
  -1   3  12 567.398 11.2689   1
  -1   3  12 130.397 2.96451   2
   0   3  12 14.4196 1.23894   2
   0   3  12 57.0009 2.26798   1
   1   3  12 7.70149 1.27427   1
   1   3  12 2.76956 0.77957   2
   2   3  12 31.5948 1.41006   2
   2   3  12 131.535 3.50202   1
   3   3  12 374.042 6.96098   1
   3   3  12 86.9434 2.10417   2
   4   3  12 0.77801 0.76081   2
   4   3  12 1.16356 0.95462   1
   5   3  12 2.65182 0.95907   1
   5   3  12 0.19690 0.73964   2
   6   3  12 47.8828 1.87461   1
   6   3  12 13.7259 1.20433   2
   7   3  12 1.04731 1.03405   1
   7   3  12 -0.6658 0.72909   2
   8   3  12 15.9151 1.19998   2
   8   3  12 66.2381 2.29594   1
   9   3  12 0.85288 0.84016   2
   9   3  12 2.96094 0.91742   1
  10   3  12 19.1357 1.44241   1
  10   3  12 6.87770 0.92116   2
  11   3  12 17.5952 1.40008   1
  11   3  12 7.40050 1.12154   2
  12   3  12 75.1258 2.12473   1
  12   3  12 16.7094 1.44042   2
  13   3  12 93.9843 2.36337   1
  13   3  12 26.8029 1.66075   2
  14   3  12 3.12207 0.68579   1
  14   3  12 2.25800 0.81468   2
  15   3  12 35.4984 1.48355   1
  15   3  12 8.76572 1.62690   2
 -18   4  12 0.42155 0.70817   2
 -18   4  12 1.64905 0.95645   1
 -17   4  12 26.1460 1.53591   1
 -17   4  12 4.61312 0.74664   2
 -16   4  12 34.8648 1.44433   1
 -16   4  12 8.44500 1.01084   2
 -15   4  12 5.66088 0.81299   1
 -15   4  12 1.98655 0.69392   2
 -14   4  12 0.38760 0.68844   2
 -14   4  12 1.36654 0.74573   1
 -13   4  12 4.93421 0.71587   1
 -13   4  12 2.22275 0.73799   2
 -12   4  12 2.77151 0.80501   2
 -12   4  12 13.0410 1.02101   1
 -11   4  12 1.68853 0.68485   1
 -11   4  12 0.84325 0.93307   2
 -10   4  12 15.4861 1.12268   1
 -10   4  12 5.92400 1.22140   2
  -9   4  12 1.69372 0.75445   1
  -9   4  12 1.23304 0.93882   2
  -8   4  12 21.1943 1.37661   1
  -8   4  12 5.34377 1.26662   2
  -7   4  12 1.29612 1.03411   2
  -7   4  12 6.27858 0.95115   1
  -6   4  12 0.36384 0.81891   1
  -6   4  12 0.28158 0.83864   2
  -5   4  12 24.4706 1.47915   1
  -5   4  12 9.61367 1.87644   2
  -4   4  12 7.39967 0.99080   1
  -4   4  12 1.33120 0.83815   2
  -3   4  12 7.71563 1.08994   1
  -3   4  12 2.78269 0.84581   2
  -2   4  12 0.97425 0.93382   1
  -2   4  12 1.66960 0.89255   2
  -1   4  12 24.2520 1.36420   2
  -1   4  12 94.8433 2.76693   1
   0   4  12 13.3809 1.51621   1
   0   4  12 1.31997 0.75250   2
   1   4  12 2.13789 0.74728   2
  -7   4  12 -1.2937 4.17623  -2
   1   4  12 -1.2937 4.17623   1
   1   4  12 9.74651 1.51368   1
   2   4  12 11.0902 1.69291   1
   2   4  12 1.43269 0.73472   2
  -8   4  12 14.1782 4.14533  -2
   2   4  12 14.1782 4.14533   1
   3   4  12 2.06815 0.68802   2
  -9   4  12 5.99401 3.88456  -2
   3   4  12 5.99401 3.88456   1
   3   4  12 6.12305 1.39163   1
   4   4  12 7.59513 0.87925   2
   4   4  12 29.5469 2.17692   1
 -10   4  12 37.8642 4.56448  -2
   4   4  12 37.8642 4.56448   1
   5   4  12 2.98056 0.68801   2
   5   4  12 8.62534 1.43174   1
   6   4  12 11.0905 1.48890   1
   6   4  12 4.19557 0.65810   2
   7   4  12 0.16355 0.85466   1
   7   4  12 1.42909 0.60849   2
   8   4  12 0.90235 0.60961   2
   8   4  12 6.64203 1.15305   1
   9   4  12 5.77091 0.86786   2
   9   4  12 18.6224 1.40032   1
  10   4  12 4.55556 0.83369   1
  10   4  12 1.01124 0.68250   2
  11   4  12 5.68728 1.01947   2
  11   4  12 24.3906 1.39853   1
  12   4  12 1.26664 0.82202   2
  12   4  12 8.10211 1.08012   1
 -13   5  12 9.66837 0.94026   1
 -13   5  12 2.88857 0.74713   2
 -12   5  12 2.02085 0.65010   2
 -12   5  12 1.53267 0.60056   1
 -11   5  12 27.1956 1.12576   1
 -11   5  12 7.46316 0.97399   2
 -10   5  12 8.05169 0.83277   1
 -10   5  12 1.69343 0.61725   2
  -9   5  12 13.8880 0.99420   1
  -9   5  12 2.53895 0.78863   2
  -8   5  12 1.48526 0.59731   1
  -8   5  12 0.05840 0.61358   2
  -7   5  12 17.3557 1.06060   1
  -7   5  12 5.28954 0.79290   2
  -6   5  12 22.7530 1.10865   1
  -6   5  12 7.06429 0.92894   2
  -5   5  12 34.3091 1.33708   1
  -5   5  12 8.63533 0.98854   2
  -4   5  12 6.22731 0.85121   1
  -4   5  12 1.38520 0.65032   2
  -3   5  12 0.88636 0.67196   1
  -3   5  12 0.85646 0.60421   2
  -2   5  12 5.67304 0.83941   2
  -2   5  12 28.2318 1.37666   1
  -1   5  12 32.4964 1.45626   1
  -1   5  12 9.78461 0.91813   2
   0   5  12 5.25080 0.72537   2
   0   5  12 22.4049 1.28037   1
   1   5  12 5.38687 0.83691   1
   1   5  12 1.63317 0.58012   2
   2   5  12 25.1287 1.29978   1
   2   5  12 8.92613 1.22438   2
   3   5  12 5.34477 0.70265   2
   3   5  12 23.8713 1.39807   1
   4   5  12 4.33426 0.65012   2
   4   5  12 15.3712 1.22133   1
   5   5  12 1.71632 0.53008   2
   5   5  12 10.2541 1.11823   1
   6   5  12 12.5896 1.35639   1
   6   5  12 3.02120 0.63965   2
   7   5  12 1.54712 0.55184   2
   7   5  12 8.72885 1.14408   1
 -21   0  13 -0.9376 2.82236   1
 -20   0  13 -0.5458 2.43990   1
 -19   0  13 0.05124 2.21583   1
 -18   0  13 -0.1690 2.17167   1
 -17   0  13 -0.5165 2.30776   1
 -16   0  13 0.83197 2.31017   1
 -15   0  13 1.68717 2.38480   1
 -14   0  13 -2.5340 2.36185   1
 -13   0  13 1.07116 2.33511   1
 -12   0  13 -0.7636 2.07705   1
 -11   0  13 2.08889 2.27389   1
 -10   0  13 0.10259 2.12772   1
  -9   0  13 -0.8925 2.12719   1
  -8   0  13 -0.3240 2.08495   1
  -7   0  13 -0.0706 2.01407   1
  -6   0  13 -0.2518 1.95610   1
  -5   0  13 1.61751 1.96282   1
  -4   0  13 -0.5774 1.96837   1
  -3   0  13 0.09194 1.97207   1
  -2   0  13 -0.7422 1.84385   1
  -1   0  13 1.23719 1.90755   1
   0   0  13 -0.1266 1.87117   1
   1   0  13 0.91115 1.87200   1
   2   0  13 -0.8362 1.80137   1
   3   0  13 0.18397 1.71996   1
   4   0  13 1.85036 1.67373   1
   5   0  13 0.31492 1.81085   1
   6   0  13 0.57821 1.80916   1
   7   0  13 1.75981 1.79075   1
   8   0  13 -0.8042 1.82513   1
   9   0  13 -0.9009 1.88553   1
  10   0  13 -2.1060 1.70237   1
  11   0  13 0.92083 2.24430   1
  12   0  13 -2.2711 1.75205   1
  13   0  13 1.07265 1.71876   1
  14   0  13 0.10627 1.50817   1
  15   0  13 0.76897 1.49633   1
  16   0  13 0.81020 1.39975   1
  17   0  13 0.71466 1.24188   1
  17   1  13 10.3915 2.83411  -2
 -23   1  13 10.3915 2.83411   1
  16   1  13 14.4674 2.70434  -2
 -22   1  13 14.4674 2.70434   1
  15   1  13 8.85771 2.06740  -2
 -21   1  13 8.85771 2.06740   1
  14   1  13 37.3317 2.26655  -2
 -20   1  13 37.3317 2.26655   1
  13   1  13 47.4256 2.34010  -2
 -19   1  13 47.4256 2.34010   1
  12   1  13 33.6188 2.11151  -2
 -18   1  13 33.6188 2.11151   1
  11   1  13 16.3390 1.93988  -2
 -17   1  13 16.3390 1.93988   1
  10   1  13 38.9404 2.31632  -2
 -16   1  13 38.9404 2.31632   1
   9   1  13 138.568 4.19188  -2
 -15   1  13 138.568 4.19188   1
   8   1  13 168.233 4.80511  -2
 -14   1  13 168.233 4.80511   1
   7   1  13 211.276 5.71011  -2
 -13   1  13 211.276 5.71011   1
   6   1  13 58.0048 2.55675  -2
 -12   1  13 58.0048 2.55675   1
   5   1  13 402.105 8.43444  -2
 -11   1  13 402.105 8.43444   1
   4   1  13 79.1790 2.64711  -2
 -10   1  13 79.1790 2.64711   1
   3   1  13 71.7477 2.29276  -2
  -9   1  13 71.7477 2.29276   1
   2   1  13 104.262 2.73996  -2
  -8   1  13 104.262 2.73996   1
   1   1  13 4.25859 1.38185  -2
  -7   1  13 4.25859 1.38185   1
   0   1  13 38.8914 1.71905  -2
  -6   1  13 38.8914 1.71905   1
  -1   1  13 37.0884 1.63240  -2
  -5   1  13 37.0884 1.63240   1
  -2   1  13 61.7889 1.92882  -2
  -4   1  13 61.7889 1.92882   1
  -3   1  13 34.0823 1.58666  -2
  -3   1  13 34.0823 1.58666   1
  -4   1  13 49.1348 1.89453  -2
  -2   1  13 49.1348 1.89453   1
  -5   1  13 11.7324 1.49701  -2
  -1   1  13 11.7324 1.49701   1
  -6   1  13 66.0369 2.32930  -2
   0   1  13 66.0369 2.32930   1
  -7   1  13 17.5754 1.56481  -2
   1   1  13 17.5754 1.56481   1
  -8   1  13 184.009 4.40479  -2
   2   1  13 184.009 4.40479   1
  -9   1  13 129.213 3.06155  -2
   3   1  13 129.213 3.06155   1
 -10   1  13 179.359 3.82211  -2
   4   1  13 179.359 3.82211   1
 -11   1  13 129.772 3.05871  -2
   5   1  13 129.772 3.05871   1
 -12   1  13 173.428 3.66884  -2
   6   1  13 173.428 3.66884   1
 -13   1  13 171.796 3.62665  -2
   7   1  13 171.796 3.62665   1
 -14   1  13 45.4306 1.81895  -2
   8   1  13 45.4306 1.81895   1
 -15   1  13 67.0320 2.25693  -2
   9   1  13 67.0320 2.25693   1
 -16   1  13 84.3856 2.50239  -2
  10   1  13 84.3856 2.50239   1
 -17   1  13 22.4918 1.56482  -2
  11   1  13 22.4918 1.56482   1
 -18   1  13 34.0817 1.46986  -2
  12   1  13 34.0817 1.46986   1
 -19   1  13 130.155 2.77477  -2
  13   1  13 130.155 2.77477   1
 -20   1  13 64.5438 1.91034  -2
  14   1  13 64.5438 1.91034   1
 -21   1  13 28.6426 1.28747  -2
  15   1  13 28.6426 1.28747   1
 -22   1  13 51.5360 1.53069  -2
  16   1  13 51.5360 1.53069   1
 -23   1  13 3.73736 0.84434  -2
  17   1  13 3.73736 0.84434   1
  16   2  13 4.75484 1.90761  -2
 -22   2  13 4.75484 1.90761   1
  15   2  13 27.2666 2.66339  -2
 -21   2  13 27.2666 2.66339   1
  14   2  13 79.4939 3.27364  -2
 -20   2  13 79.4939 3.27364   1
  13   2  13 5.27807 1.87257  -2
 -19   2  13 5.27807 1.87257   1
  12   2  13 12.3670 1.87872  -2
 -18   2  13 12.3670 1.87872   1
  11   2  13 14.0997 1.99701  -2
 -17   2  13 14.0997 1.99701   1
  10   2  13 34.9085 2.12265  -2
 -16   2  13 34.9085 2.12265   1
   9   2  13 31.7971 2.13840  -2
 -15   2  13 31.7971 2.13840   1
   8   2  13 13.7817 1.81541  -2
 -14   2  13 13.7817 1.81541   1
   7   2  13 87.2936 2.73665  -2
 -13   2  13 87.2936 2.73665   1
   6   2  13 131.414 3.42313  -2
 -12   2  13 131.414 3.42313   1
   5   2  13 81.1224 2.17550  -2
 -11   2  13 81.1224 2.17550   1
   4   2  13 184.321 3.60640  -2
 -10   2  13 184.321 3.60640   1
   3   2  13 65.0410 1.96062  -2
  -9   2  13 65.0410 1.96062   1
   2   2  13 113.273 2.41905  -2
  -8   2  13 113.273 2.41905   1
   1   2  13 61.6908 1.77909  -2
  -7   2  13 61.6908 1.77909   1
   0   2  13 0.37711 1.22355  -2
  -6   2  13 0.37711 1.22355   1
  -1   2  13 15.7591 1.29939  -2
  -5   2  13 15.7591 1.29939   1
  -2   2  13 17.7234 1.41069  -2
  -4   2  13 17.7234 1.41069   1
  -3   2  13 205.746 4.20411  -2
  -3   2  13 205.746 4.20411   1
  -4   2  13 7.36134 1.39373  -2
  -2   2  13 7.36134 1.39373   1
  -5   2  13 51.8621 1.92484  -2
  -1   2  13 51.8621 1.92484   1
  -6   2  13 2.53090 1.14769  -2
   0   2  13 2.53090 1.14769   1
  -7   2  13 38.1251 1.73554  -2
   1   2  13 38.1251 1.73554   1
  -8   2  13 370.846 7.65509  -2
   2   2  13 370.846 7.65509   1
  -9   2  13 22.1680 1.61417  -2
   3   2  13 22.1680 1.61417   1
 -10   2  13 349.499 6.49816  -2
   4   2  13 349.499 6.49816   1
 -11   2  13 268.174 5.17671  -2
   5   2  13 268.174 5.17671   1
 -12   2  13 36.8783 1.96748  -2
   6   2  13 36.8783 1.96748   1
 -13   2  13 63.6072 2.37582  -2
   7   2  13 63.6072 2.37582   1
 -14   2  13 13.2858 1.52865  -2
   8   2  13 13.2858 1.52865   1
 -15   2  13 78.7386 2.42189  -2
   9   2  13 78.7386 2.42189   1
 -16   2  13 34.0244 1.65426  -2
  10   2  13 34.0244 1.65426   1
 -17   2  13 49.4395 1.92239  -2
  11   2  13 49.4395 1.92239   1
 -18   2  13 32.7557 2.17182  -2
  12   2  13 32.7557 2.17182   1
 -19   2  13 0.95976 1.02845  -2
  13   2  13 0.95976 1.02845   1
 -20   2  13 60.0137 1.81399  -2
  14   2  13 60.0137 1.81399   1
 -21   2  13 19.5667 1.23250  -2
  15   2  13 19.5667 1.23250   1
 -22   2  13 7.69871 1.00513  -2
  16   2  13 7.69871 1.00513   1
  14   3  13 3.14587 1.90602  -2
 -20   3  13 3.14587 1.90602   1
  13   3  13 20.6459 1.73228  -2
 -19   3  13 20.6459 1.73228   1
  12   3  13 24.2998 2.04660  -2
 -18   3  13 24.2998 2.04660   1
  11   3  13 4.59111 1.44690  -2
 -17   3  13 4.59111 1.44690   1
  10   3  13 32.3777 1.73780  -2
 -16   3  13 32.3777 1.73780   1
   9   3  13 8.66643 1.34084  -2
 -15   3  13 8.66643 1.34084   1
   8   3  13 19.8687 1.58943  -2
 -14   3  13 19.8687 1.58943   1
   7   3  13 14.1242 1.32315  -2
 -13   3  13 14.1242 1.32315   1
   6   3  13 60.4061 1.78806  -2
 -12   3  13 60.4061 1.78806   1
   5   3  13 10.9156 1.22954  -2
 -11   3  13 10.9156 1.22954   1
   4   3  13 127.062 2.70127  -2
 -10   3  13 127.062 2.70127   1
   3   3  13 12.9652 1.29980  -2
  -9   3  13 12.9652 1.29980   1
   2   3  13 7.28196 1.22414  -2
  -8   3  13 7.28196 1.22414   1
   1   3  13 4.44241 1.26945  -2
  -7   3  13 4.44241 1.26945   1
   0   3  13 52.5977 1.79244  -2
  -6   3  13 52.5977 1.79244   1
  -1   3  13 97.2308 2.34879  -2
  -5   3  13 97.2308 2.34879   1
  -2   3  13 486.328 8.80817  -2
  -4   3  13 486.328 8.80817   1
  -3   3  13 29.7777 1.56413  -2
  -3   3  13 29.7777 1.56413   1
  -4   3  13 421.441 7.74006  -2
  -2   3  13 421.441 7.74006   1
  -5   3  13 94.1716 2.76386  -2
  -1   3  13 94.1716 2.76386   1
  -6   3  13 42.4241 1.96349  -2
   0   3  13 42.4241 1.96349   1
  -7   3  13 11.6218 1.46303  -2
   1   3  13 11.6218 1.46303   1
  -8   3  13 2.62888 1.32394  -2
   2   3  13 2.62888 1.32394   1
  -9   3  13 18.4730 1.59420  -2
   3   3  13 18.4730 1.59420   1
 -10   3  13 85.8081 2.94035  -2
   4   3  13 85.8081 2.94035   1
 -11   3  13 10.1744 1.54578  -2
   5   3  13 10.1744 1.54578   1
 -12   3  13 39.2442 2.02677  -2
   6   3  13 39.2442 2.02677   1
 -13   3  13 11.6494 1.32674  -2
   7   3  13 11.6494 1.32674   1
 -14   3  13 14.9620 1.35719  -2
   8   3  13 14.9620 1.35719   1
 -15   3  13 5.05212 1.13908  -2
   9   3  13 5.05212 1.13908   1
 -16   3  13 67.3412 1.99851  -2
  10   3  13 67.3412 1.99851   1
 -17   3  13 4.37725 1.07940  -2
  11   3  13 4.37725 1.07940   1
 -18   3  13 5.15207 1.12673  -2
  12   3  13 5.15207 1.12673   1
 -19   3  13 10.4789 1.06915  -2
  13   3  13 10.4789 1.06915   1
 -20   3  13 1.16936 1.00499  -2
  14   3  13 1.16936 1.00499   1
  11   4  13 6.69045 1.55535  -2
 -17   4  13 6.69045 1.55535   1
  10   4  13 70.2207 2.51022  -2
 -16   4  13 70.2207 2.51022   1
   9   4  13 106.046 2.81564  -2
 -15   4  13 106.046 2.81564   1
   8   4  13 8.96580 1.11223  -2
 -14   4  13 8.96580 1.11223   1
   7   4  13 61.9698 1.90725  -2
 -13   4  13 61.9698 1.90725   1
   6   4  13 2.66792 1.04550  -2
 -12   4  13 2.66792 1.04550   1
   5   4  13 82.4407 2.05429  -2
 -11   4  13 82.4407 2.05429   1
   4   4  13 7.19842 1.05446  -2
 -10   4  13 7.19842 1.05446   1
   3   4  13 40.1807 1.57198  -2
  -9   4  13 40.1807 1.57198   1
   2   4  13 46.3758 1.55897  -2
  -8   4  13 46.3758 1.55897   1
   1   4  13 14.7249 1.20463  -2
  -7   4  13 14.7249 1.20463   1
   0   4  13 49.8428 1.67116  -2
  -6   4  13 49.8428 1.67116   1
  -1   4  13 1.71328 1.11155  -2
  -5   4  13 1.71328 1.11155   1
  -2   4  13 48.5384 1.66912  -2
  -4   4  13 48.5384 1.66912   1
  -3   4  13 3.59966 1.07045  -2
  -3   4  13 3.59966 1.07045   1
  -4   4  13 154.958 3.28874  -2
  -2   4  13 154.958 3.28874   1
  -5   4  13 5.38238 1.04405  -2
  -1   4  13 5.38238 1.04405   1
  -6   4  13 12.2512 1.14074  -2
   0   4  13 12.2512 1.14074   1
  -7   4  13 50.9923 2.03699  -2
   1   4  13 50.9923 2.03699   1
  -8   4  13 14.6128 1.37301  -2
   2   4  13 14.6128 1.37301   1
  -9   4  13 11.0342 1.33512  -2
   3   4  13 11.0342 1.33512   1
 -10   4  13 4.53446 1.20456  -2
   4   4  13 4.53446 1.20456   1
 -11   4  13 42.1071 1.78664  -2
   5   4  13 42.1071 1.78664   1
 -12   4  13 8.25902 1.19633  -2
   6   4  13 8.25902 1.19633   1
 -13   4  13 70.3819 2.26030  -2
   7   4  13 70.3819 2.26030   1
 -14   4  13 12.1939 1.13447  -2
   8   4  13 12.1939 1.13447   1
 -15   4  13 64.5290 2.03756  -2
   9   4  13 64.5290 2.03756   1
 -16   4  13 70.5665 2.12192  -2
  10   4  13 70.5665 2.12192   1
 -17   4  13 4.41463 1.17546  -2
  11   4  13 4.41463 1.17546   1
   5   5  13 22.2996 1.11543  -2
 -11   5  13 22.2996 1.11543   1
   4   5  13 22.2934 1.12433  -2
 -10   5  13 22.2934 1.12433   1
   3   5  13 37.6651 1.23770  -2
  -9   5  13 37.6651 1.23770   1
   2   5  13 2.03887 0.77664  -2
  -8   5  13 2.03887 0.77664   1
   1   5  13 45.3276 1.41902  -2
  -7   5  13 45.3276 1.41902   1
   0   5  13 7.33659 0.88406  -2
  -6   5  13 7.33659 0.88406   1
  -1   5  13 3.26364 0.82248  -2
  -5   5  13 3.26364 0.82248   1
  -2   5  13 14.1145 0.99852  -2
  -4   5  13 14.1145 0.99852   1
  -3   5  13 -0.4024 0.85645  -2
  -3   5  13 -0.4024 0.85645   1
  -4   5  13 40.5864 1.44099  -2
  -2   5  13 40.5864 1.44099   1
  -5   5  13 5.77403 1.38132  -2
  -1   5  13 5.77403 1.38132   1
  -6   5  13 5.36232 0.93890  -2
   0   5  13 5.36232 0.93890   1
  -7   5  13 35.0763 1.33287  -2
   1   5  13 35.0763 1.33287   1
  -8   5  13 0.20706 0.84259  -2
   2   5  13 0.20706 0.84259   1
  -9   5  13 18.7305 1.12810  -2
   3   5  13 18.7305 1.12810   1
 -10   5  13 26.9246 1.24923  -2
   4   5  13 26.9246 1.24923   1
 -11   5  13 27.0263 1.26917  -2
   5   5  13 27.0263 1.26917   1
 -22   0  14 2.98220 0.79466   2
 -21   0  14 109.897 6.35821   1
 -21   0  14 28.6147 1.60133   2
 -20   0  14 5.10023 1.08777   2
 -20   0  14 20.1183 3.37553   1
 -19   0  14 39.7040 2.05342   2
 -19   0  14 165.209 7.94701   1
 -18   0  14 23.9263 1.82131   2
 -18   0  14 96.8344 5.54361   1
 -17   0  14 11.4282 2.70233   1
 -17   0  14 3.99835 0.98544   2
 -16   0  14 4.78563 1.06198   2
 -16   0  14 10.6608 2.74532   1
 -15   0  14 3.76773 1.10300   2
 -15   0  14 9.96817 2.66450   1
 -14   0  14 10.3288 1.93578   2
 -14   0  14 30.3043 2.65444   1
 -13   0  14 0.43038 1.10060   2
 -13   0  14 1.52346 1.43203   1
 -12   0  14 18.2524 1.78752   2
 -12   0  14 71.6813 3.39393   1
 -11   0  14 190.719 6.33733   1
 -11   0  14 46.3407 2.23003   2
 -10   0  14 3.03443 1.46322   1
 -10   0  14 1.89924 1.18404   2
  -9   0  14 37.3013 2.18784   2
  -9   0  14 160.211 5.58126   1
  -8   0  14 36.8468 2.57864   2
  -8   0  14 161.047 5.61011   1
  -7   0  14 1.91848 1.24215   2
  -7   0  14 7.05220 1.58435   1
  -6   0  14 2.18557 1.32180   2
  -6   0  14 12.2435 2.09094   1
  -5   0  14 35.2218 2.50673   1
  -5   0  14 15.8665 1.92346   2
  -4   0  14 7.91526 1.62188   2
  -4   0  14 14.6815 2.09957   1
  -3   0  14 259.495 8.06457   2
  -3   0  14 1065.84 29.4564   1
  -2   0  14 122.576 3.90999   1
  -2   0  14 31.2357 2.41267   2
  -1   0  14 416.722 9.91852   1
  -1   0  14 115.824 4.37335   2
   0   0  14 24.8001 2.13710   1
   0   0  14 6.03571 1.50099   2
   1   0  14 6.19712 1.55466   2
   1   0  14 8.57524 1.57966   1
   2   0  14 483.274 11.0614   1
   2   0  14 122.167 4.61274   2
   3   0  14 204.922 5.43188   1
   3   0  14 43.7326 2.68012   2
   4   0  14 2.71737 1.43744   2
   4   0  14 11.6503 1.60671   1
   5   0  14 16.9516 2.16602   2
   5   0  14 54.3449 2.55582   1
   6   0  14 21.9374 2.03827   1
   6   0  14 7.05226 1.64686   2
   7   0  14 48.8374 2.97108   2
   7   0  14 220.850 5.65964   1
   8   0  14 61.2377 2.54295   1
   8   0  14 15.1396 2.38361   2
   9   0  14 49.1152 2.33048   1
   9   0  14 10.2248 2.68721   2
  10   0  14 103.111 3.18297   1
  10   0  14 23.0132 3.10506   2
  11   0  14 149.121 4.04261   1
  11   0  14 34.7269 3.40031   2
  12   0  14 17.8616 2.96032   2
  12   0  14 55.7783 2.59052   1
  13   0  14 46.5284 2.31061   1
  13   0  14 11.3551 2.97348   2
  14   0  14 66.4327 4.64130   2
  14   0  14 277.756 7.80671   1
  15   0  14 8.51849 1.29668   1
  16   0  14 82.0604 2.73849   1
 -22   1  14 1.83504 0.58615   2
 -21   1  14 15.6795 0.95307   2
 -21   1  14 61.9675 2.95091   1
 -20   1  14 8.02738 0.89894   2
 -20   1  14 25.5639 1.91103   1
 -19   1  14 194.547 5.18374   1
 -19   1  14 49.0885 1.44652   2
 -18   1  14 0.67059 0.65440   2
 -18   1  14 1.53560 1.11982   1
 -17   1  14 2.39437 0.72024   2
 -17   1  14 9.04279 1.28451   1
 -16   1  14 14.3959 1.16312   2
 -16   1  14 68.0363 2.65885   1
 -15   1  14 1.51918 1.05591   1
 -15   1  14 2.33419 0.81900   2
 -14   1  14 32.3762 1.53740   2
 -14   1  14 132.534 3.93521   1
 -13   1  14 7.36282 1.09129   2
 -13   1  14 18.1916 1.80963   1
 -12   1  14 20.5459 1.57906   2
 -12   1  14 70.2800 2.49176   1
 -11   1  14 0.28566 1.01189   1
 -11   1  14 2.21203 0.96966   2
 -10   1  14 225.484 4.65334   1
 -10   1  14 57.5549 1.92137   2
  -9   1  14 44.6421 1.81827   1
  -9   1  14 9.54985 1.17646   2
  -8   1  14 55.6999 2.05484   1
  -8   1  14 14.6369 1.40599   2
  -7   1  14 0.77490 1.03121   2
  -7   1  14 2.77000 0.95964   1
  -6   1  14 10.4792 1.18957   2
  -6   1  14 30.3209 1.66468   1
  -5   1  14 157.728 3.54309   1
  -5   1  14 39.4173 1.58527   2
  -4   1  14 1.61374 0.94661   1
  -4   1  14 0.02399 0.84712   2
  -3   1  14 7.15852 0.98854   2
  -3   1  14 27.4970 1.53693   1
  -2   1  14 60.9371 1.91625   1
  -2   1  14 16.7153 1.41423   2
  -1   1  14 34.3827 1.69481   2
  -1   1  14 146.895 3.31297   1
   0   1  14 2.20173 1.00049   1
   0   1  14 0.28459 0.92547   2
   1   1  14 53.8684 2.04889   1
   1   1  14 13.0654 1.39686   2
   2   1  14 1.60158 1.05841   1
   2   1  14 -1.2544 0.84911   2
   3   1  14 99.8333 2.64449   1
   3   1  14 24.2512 1.54859   2
   4   1  14 40.5238 1.84075   1
   4   1  14 11.5863 1.23288   2
   5   1  14 17.8267 1.61582   2
   5   1  14 79.8038 2.55428   1
   6   1  14 2.86816 1.15079   2
   6   1  14 18.9959 1.66753   1
   7   1  14 4.85356 1.10382   1
   7   1  14 2.10962 1.11569   2
   8   1  14 30.8367 1.64643   1
   8   1  14 8.41133 1.29909   2
   9   1  14 67.6254 2.00127   1
   9   1  14 17.1520 1.69922   2
  10   1  14 16.6697 1.46555   2
  10   1  14 62.2246 1.86944   1
  11   1  14 1.16074 1.00996   2
  11   1  14 1.40362 0.82353   1
  12   1  14 6.37617 0.77513   1
  12   1  14 1.20582 1.01645   2
  13   1  14 64.1233 1.88990   1
  13   1  14 15.8462 1.70944   2
  14   1  14 2.39873 1.15787   2
  14   1  14 0.35883 0.63729   1
  15   1  14 8.67023 0.86268   1
  15   1  14 0.38156 1.57690   2
  16   1  14 17.5905 1.05156   1
 -21   2  14 6.97691 0.83717   2
 -21   2  14 28.4627 2.50917   1
 -20   2  14 3.99897 1.18286   1
 -20   2  14 2.66287 0.57367   2
 -19   2  14 15.2029 1.86863   1
 -19   2  14 4.82318 0.73883   2
 -18   2  14 3.97799 0.72140   2
 -18   2  14 12.4524 1.44609   1
 -17   2  14 1.20329 0.70414   2
 -17   2  14 1.81771 1.03354   1
 -16   2  14 26.8342 1.86447   1
 -16   2  14 7.80551 1.07408   2
 -15   2  14 15.3417 1.41132   2
 -15   2  14 64.9200 2.54477   1
 -14   2  14 9.54220 1.07499   2
 -14   2  14 32.8782 1.96248   1
 -13   2  14 2.18659 1.10575   1
 -13   2  14 1.35552 0.87781   2
 -12   2  14 7.41401 1.02000   1
 -12   2  14 1.98543 0.82697   2
 -11   2  14 16.4033 1.32018   2
 -11   2  14 52.6439 1.90734   1
 -10   2  14 3.66887 0.87952   2
 -10   2  14 14.7414 1.36252   1
  -9   2  14 22.3087 1.46250   2
  -9   2  14 99.2698 2.22471   1
  -8   2  14 105.752 2.30667   1
  -8   2  14 28.2068 1.52616   2
  -7   2  14 9.71396 1.01315   1
  -7   2  14 2.88089 0.90261   2
  -6   2  14 6.02895 0.92856   1
  -6   2  14 2.61379 0.90533   2
  -5   2  14 10.2403 1.10864   2
  -5   2  14 32.1323 1.48086   1
  -4   2  14 8.80132 1.07580   1
  -4   2  14 3.48956 0.93777   2
  -3   2  14 26.8739 1.36674   2
  -3   2  14 107.541 2.51666   1
  -2   2  14 1.71987 0.77108   2
  -2   2  14 3.77446 1.03120   1
  -1   2  14 297.241 5.75705   1
  -1   2  14 70.1182 1.78796   2
   0   2  14 8.70126 1.16075   1
   0   2  14 0.97197 0.75715   2
   1   2  14 123.711 3.00143   1
   1   2  14 32.5001 1.35747   2
   2   2  14 3.35704 0.80252   2
   2   2  14 18.7020 1.54041   1
   3   2  14 2.34620 0.85169   2
   3   2  14 5.00229 1.05569   1
   4   2  14 3.92781 1.12428   1
   4   2  14 -0.1402 0.82299   2
   5   2  14 1.58062 0.85206   2
   5   2  14 6.30819 0.99512   1
   6   2  14 0.46147 0.86680   2
   6   2  14 2.83737 0.93708   1
   7   2  14 9.45737 1.24338   1
   7   2  14 1.31180 1.06952   2
   8   2  14 5.21078 1.15422   2
   8   2  14 18.2806 1.63661   1
   9   2  14 0.85580 1.05174   2
   9   2  14 1.91062 0.91251   1
  10   2  14 1.74199 0.83854   1
  10   2  14 0.70326 1.45377   2
  11   2  14 33.6492 1.64412   1
  11   2  14 8.95742 1.33795   2
  12   2  14 1.24740 0.84069   2
  12   2  14 0.20800 0.65553   1
  13   2  14 2.26414 1.01651   2
  13   2  14 3.63489 0.68313   1
  14   2  14 19.6292 1.14339   1
  14   2  14 4.00523 1.16636   2
 -19   3  14 16.6635 1.20426   2
 -19   3  14 66.6256 3.60537   1
 -18   3  14 8.64027 2.20793   1
 -18   3  14 4.49790 0.69899   2
 -17   3  14 6.70492 0.83437   2
 -17   3  14 22.7244 1.90595   1
 -16   3  14 0.79032 1.08422   1
 -16   3  14 0.88824 0.66509   2
 -15   3  14 20.4117 1.47561   1
 -15   3  14 3.73868 0.79027   2
 -14   3  14 112.125 2.90007   1
 -14   3  14 24.2347 1.39654   2
 -13   3  14 14.4551 1.17146   1
 -13   3  14 3.25676 0.79127   2
 -12   3  14 8.63164 0.91244   1
 -12   3  14 2.38199 0.78225   2
 -11   3  14 12.2962 1.11081   1
 -11   3  14 1.88322 0.81114   2
 -10   3  14 21.7244 1.43278   2
 -10   3  14 94.6575 2.20104   1
  -9   3  14 50.8085 1.74897   2
  -9   3  14 195.586 3.68648   1
  -8   3  14 0.79087 0.81842   1
  -8   3  14 1.06910 0.75403   2
  -7   3  14 25.0374 1.45277   1
  -7   3  14 10.7610 1.10744   2
  -6   3  14 19.4711 1.35479   1
  -6   3  14 7.17595 0.95056   2
  -5   3  14 8.82357 1.02822   2
  -5   3  14 27.2270 1.41482   1
  -4   3  14 13.1020 1.34415   1
  -4   3  14 4.87639 0.87856   2
  -3   3  14 5.69205 0.82022   2
  -3   3  14 18.7294 1.43095   1
  -2   3  14 26.0262 1.54181   1
  -2   3  14 9.72906 1.04056   2
  -1   3  14 6.68393 0.87179   2
  -1   3  14 16.8973 1.57866   1
   0   3  14 21.8454 1.27099   2
   0   3  14 82.8810 2.30603   1
   1   3  14 7.56032 0.91712   2
   1   3  14 35.4697 1.63854   1
   2   3  14 1.09559 0.73566   2
   2   3  14 0.99026 0.87615   1
   3   3  14 50.4255 1.83680   1
   3   3  14 10.7526 1.04828   2
   4   3  14 13.3772 1.14248   2
   4   3  14 50.9343 1.96056   1
   5   3  14 71.6746 2.29753   1
   5   3  14 17.1470 1.14336   2
   6   3  14 1.36324 0.68862   2
   6   3  14 7.33827 0.98325   1
   7   3  14 2.57676 0.86772   1
   7   3  14 0.75102 0.86225   2
   8   3  14 76.0087 2.23241   1
   8   3  14 19.8266 1.43382   2
   9   3  14 33.0345 1.49954   1
   9   3  14 9.10719 1.18042   2
  10   3  14 2.45841 0.73111   1
  10   3  14 2.92148 1.11914   2
  11   3  14 1.53272 0.71013   1
  11   3  14 1.49477 1.13115   2
  12   3  14 25.7996 1.13108   1
  12   3  14 5.70979 1.11954   2
 -15   4  14 -0.0886 0.57107   2
 -15   4  14 1.09552 0.86951   1
 -14   4  14 2.18536 0.64089   2
 -14   4  14 3.06359 0.91090   1
 -13   4  14 20.3937 1.32643   1
 -13   4  14 7.50728 0.93877   2
 -12   4  14 1.06420 0.58972   2
 -12   4  14 0.18461 0.59460   1
 -11   4  14 -0.0228 0.62614   2
 -11   4  14 1.32822 0.58393   1
 -10   4  14 1.41290 0.67907   1
 -10   4  14 0.29636 0.61796   2
  -9   4  14 89.0313 2.11375   1
  -9   4  14 19.0124 1.17486   2
  -8   4  14 14.0541 1.05103   1
  -8   4  14 2.27795 0.67643   2
  -7   4  14 16.7141 1.13510   1
  -7   4  14 5.78455 0.80520   2
  -6   4  14 1.54725 0.62260   2
  -6   4  14 0.82491 0.79727   1
  -5   4  14 0.46826 0.68353   1
  -5   4  14 1.04814 0.61023   2
  -4   4  14 1.86265 0.61756   2
  -4   4  14 5.04821 0.82573   1
  -3   4  14 85.0238 1.98539   1
  -3   4  14 21.2375 1.07324   2
  -2   4  14 1.84643 0.68724   1
  -2   4  14 0.24053 0.61899   2
  -1   4  14 63.8527 1.83525   1
  -1   4  14 14.8404 1.03889   2
   0   4  14 25.8699 1.30990   1
   0   4  14 5.96640 0.82875   2
   1   4  14 1.39307 0.61234   2
   1   4  14 4.25141 0.84998   1
   2   4  14 -0.7420 0.72470   1
   2   4  14 0.48421 0.58766   2
   3   4  14 2.45496 0.61012   2
   3   4  14 6.02174 0.86135   1
   4   4  14 7.59181 1.03956   1
   4   4  14 2.27684 0.59038   2
   5   4  14 1.89545 0.57159   2
   5   4  14 11.2447 1.08801   1
   6   4  14 25.3955 1.30595   1
   6   4  14 8.10663 1.05142   2
   7   4  14 40.3451 1.57176   1
   7   4  14 9.14349 1.04187   2
   8   4  14 -1.0490 0.78779   2
   8   4  14 1.91719 0.68224   1
   9   4  14 1.39464 0.69532   1
   9   4  14 0.71364 0.97524   2
  -8   5  14 0.08341 0.60192   1
  -8   5  14 -0.2096 0.54548   2
  -7   5  14 0.43009 0.54359   2
  -7   5  14 0.89823 0.66700   1
  -6   5  14 16.9858 1.01726   1
  -6   5  14 4.38070 0.66310   2
  -5   5  14 2.21660 0.55376   2
  -5   5  14 8.75672 0.93645   1
  -4   5  14 -0.4535 0.53898   1
  -4   5  14 0.09556 0.51837   2
  -3   5  14 0.31556 0.59985   2
  -3   5  14 1.56078 0.59563   1
  -2   5  14 1.38137 0.60047   1
  -2   5  14 0.60370 0.51755   2
  -1   5  14 3.90891 0.67151   1
  -1   5  14 1.01355 0.54991   2
   0   5  14 0.96590 0.50123   2
   0   5  14 0.17528 0.61449   1
   1   5  14 0.32909 0.49438   2
   1   5  14 2.31145 0.67644   1
   2   5  14 3.21614 0.55816   2
   2   5  14 15.1715 1.07273   1
 -20   0  15 2.23457 3.65852   1
 -19   0  15 1.47920 2.89684   1
 -18   0  15 -1.7611 2.77700   1
 -17   0  15 -0.1456 2.48577   1
 -16   0  15 -0.1049 2.60050   1
 -15   0  15 -1.2065 2.40165   1
 -14   0  15 0.26462 2.05174   1
 -13   0  15 -1.1635 2.13884   1
 -12   0  15 0.80851 2.08490   1
 -11   0  15 0.06177 1.99029   1
 -10   0  15 0.40180 1.83935   1
  -9   0  15 -1.4464 1.89574   1
  -8   0  15 1.18129 2.08333   1
  -7   0  15 1.13601 1.64356   1
  -6   0  15 -0.3195 1.56063   1
  -5   0  15 1.64899 1.54776   1
  -4   0  15 -0.5007 1.60935   1
  -3   0  15 0.85084 1.69850   1
  -2   0  15 -0.7525 1.66867   1
  -1   0  15 -0.4821 1.61328   1
   0   0  15 -0.3679 1.71456   1
   1   0  15 -0.3057 2.18453   1
   2   0  15 1.22918 2.15677   1
   3   0  15 -0.5421 2.07785   1
   4   0  15 0.50355 1.82269   1
   5   0  15 2.28979 1.85477   1
   6   0  15 1.50772 1.86533   1
   7   0  15 -0.4263 2.07731   1
   8   0  15 1.62711 1.70440   1
   9   0  15 2.61476 1.66307   1
  10   0  15 0.55578 1.50839   1
  11   0  15 0.13819 1.68821   1
  12   0  15 0.04349 1.61207   1
  13   0  15 -0.0219 1.40663   1
  14   0  15 0.75133 1.36742   1
  13   1  15 20.4123 3.50373  -2
 -20   1  15 20.4123 3.50373   1
  12   1  15 14.0823 2.40454  -2
 -19   1  15 14.0823 2.40454   1
  11   1  15 31.7435 2.13914  -2
 -18   1  15 31.7435 2.13914   1
  10   1  15 5.00128 1.62486  -2
 -17   1  15 5.00128 1.62486   1
   9   1  15 80.8925 2.51402  -2
 -16   1  15 80.8925 2.51402   1
   8   1  15 49.2176 2.02834  -2
 -15   1  15 49.2176 2.02834   1
   7   1  15 177.852 4.88711  -2
 -14   1  15 177.852 4.88711   1
   6   1  15 19.8887 1.78887  -2
 -13   1  15 19.8887 1.78887   1
   5   1  15 156.459 3.93520  -2
 -12   1  15 156.459 3.93520   1
   4   1  15 167.275 4.08143  -2
 -11   1  15 167.275 4.08143   1
   3   1  15 85.1258 2.61491  -2
 -10   1  15 85.1258 2.61491   1
   2   1  15 1.62999 1.30480  -2
  -9   1  15 1.62999 1.30480   1
   1   1  15 16.3289 1.55468  -2
  -8   1  15 16.3289 1.55468   1
   0   1  15 6.26568 1.25090  -2
  -7   1  15 6.26568 1.25090   1
  -1   1  15 89.2125 2.65971  -2
  -6   1  15 89.2125 2.65971   1
  -2   1  15 8.20755 1.38788  -2
  -5   1  15 8.20755 1.38788   1
  -3   1  15 87.4052 2.41736  -2
  -4   1  15 87.4052 2.41736   1
  -4   1  15 140.828 3.23970  -2
  -3   1  15 140.828 3.23970   1
  -5   1  15 16.4904 1.52001  -2
  -2   1  15 16.4904 1.52001   1
  -6   1  15 128.828 3.01488  -2
  -1   1  15 128.828 3.01488   1
  -7   1  15 11.5451 1.44109  -2
   0   1  15 11.5451 1.44109   1
  -8   1  15 69.6513 2.13528  -2
   1   1  15 69.6513 2.13528   1
  -9   1  15 5.84717 1.20757  -2
   2   1  15 5.84717 1.20757   1
 -10   1  15 259.942 4.60233  -2
   3   1  15 259.942 4.60233   1
 -11   1  15 168.283 3.54457  -2
   4   1  15 168.283 3.54457   1
 -12   1  15 61.4739 1.97550  -2
   5   1  15 61.4739 1.97550   1
 -13   1  15 8.27043 1.29087  -2
   6   1  15 8.27043 1.29087   1
 -14   1  15 76.3778 2.08469  -2
   7   1  15 76.3778 2.08469   1
 -15   1  15 73.5511 2.28931  -2
   8   1  15 73.5511 2.28931   1
 -16   1  15 21.0146 1.35348  -2
   9   1  15 21.0146 1.35348   1
 -17   1  15 15.7803 1.48295  -2
  10   1  15 15.7803 1.48295   1
 -18   1  15 13.1127 1.15076  -2
  11   1  15 13.1127 1.15076   1
 -19   1  15 13.7398 1.13365  -2
  12   1  15 13.7398 1.13365   1
 -20   1  15 24.3312 1.30629  -2
  13   1  15 24.3312 1.30629   1
 -21   1  15 8.45250 1.02483  -2
  14   1  15 8.45250 1.02483   1
  12   2  15 7.17978 2.58170  -2
 -19   2  15 7.17978 2.58170   1
  11   2  15 31.6024 1.96932  -2
 -18   2  15 31.6024 1.96932   1
  10   2  15 3.56284 1.41014  -2
 -17   2  15 3.56284 1.41014   1
   9   2  15 12.1690 1.66061  -2
 -16   2  15 12.1690 1.66061   1
   8   2  15 16.5764 1.73060  -2
 -15   2  15 16.5764 1.73060   1
   7   2  15 6.75250 1.53739  -2
 -14   2  15 6.75250 1.53739   1
   6   2  15 27.3590 1.88288  -2
 -13   2  15 27.3590 1.88288   1
   5   2  15 63.7193 2.51131  -2
 -12   2  15 63.7193 2.51131   1
   4   2  15 19.2541 1.75846  -2
 -11   2  15 19.2541 1.75846   1
   3   2  15 9.90482 1.63784  -2
 -10   2  15 9.90482 1.63784   1
   2   2  15 31.6915 1.45646  -2
  -9   2  15 31.6915 1.45646   1
   1   2  15 55.6278 1.67286  -2
  -8   2  15 55.6278 1.67286   1
   0   2  15 16.9711 1.27595  -2
  -7   2  15 16.9711 1.27595   1
  -1   2  15 2.19178 1.19510  -2
  -6   2  15 2.19178 1.19510   1
  -2   2  15 28.0230 1.47242  -2
  -5   2  15 28.0230 1.47242   1
  -3   2  15 161.607 3.22108  -2
  -4   2  15 161.607 3.22108   1
  -4   2  15 48.6498 1.67199  -2
  -3   2  15 48.6498 1.67199   1
  -5   2  15 31.6825 1.47395  -2
  -2   2  15 31.6825 1.47395   1
  -6   2  15 2.13506 1.26674  -2
  -1   2  15 2.13506 1.26674   1
  -7   2  15 39.0272 1.74195  -2
   0   2  15 39.0272 1.74195   1
  -8   2  15 18.0430 1.48661  -2
   1   2  15 18.0430 1.48661   1
  -9   2  15 96.6749 2.75757  -2
   2   2  15 96.6749 2.75757   1
 -10   2  15 3.87480 1.43524  -2
   3   2  15 3.87480 1.43524   1
 -11   2  15 54.6448 2.15611  -2
   4   2  15 54.6448 2.15611   1
 -12   2  15 30.1786 1.60491  -2
   5   2  15 30.1786 1.60491   1
 -13   2  15 35.0478 1.82577  -2
   6   2  15 35.0478 1.82577   1
 -14   2  15 20.3068 1.58269  -2
   7   2  15 20.3068 1.58269   1
 -15   2  15 5.94761 1.28976  -2
   8   2  15 5.94761 1.28976   1
 -16   2  15 4.27953 1.08142  -2
   9   2  15 4.27953 1.08142   1
 -17   2  15 3.61023 1.02953  -2
  10   2  15 3.61023 1.02953   1
 -18   2  15 55.0304 1.65785  -2
  11   2  15 55.0304 1.65785   1
 -19   2  15 8.57082 0.97937  -2
  12   2  15 8.57082 0.97937   1
 -20   2  15 23.9002 1.21919  -2
  13   2  15 23.9002 1.21919   1
  10   3  15 8.95053 1.57547  -2
 -17   3  15 8.95053 1.57547   1
   9   3  15 23.5205 2.62939  -2
 -16   3  15 23.5205 2.62939   1
   8   3  15 -0.3060 1.66109  -2
 -15   3  15 -0.3060 1.66109   1
   7   3  15 18.5203 1.82030  -2
 -14   3  15 18.5203 1.82030   1
   6   3  15 23.7018 1.58051  -2
 -13   3  15 23.7018 1.58051   1
   5   3  15 32.7335 1.47652  -2
 -12   3  15 32.7335 1.47652   1
   4   3  15 6.45627 1.13015  -2
 -11   3  15 6.45627 1.13015   1
   3   3  15 6.30681 1.08874  -2
 -10   3  15 6.30681 1.08874   1
   2   3  15 71.1562 1.95477  -2
  -9   3  15 71.1562 1.95477   1
   1   3  15 20.1752 1.30699  -2
  -8   3  15 20.1752 1.30699   1
   0   3  15 87.7401 2.23852  -2
  -7   3  15 87.7401 2.23852   1
  -1   3  15 43.5410 1.47637  -2
  -6   3  15 43.5410 1.47637   1
  -2   3  15 8.00435 1.11828  -2
  -5   3  15 8.00435 1.11828   1
  -3   3  15 69.0814 1.81349  -2
  -4   3  15 69.0814 1.81349   1
  -4   3  15 91.4602 2.11759  -2
  -3   3  15 91.4602 2.11759   1
  -5   3  15 17.8221 1.17893  -2
  -2   3  15 17.8221 1.17893   1
  -6   3  15 150.539 2.92895  -2
  -1   3  15 150.539 2.92895   1
  -7   3  15 33.8507 1.48843  -2
   0   3  15 33.8507 1.48843   1
  -8   3  15 6.94807 1.17355  -2
   1   3  15 6.94807 1.17355   1
  -9   3  15 206.203 4.10970  -2
   2   3  15 206.203 4.10970   1
 -10   3  15 6.93733 1.22691  -2
   3   3  15 6.93733 1.22691   1
 -11   3  15 1.08358 1.17982  -2
   4   3  15 1.08358 1.17982   1
 -12   3  15 48.5508 1.80775  -2
   5   3  15 48.5508 1.80775   1
 -13   3  15 10.5162 1.25190  -2
   6   3  15 10.5162 1.25190   1
 -14   3  15 20.7995 1.45593  -2
   7   3  15 20.7995 1.45593   1
 -15   3  15 2.67715 1.26103  -2
   8   3  15 2.67715 1.26103   1
 -16   3  15 7.57038 1.06384  -2
   9   3  15 7.57038 1.06384   1
 -17   3  15 28.1630 1.33528  -2
  10   3  15 28.1630 1.33528   1
  11   3  15 9.58608 1.84546   1
 -18   3  15 9.38419 1.89575  -2
  11   3  15 9.38419 1.89575   1
  11   3  15 12.4839 1.77472   2
   6   4  15 54.5028 2.26871  -2
 -13   4  15 54.5028 2.26871   1
   5   4  15 104.792 2.80164  -2
 -12   4  15 104.792 2.80164   1
   4   4  15 6.27760 0.97737  -2
 -11   4  15 6.27760 0.97737   1
   3   4  15 1.40205 0.87187  -2
 -10   4  15 1.40205 0.87187   1
   2   4  15 61.8358 1.63306  -2
  -9   4  15 61.8358 1.63306   1
   1   4  15 107.267 2.31435  -2
  -8   4  15 107.267 2.31435   1
   0   4  15 41.8171 1.36059  -2
  -7   4  15 41.8171 1.36059   1
  -1   4  15 9.33084 0.97884  -2
  -6   4  15 9.33084 0.97884   1
  -2   4  15 71.1763 1.81188  -2
  -5   4  15 71.1763 1.81188   1
  -3   4  15 70.9144 1.79999  -2
  -4   4  15 70.9144 1.79999   1
  -4   4  15 191.526 3.71792  -2
  -3   4  15 191.526 3.71792   1
  -5   4  15 219.702 3.79853  -2
  -2   4  15 219.702 3.79853   1
  -6   4  15 32.9832 1.21172  -2
  -1   4  15 32.9832 1.21172   1
  -7   4  15 67.9219 1.76141  -2
   0   4  15 67.9219 1.76141   1
  -8   4  15 248.285 4.60742  -2
   1   4  15 248.285 4.60742   1
  -9   4  15 172.832 3.37009  -2
   2   4  15 172.832 3.37009   1
 -10   4  15 3.19922 0.86272  -2
   3   4  15 3.19922 0.86272   1
 -11   4  15 5.32744 0.89826  -2
   4   4  15 5.32744 0.89826   1
 -12   4  15 52.4541 1.52023  -2
   5   4  15 52.4541 1.52023   1
 -13   4  15 41.2070 1.30903  -2
   6   4  15 41.2070 1.30903   1
   7   4  15 28.7656 2.12288   1
   7   4  15 6.02771 1.45996   2
 -14   4  15 30.7086 2.21101  -2
   7   4  15 30.7086 2.21101   1
 -20   0  16 0.40166 1.01730   2
 -19   0  16 -0.1183 0.92640   2
 -19   0  16 3.34578 2.16840   1
 -18   0  16 42.0934 2.03830   2
 -18   0  16 183.214 8.48152   1
 -17   0  16 1.62961 0.88626   2
 -17   0  16 0.07241 1.70633   1
 -16   0  16 29.8096 1.60011   2
 -16   0  16 114.646 5.99774   1
 -15   0  16 5.78612 1.11442   2
 -15   0  16 25.8578 3.02073   1
 -14   0  16 257.144 7.90214   1
 -14   0  16 63.9515 2.32866   2
 -13   0  16 18.8292 1.66224   2
 -13   0  16 76.4397 3.38932   1
 -12   0  16 182.969 6.08403   1
 -12   0  16 43.7404 2.48637   2
 -11   0  16 432.557 12.5981   1
 -11   0  16 119.659 4.27157   2
 -10   0  16 44.4136 2.60671   2
 -10   0  16 166.049 5.62039   1
  -9   0  16 133.241 4.79921   1
  -9   0  16 34.9166 2.44765   2
  -8   0  16 11.5239 1.75358   1
  -8   0  16 4.96066 1.51225   2
  -7   0  16 -0.2037 1.35480   2
  -7   0  16 3.11510 1.51878   1
  -6   0  16 95.7536 3.94739   1
  -6   0  16 25.8125 2.13245   2
  -5   0  16 29.9546 2.49179   1
  -5   0  16 4.03637 1.42429   2
  -4   0  16 355.538 10.6558   1
  -4   0  16 87.5781 3.72169   2
  -3   0  16 2.30246 1.35599   2
  -3   0  16 4.50225 1.59042   1
  -2   0  16 15.3726 2.29132   1
  -2   0  16 7.95975 1.63963   2
  -1   0  16 7.95701 1.65976   1
  -1   0  16 2.38798 1.38564   2
   0   0  16 38.3372 2.63272   2
   0   0  16 176.059 5.89809   1
   1   0  16 85.2269 3.70185   1
   1   0  16 18.5305 2.02048   2
   2   0  16 47.8321 2.81787   1
   2   0  16 16.3703 1.99740   2
   3   0  16 35.7556 2.40307   2
   3   0  16 153.527 5.25452   1
   4   0  16 28.7643 2.32448   1
   4   0  16 12.6290 1.74594   2
   5   0  16 12.6341 2.05403   2
   5   0  16 44.6982 2.58511   1
   6   0  16 48.1762 2.22699   1
   6   0  16 12.6655 1.92397   2
   7   0  16 99.9559 3.06675   1
   7   0  16 23.0172 2.31377   2
   8   0  16 19.0823 2.87967   2
   8   0  16 83.1872 2.67638   1
   9   0  16 21.9286 1.58491   1
   9   0  16 3.92640 1.86116   2
  10   0  16 46.7088 2.35276   1
  10   0  16 10.2541 2.66554   2
  11   0  16 67.3980 2.66447   1
  11   0  16 15.2588 2.73026   2
  12   0  16 64.8804 2.56923   1
  13   0  16 1.53891 1.10095   1
 -20   1  16 -0.3423 0.73573   2
 -19   1  16 4.73241 0.74056   2
 -19   1  16 20.5846 4.12464   1
 -18   1  16 53.9766 2.83522   1
 -18   1  16 13.6787 0.98781   2
 -17   1  16 0.63179 0.62323   2
 -17   1  16 3.61682 1.37529   1
 -16   1  16 0.25711 0.72971   2
 -16   1  16 0.58337 1.04794   1
 -15   1  16 3.56202 0.68667   2
 -15   1  16 7.10932 1.17101   1
 -14   1  16 23.3593 1.19035   2
 -14   1  16 90.2346 2.95861   1
 -13   1  16 37.1685 1.40119   2
 -13   1  16 148.612 4.19491   1
 -12   1  16 52.7678 2.04908   1
 -12   1  16 13.6106 1.17691   2
 -11   1  16 26.9008 1.68358   1
 -11   1  16 7.42442 0.92869   2
 -10   1  16 9.99284 1.25393   1
 -10   1  16 5.13919 0.93940   2
  -9   1  16 60.5793 2.17845   1
  -9   1  16 19.8246 1.40216   2
  -8   1  16 1.58858 0.85512   2
  -8   1  16 1.27346 0.95266   1
  -7   1  16 5.01225 1.06784   1
  -7   1  16 2.30118 0.89096   2
  -6   1  16 52.6786 2.06352   1
  -6   1  16 14.1481 1.47810   2
  -5   1  16 33.1662 1.81407   1
  -5   1  16 10.1611 1.32575   2
  -4   1  16 22.7443 1.49529   2
  -4   1  16 104.690 2.68834   1
  -3   1  16 1.66617 1.04415   1
  -3   1  16 0.86555 0.88278   2
  -2   1  16 3.27542 1.08452   1
  -2   1  16 2.73854 0.94914   2
  -1   1  16 17.4349 1.43335   1
  -1   1  16 2.82319 0.95078   2
   0   1  16 31.6492 1.63771   1
   0   1  16 6.71260 1.01515   2
   1   1  16 18.1051 1.51596   2
   1   1  16 79.8574 2.26380   1
   2   1  16 0.30090 0.88022   2
   2   1  16 5.70124 1.00311   1
   3   1  16 193.046 3.91559   1
   3   1  16 38.7909 1.75473   2
   4   1  16 96.1781 2.40958   1
   4   1  16 22.6517 1.59340   2
   5   1  16 7.56307 1.21015   2
   5   1  16 34.3392 1.52194   1
   6   1  16 24.2167 1.34300   1
   6   1  16 5.62689 1.04536   2
   7   1  16 33.6005 1.40099   1
   7   1  16 7.76214 1.16689   2
   8   1  16 42.0412 1.60670   1
   8   1  16 13.6433 1.89970   2
   9   1  16 0.73582 1.11008   2
   9   1  16 -0.0750 0.71635   1
  10   1  16 13.6050 1.12382   1
  10   1  16 3.66599 1.39590   2
  11   1  16 4.86690 0.73063   1
  11   1  16 1.45629 1.59192   2
  12   1  16 -0.3976 0.68113   1
 -18   2  16 1.06002 0.56546   2
 -17   2  16 8.92078 0.83907   2
 -17   2  16 29.7341 1.89020   1
 -16   2  16 6.86164 0.87241   2
 -16   2  16 34.5989 1.65446   1
 -15   2  16 -1.1867 0.99694   1
 -15   2  16 -0.4308 0.61902   2
 -14   2  16 1.40627 0.69312   2
 -14   2  16 1.18649 1.00960   1
 -13   2  16 1.68719 0.73507   2
 -13   2  16 0.49350 1.00799   1
 -12   2  16 1.77390 0.74336   2
 -12   2  16 14.4212 1.65972   1
 -11   2  16 141.564 4.07715   1
 -11   2  16 33.1006 1.38628   2
 -10   2  16 17.1897 1.52851   1
 -10   2  16 4.78150 0.78166   2
  -9   2  16 10.1163 1.10293   1
  -9   2  16 3.77168 0.78311   2
  -8   2  16 3.68951 0.80104   2
  -8   2  16 9.26554 1.04066   1
  -7   2  16 4.12234 0.79572   2
  -7   2  16 12.6085 1.06592   1
  -6   2  16 20.8950 1.36364   1
  -6   2  16 8.23248 1.12224   2
  -5   2  16 102.324 2.36788   1
  -5   2  16 26.3735 1.35960   2
  -4   2  16 6.09926 0.94552   1
  -4   2  16 2.49827 0.75506   2
  -3   2  16 26.8966 1.46402   1
  -3   2  16 9.26468 1.03918   2
  -2   2  16 5.30682 0.94764   1
  -2   2  16 0.54836 0.76680   2
  -1   2  16 6.10768 0.88661   2
  -1   2  16 20.6707 1.39399   1
   0   2  16 2.90127 0.78508   2
   0   2  16 10.6749 1.20944   1
   1   2  16 53.9315 1.80014   1
   1   2  16 12.7611 1.23570   2
   2   2  16 15.8675 1.30782   1
   2   2  16 2.72619 0.87175   2
   3   2  16 4.79859 1.05325   2
   3   2  16 22.3089 1.38705   1
   4   2  16 50.5480 1.85111   1
   4   2  16 12.2906 1.49557   2
   5   2  16 20.4549 1.38436   1
   5   2  16 6.51579 1.11217   2
   6   2  16 0.68259 0.92409   2
   6   2  16 7.18174 1.09422   1
   7   2  16 1.74282 0.99337   2
   7   2  16 12.0172 1.10509   1
   8   2  16 4.37565 1.05968   2
   8   2  16 15.6221 1.14756   1
   9   2  16 34.0523 1.34110   1
   9   2  16 9.02109 1.16309   2
  10   2  16 0.96119 1.24152   2
  10   2  16 2.64969 0.69714   1
  11   2  16 2.42135 0.67911   1
 -16   3  16 5.58858 1.10744   1
 -16   3  16 -0.2732 0.53415   2
 -15   3  16 0.61613 0.54718   2
 -15   3  16 2.03255 1.15235   1
 -14   3  16 8.35897 0.88902   2
 -14   3  16 33.5460 2.40046   1
 -13   3  16 6.34753 0.87932   2
 -13   3  16 34.6164 2.03346   1
 -12   3  16 8.51034 1.43656   1
 -12   3  16 2.90305 0.67461   2
 -11   3  16 5.22052 0.80408   2
 -11   3  16 21.4489 1.63350   1
 -10   3  16 60.0274 1.75794   1
 -10   3  16 15.8467 1.04625   2
  -9   3  16 25.7665 1.27910   1
  -9   3  16 7.29938 0.73598   2
  -8   3  16 12.5150 1.17878   1
  -8   3  16 3.62322 0.63185   2
  -7   3  16 2.04666 0.62874   2
  -7   3  16 9.57059 1.05585   1
  -6   3  16 0.69177 0.76694   1
  -6   3  16 0.24040 0.59086   2
  -5   3  16 0.83891 0.67479   1
  -5   3  16 0.59852 0.60598   2
  -4   3  16 10.6947 0.99204   1
  -4   3  16 2.37247 0.62809   2
  -3   3  16 7.00758 0.78791   2
  -3   3  16 27.0651 1.24065   1
  -2   3  16 24.0718 1.20250   1
  -2   3  16 7.32408 0.75965   2
  -1   3  16 0.94975 0.71555   1
  -1   3  16 -0.4663 0.63116   2
   0   3  16 1.42538 0.68516   2
   0   3  16 3.01284 0.71072   1
   1   3  16 1.44597 0.68165   1
   1   3  16 -0.2449 0.64599   2
   2   3  16 1.63931 0.68089   1
   2   3  16 1.21643 0.66249   2
   3   3  16 12.1778 1.12804   1
   3   3  16 3.24751 0.78304   2
   4   3  16 13.6082 1.48467   2
   4   3  16 52.6069 1.69448   1
   5   3  16 3.91374 1.04766   2
   5   3  16 9.36487 1.10970   1
   6   3  16 0.30062 1.00258   2
   6   3  16 -0.4083 0.65742   1
   7   3  16 37.1667 1.45823   1
   7   3  16 8.46414 1.52490   2
   8   3  16 52.6142 1.68132   1
   8   3  16 14.0843 1.79716   2
 -11   4  16 7.64775 1.69168   1
 -11   4  16 0.84030 0.53440   2
 -10   4  16 6.43687 1.27098   1
 -10   4  16 1.25926 0.51827   2
  -9   4  16 11.1665 0.95375   1
  -9   4  16 3.25797 0.58335   2
  -8   4  16 0.59467 0.66301   2
  -8   4  16 1.22163 0.60421   1
  -7   4  16 1.65434 0.56009   2
  -7   4  16 3.78217 0.60822   1
  -6   4  16 3.05716 0.59282   2
  -6   4  16 10.6198 0.91711   1
  -5   4  16 1.95049 0.59738   2
  -5   4  16 7.96637 0.80012   1
  -4   4  16 1.60893 0.56754   2
  -4   4  16 6.15193 0.77087   1
  -3   4  16 17.3061 0.94444   2
  -3   4  16 71.8879 1.76604   1
  -2   4  16 0.64531 0.55190   2
  -2   4  16 5.13411 0.70544   1
  -1   4  16 25.8553 1.15234   1
  -1   4  16 4.39162 0.59825   2
   0   4  16 11.5959 0.88189   2
   0   4  16 45.9392 1.43784   1
   1   4  16 0.92090 0.61098   1
   1   4  16 -1.0470 0.53445   2
   2   4  16 1.99032 0.56738   2
   2   4  16 9.93009 0.93866   1
   3   4  16 14.6728 0.95286   1
   3   4  16 7.84477 2.40494   2
   4   4  16 6.49807 0.91007   1
   4   4  16 1.54321 0.97023   2
 -17   0  17 3.21784 3.25871   1
 -16   0  17 -2.5266 2.95846   1
 -15   0  17 0.74776 3.05576   1
 -14   0  17 1.94269 2.49893   1
 -13   0  17 2.77458 2.24789   1
 -12   0  17 1.60833 2.27917   1
 -11   0  17 2.58730 2.32823   1
 -10   0  17 -1.6421 2.14807   1
  -9   0  17 3.13855 2.03653   1
  -8   0  17 0.31625 2.00460   1
  -7   0  17 2.49691 2.07921   1
  -6   0  17 0.63289 2.05901   1
  -5   0  17 0.93644 2.12364   1
  -4   0  17 -0.1608 2.18742   1
  -3   0  17 0.77285 2.21698   1
  -2   0  17 -0.7575 3.02804   1
  -1   0  17 1.56910 2.51986   1
   0   0  17 4.25185 2.54712   1
   1   0  17 3.79234 2.35202   1
   2   0  17 -0.4656 2.20509   1
   3   0  17 -1.6421 2.17250   1
   4   0  17 2.55837 2.13258   1
   5   0  17 -1.6870 2.06394   1
   6   0  17 2.32213 2.03628   1
   7   0  17 1.44753 1.95692   1
   8   0  17 0.15035 1.98386   1
   9   0  17 0.23813 2.33421   1
  10   0  17 -1.7941 2.12474   1
   9   1  17 12.1044 3.75590  -2
 -17   1  17 12.1044 3.75590   1
   8   1  17 15.7099 2.51589  -2
 -16   1  17 15.7099 2.51589   1
   7   1  17 7.14665 1.84218  -2
 -15   1  17 7.14665 1.84218   1
   6   1  17 37.4269 2.07734  -2
 -14   1  17 37.4269 2.07734   1
   5   1  17 7.09289 1.77488  -2
 -13   1  17 7.09289 1.77488   1
   4   1  17 30.8284 1.99708  -2
 -12   1  17 30.8284 1.99708   1
   3   1  17 6.17991 1.53820  -2
 -11   1  17 6.17991 1.53820   1
   2   1  17 37.8423 1.86996  -2
 -10   1  17 37.8423 1.86996   1
   1   1  17 63.3767 2.24112  -2
  -9   1  17 63.3767 2.24112   1
   0   1  17 82.2137 2.52113  -2
  -8   1  17 82.2137 2.52113   1
  -1   1  17 53.5238 2.10950  -2
  -7   1  17 53.5238 2.10950   1
  -2   1  17 2.28481 1.47221  -2
  -6   1  17 2.28481 1.47221   1
  -3   1  17 61.3152 3.10453  -2
  -5   1  17 61.3152 3.10453   1
  -4   1  17 216.630 5.61862  -2
  -4   1  17 216.630 5.61862   1
  -5   1  17 29.0439 1.80127  -2
  -3   1  17 29.0439 1.80127   1
  -6   1  17 -0.4033 1.38027  -2
  -2   1  17 -0.4033 1.38027   1
  -7   1  17 53.6297 2.11364  -2
  -1   1  17 53.6297 2.11364   1
  -8   1  17 232.664 5.18065  -2
   0   1  17 232.664 5.18065   1
  -9   1  17 30.1629 1.95959  -2
   1   1  17 30.1629 1.95959   1
 -10   1  17 51.1456 2.07173  -2
   2   1  17 51.1456 2.07173   1
 -11   1  17 11.5077 1.55238  -2
   3   1  17 11.5077 1.55238   1
 -12   1  17 11.2640 1.33271  -2
   4   1  17 11.2640 1.33271   1
 -13   1  17 29.3448 1.49155  -2
   5   1  17 29.3448 1.49155   1
 -14   1  17 31.3780 1.44243  -2
   6   1  17 31.3780 1.44243   1
 -15   1  17 17.9388 1.87997  -2
   7   1  17 17.9388 1.87997   1
 -16   1  17 9.18317 1.28469  -2
   8   1  17 9.18317 1.28469   1
 -17   1  17 43.0112 1.63544  -2
   9   1  17 43.0112 1.63544   1
 -18   1  17 -0.8994 1.57110  -2
  10   1  17 -0.8994 1.57110   1
   8   2  17 63.9435 3.97527  -2
 -16   2  17 63.9435 3.97527   1
   7   2  17 10.1191 2.76947  -2
 -15   2  17 10.1191 2.76947   1
   6   2  17 5.86309 1.86468  -2
 -14   2  17 5.86309 1.86468   1
   5   2  17 2.69011 1.68723  -2
 -13   2  17 2.69011 1.68723   1
   4   2  17 4.27358 1.61682  -2
 -12   2  17 4.27358 1.61682   1
   3   2  17 6.01616 1.73179  -2
 -11   2  17 6.01616 1.73179   1
   2   2  17 21.7525 1.93434  -2
 -10   2  17 21.7525 1.93434   1
   1   2  17 62.2653 2.52939  -2
  -9   2  17 62.2653 2.52939   1
   0   2  17 51.8632 2.32939  -2
  -8   2  17 51.8632 2.32939   1
  -1   2  17 135.029 3.91295  -2
  -7   2  17 135.029 3.91295   1
  -2   2  17 50.1307 1.99288  -2
  -6   2  17 50.1307 1.99288   1
  -3   2  17 21.2399 1.54995  -2
  -5   2  17 21.2399 1.54995   1
  -4   2  17 139.915 3.07633  -2
  -4   2  17 139.915 3.07633   1
  -5   2  17 63.0998 1.92987  -2
  -3   2  17 63.0998 1.92987   1
  -6   2  17 36.6322 1.58362  -2
  -2   2  17 36.6322 1.58362   1
  -7   2  17 38.9852 1.56926  -2
  -1   2  17 38.9852 1.56926   1
  -8   2  17 29.5289 1.51701  -2
   0   2  17 29.5289 1.51701   1
  -9   2  17 79.5164 2.17137  -2
   1   2  17 79.5164 2.17137   1
 -10   2  17 62.2846 1.88954  -2
   2   2  17 62.2846 1.88954   1
 -11   2  17 12.3598 1.30775  -2
   3   2  17 12.3598 1.30775   1
 -12   2  17 1.46200 1.16096  -2
   4   2  17 1.46200 1.16096   1
 -13   2  17 1.67527 1.19316  -2
   5   2  17 1.67527 1.19316   1
 -14   2  17 5.38053 1.18873  -2
   6   2  17 5.38053 1.18873   1
 -15   2  17 25.6109 1.48031  -2
   7   2  17 25.6109 1.48031   1
 -16   2  17 46.5782 2.19057  -2
   8   2  17 46.5782 2.19057   1
 -17   2  17 20.4209 1.30740  -2
   9   2  17 20.4209 1.30740   1
   6   3  17 14.7239 2.25057  -2
 -14   3  17 14.7239 2.25057   1
   5   3  17 0.29596 2.02859  -2
 -13   3  17 0.29596 2.02859   1
   4   3  17 27.4678 2.59637  -2
 -12   3  17 27.4678 2.59637   1
   3   3  17 26.3261 2.14841  -2
 -11   3  17 26.3261 2.14841   1
   2   3  17 91.3435 3.53275  -2
 -10   3  17 91.3435 3.53275   1
   1   3  17 18.6070 1.96072  -2
  -9   3  17 18.6070 1.96072   1
   0   3  17 0.68089 1.32544  -2
  -8   3  17 0.68089 1.32544   1
  -1   3  17 15.9846 1.40551  -2
  -7   3  17 15.9846 1.40551   1
  -2   3  17 15.1504 1.31102  -2
  -6   3  17 15.1504 1.31102   1
  -3   3  17 13.9510 1.11424  -2
  -5   3  17 13.9510 1.11424   1
  -4   3  17 4.93410 1.07136  -2
  -4   3  17 4.93410 1.07136   1
  -5   3  17 29.9100 1.27149  -2
  -3   3  17 29.9100 1.27149   1
  -6   3  17 5.49276 1.00745  -2
  -2   3  17 5.49276 1.00745   1
  -7   3  17 61.3816 1.73159  -2
  -1   3  17 61.3816 1.73159   1
  -8   3  17 0.76047 1.36013  -2
   0   3  17 0.76047 1.36013   1
  -9   3  17 11.5674 1.18767  -2
   1   3  17 11.5674 1.18767   1
 -10   3  17 27.0992 1.43329  -2
   2   3  17 27.0992 1.43329   1
 -11   3  17 4.79756 1.11364  -2
   3   3  17 4.79756 1.11364   1
 -12   3  17 19.2570 1.24961  -2
   4   3  17 19.2570 1.24961   1
 -13   3  17 1.69543 1.26481  -2
   5   3  17 1.69543 1.26481   1
 -14   3  17 9.81539 1.08071  -2
   6   3  17 9.81539 1.08071   1
  -2   4  17 5.55034 1.62624  -2
  -6   4  17 5.55034 1.62624   1
  -3   4  17 6.50632 1.42470  -2
  -5   4  17 6.50632 1.42470   1
  -4   4  17 1.90650 1.34575  -2
  -4   4  17 1.90650 1.34575   1
  -5   4  17 9.89746 1.37461  -2
  -3   4  17 9.89746 1.37461   1
  -6   4  17 11.7204 1.61739  -2
  -2   4  17 11.7204 1.61739   1
 -17   0  18 2.01306 1.37833   2
 -16   0  18 17.3359 2.26341   2
 -15   0  18 8.91478 1.22092   2
 -15   0  18 40.8593 3.44909   1
 -14   0  18 7.43731 1.50202   2
 -14   0  18 14.4557 2.77922   1
 -13   0  18 110.414 3.97334   1
 -13   0  18 28.3818 1.90796   2
 -12   0  18 140.948 4.47698   2
 -12   0  18 578.553 16.1681   1
 -11   0  18 35.6772 2.34798   1
 -11   0  18 9.87595 1.71722   2
 -10   0  18 8.67259 1.50581   2
 -10   0  18 27.4531 2.14379   1
  -9   0  18 1.17798 1.44059   2
  -9   0  18 10.3158 1.93063   1
  -8   0  18 21.6461 2.42877   2
  -8   0  18 74.7240 3.21181   1
  -7   0  18 82.9926 3.50576   1
  -7   0  18 17.5600 2.46435   2
  -6   0  18 1.64034 1.37343   2
  -6   0  18 11.9476 2.01552   1
  -5   0  18 39.6636 2.63386   1
  -5   0  18 13.7880 2.30582   2
  -4   0  18 18.5503 2.24031   1
  -4   0  18 1.22814 1.31868   2
  -3   0  18 113.124 5.77384   1
  -3   0  18 19.8953 1.98816   2
  -2   0  18 0.82246 1.12438   2
  -2   0  18 3.11131 1.67067   1
  -1   0  18 1.13610 1.18126   2
  -1   0  18 -0.7821 1.54783   1
   0   0  18 5.94596 1.66602   1
   0   0  18 2.64910 1.14074   2
   1   0  18 23.7333 1.95157   2
   1   0  18 107.359 5.39187   1
   2   0  18 171.825 5.46243   1
   2   0  18 44.1500 2.35061   2
   3   0  18 47.9358 2.56347   1
   3   0  18 13.9413 1.86290   2
   4   0  18 26.9847 2.04324   1
   4   0  18 11.5913 1.76769   2
   5   0  18 43.0934 2.27085   1
   5   0  18 13.9233 1.95125   2
   6   0  18 229.623 6.58686   1
   6   0  18 55.7969 3.70411   2
   7   0  18 19.6555 2.87632   2
   7   0  18 81.4557 2.90216   1
   8   0  18 4.41147 1.57708   1
   9   0  18 11.1325 2.27586   1
 -16   1  18 18.2031 1.39851   2
 -15   1  18 25.1505 2.26030   1
 -15   1  18 7.92385 1.19996   2
 -14   1  18 1.61441 1.06347   1
 -14   1  18 0.75760 0.71687   2
 -13   1  18 -0.3389 0.71344   2
 -13   1  18 0.16922 0.96795   1
 -12   1  18 0.55808 0.70771   2
 -12   1  18 2.01331 0.99591   1
 -11   1  18 8.82010 1.13512   2
 -11   1  18 36.7765 1.68617   1
 -10   1  18 3.54138 0.92492   1
 -10   1  18 0.40600 0.72283   2
  -9   1  18 2.03842 0.86785   1
  -9   1  18 0.97199 0.74401   2
  -8   1  18 1.27776 0.92139   1
  -8   1  18 2.05437 0.79719   2
  -7   1  18 2.60360 0.97398   1
  -7   1  18 1.86177 0.78858   2
  -6   1  18 30.6892 1.78922   1
  -6   1  18 5.82927 1.07877   2
  -5   1  18 2.70205 0.98068   1
  -5   1  18 1.27774 0.86334   2
  -4   1  18 1.39521 0.90337   2
  -4   1  18 1.50278 0.95834   1
  -3   1  18 14.1335 1.43680   2
  -3   1  18 57.6585 2.27547   1
  -2   1  18 15.1616 1.42864   1
  -2   1  18 5.13146 0.91877   2
  -1   1  18 8.90233 1.13396   2
  -1   1  18 36.7269 1.87131   1
   0   1  18 6.53768 1.01153   1
   0   1  18 2.19566 0.78266   2
   1   1  18 2.51088 0.83968   1
   1   1  18 0.43454 0.80874   2
   2   1  18 15.2033 1.38625   1
   2   1  18 4.73403 0.88024   2
   3   1  18 21.1338 1.45334   1
   3   1  18 5.28135 0.92368   2
   4   1  18 28.6664 1.52652   1
   4   1  18 8.39956 1.29798   2
   5   1  18 3.23688 0.87247   1
   5   1  18 3.29776 0.92996   2
   6   1  18 3.49192 1.27123   2
   6   1  18 13.3191 1.24816   1
   7   1  18 41.2672 1.96203   1
   8   1  18 12.3903 1.46219   1
 -15   2  18 2.85063 1.64849   1
 -15   2  18 5.93673 1.50453   2
 -14   2  18 25.9794 2.30423   1
 -14   2  18 5.66078 0.89158   2
 -13   2  18 39.3415 2.28520   1
 -13   2  18 9.75643 1.01729   2
 -12   2  18 5.63816 1.12313   1
 -12   2  18 1.28363 0.66704   2
 -11   2  18 2.94819 1.02226   1
 -11   2  18 1.16059 0.62810   2
 -10   2  18 0.14660 0.69712   2
 -10   2  18 2.75886 1.06575   1
  -9   2  18 7.81760 1.51860   1
  -9   2  18 7.79025 1.53515   2
  -8   2  18 4.12529 0.82726   2
  -8   2  18 10.9026 1.33356   1
  -7   2  18 1.25101 0.72686   2
  -7   2  18 2.52220 0.90979   1
  -6   2  18 0.25240 0.73386   2
  -6   2  18 0.54621 0.91265   1
  -5   2  18 1.86306 0.71904   2
  -5   2  18 2.83205 0.95596   1
  -4   2  18 3.33355 0.76265   2
  -4   2  18 11.7370 1.25683   1
  -3   2  18 6.07977 0.87422   1
  -3   2  18 2.06450 0.87279   2
  -2   2  18 9.06659 1.17355   1
  -2   2  18 1.90873 0.86243   2
  -1   2  18 1.48327 0.78707   1
  -1   2  18 1.51540 0.78490   2
   0   2  18 2.41823 0.88227   2
   0   2  18 12.3038 1.14659   1
   1   2  18 59.4576 1.80917   1
   1   2  18 15.7376 1.56148   2
   2   2  18 7.49512 0.90584   1
   2   2  18 2.76317 0.93369   2
   3   2  18 3.73795 0.75374   1
   3   2  18 1.53367 0.88491   2
   4   2  18 23.1230 1.33628   1
   4   2  18 6.53207 1.27478   2
   5   2  18 21.1650 1.24248   1
   5   2  18 7.57087 1.74539   2
   6   2  18 20.1966 2.02778   2
   6   2  18 82.6512 2.41840   1
 -11   3  18 0.73752 1.12937   1
 -11   3  18 0.66426 0.66085   2
 -10   3  18 9.69970 1.08593   2
 -10   3  18 42.8176 2.61094   1
  -9   3  18 20.7480 1.97236   1
  -9   3  18 5.24146 1.10496   2
  -8   3  18 0.63495 0.62453   2
  -8   3  18 4.64747 1.36887   1
  -7   3  18 0.53383 0.63927   2
  -7   3  18 0.03239 1.16535   1
  -6   3  18 0.12132 0.70830   2
  -6   3  18 0.97460 0.93794   1
  -5   3  18 11.2419 1.06725   2
  -5   3  18 38.2897 1.73887   1
  -4   3  18 45.7455 4.24039  -2
  -4   3  18 45.7455 4.24039   1
  -4   3  18 33.3205 1.79928   1
  -4   3  18 6.25581 1.09808   2
  -3   3  18 2.06116 0.82093   2
  -3   3  18 11.5364 1.14574   1
  -6   3  18 25.8077 3.72260  -2
  -2   3  18 25.8077 3.72260   1
  -2   3  18 4.83003 1.03972   2
  -2   3  18 19.3648 1.35020   1
  -1   3  18 14.5073 1.11374   1
  -1   3  18 2.84003 1.06100   2
   0   3  18 4.95796 1.48066   2
   0   3  18 11.6806 1.13614   1
  -9   3  18 86.2738 4.50863  -2
   1   3  18 86.2738 4.50863   1
   1   3  18 75.3431 2.65170   1
   1   3  18 18.8374 1.75948   2
   2   3  18 1.80993 0.95523   2
   2   3  18 1.19145 0.68133   1
 -12   0  19 -0.2440 3.30766   1
 -11   0  19 -0.4748 2.39849   1
 -10   0  19 -3.1720 2.49562   1
  -9   0  19 1.45134 2.25252   1
  -8   0  19 1.50024 2.20925   1
  -7   0  19 1.01474 2.21959   1
  -6   0  19 1.17453 2.67662   1
  -5   0  19 -0.9868 2.64193   1
  -4   0  19 -2.0081 2.42880   1
  -3   0  19 -2.1590 2.48960   1
  -2   0  19 0.02006 2.54973   1
  -1   0  19 0.56268 2.44072   1
   0   0  19 1.51455 2.49025   1
   1   0  19 2.30975 2.49757   1
   2   0  19 -1.5958 2.51640   1
   3   0  19 -1.7251 2.45073   1
   4   0  19 3.07784 2.68617   1
   5   0  19 1.04695 2.79338   1
   4   1  19 21.1242 3.27275  -2
 -13   1  19 21.1242 3.27275   1
   3   1  19 183.551 7.84649  -2
 -12   1  19 183.551 7.84649   1
   2   1  19 13.3184 2.17597  -2
 -11   1  19 13.3184 2.17597   1
   1   1  19 33.3088 2.03193  -2
 -10   1  19 33.3088 2.03193   1
   0   1  19 31.4438 2.00648  -2
  -9   1  19 31.4438 2.00648   1
  -1   1  19 21.7260 1.87944  -2
  -8   1  19 21.7260 1.87944   1
  -2   1  19 31.8079 1.90254  -2
  -7   1  19 31.8079 1.90254   1
  -3   1  19 27.8326 1.97255  -2
  -6   1  19 27.8326 1.97255   1
  -4   1  19 2.17706 1.62001  -2
  -5   1  19 2.17706 1.62001   1
  -5   1  19 1.95942 1.64335  -2
  -4   1  19 1.95942 1.64335   1
  -6   1  19 6.45911 1.79300  -2
  -3   1  19 6.45911 1.79300   1
  -7   1  19 16.8637 1.94872  -2
  -2   1  19 16.8637 1.94872   1
  -8   1  19 12.8586 1.83255  -2
  -1   1  19 12.8586 1.83255   1
  -9   1  19 31.6735 2.07197  -2
   0   1  19 31.6735 2.07197   1
 -10   1  19 61.3333 2.35356  -2
   1   1  19 61.3333 2.35356   1
 -11   1  19 5.91606 1.52512  -2
   2   1  19 5.91606 1.52512   1
 -12   1  19 99.8195 2.90627  -2
   3   1  19 99.8195 2.90627   1
 -13   1  19 8.40764 1.59342  -2
   4   1  19 8.40764 1.59342   1
 -14   1  19 -1.8916 2.44927  -2
   5   1  19 -1.8916 2.44927   1
   3   2  19 6.58285 2.31397  -2
 -12   2  19 6.58285 2.31397   1
   2   2  19 23.7232 2.50830  -2
 -11   2  19 23.7232 2.50830   1
   1   2  19 21.2425 2.38947  -2
 -10   2  19 21.2425 2.38947   1
   0   2  19 1.54380 2.15385  -2
  -9   2  19 1.54380 2.15385   1
  -1   2  19 13.0662 2.22929  -2
  -8   2  19 13.0662 2.22929   1
  -2   2  19 15.2611 1.85455  -2
  -7   2  19 15.2611 1.85455   1
  -3   2  19 29.4026 2.12855  -2
  -6   2  19 29.4026 2.12855   1
  -4   2  19 18.5234 1.91513  -2
  -5   2  19 18.5234 1.91513   1
  -5   2  19 6.79561 1.67492  -2
  -4   2  19 6.79561 1.67492   1
  -6   2  19 11.7817 1.70639  -2
  -3   2  19 11.7817 1.70639   1
  -7   2  19 38.4864 2.12924  -2
  -2   2  19 38.4864 2.12924   1
  -8   2  19 36.6058 1.81675  -2
  -1   2  19 36.6058 1.81675   1
  -9   2  19 7.29555 1.36173  -2
   0   2  19 7.29555 1.36173   1
 -10   2  19 30.8529 1.74192  -2
   1   2  19 30.8529 1.74192   1
 -11   2  19 65.5164 2.62156  -2
   2   2  19 65.5164 2.62156   1
 -12   2  19 16.2755 1.67154  -2
   3   2  19 16.2755 1.67154   1
 -11   0  20 4.92244 1.53926   2
 -10   0  20 44.5723 2.88768   1
 -10   0  20 13.4950 1.57228   2
  -9   0  20 15.3938 1.68778   2
   0   0  20 63.6324 4.11411  -2
  -9   0  20 63.6324 4.11411   1
  -8   0  20 10.5222 2.06105   1
  -8   0  20 2.89728 1.00754   2
  -2   0  20 33.9792 3.12549  -2
  -7   0  20 33.9792 3.12549   1
  -7   0  20 4.60195 1.42753   2
  -3   0  20 78.6899 4.45498  -2
  -6   0  20 78.6899 4.45498   1
  -6   0  20 16.5457 1.79360   2
  -5   0  20 0.34087 1.01644   2
  -5   0  20 7.09802 1.82617   1
  -4   0  20 3.24092 1.22841   1
  -4   0  20 1.11692 0.93091   2
  -3   0  20 5.26909 1.37299   1
  -2   0  20 84.8148 4.16053   1
  -1   0  20 86.7112 4.17944   1
  -1   0  20 22.3285 2.06364   2
   0   0  20 11.7622 1.83018   1
   1   0  20 139.024 5.90164   1
   1   0  20 33.4768 2.44839   2
   2   0  20 59.1521 3.15688   1
 -10   1  20 1.37363 1.18055   1
 -10   1  20 0.29005 0.69282   2
  -9   1  20 16.0730 1.89901   1
  -9   1  20 4.56245 0.88204   2
  -8   1  20 16.3455 2.49901   1
  -8   1  20 5.39451 1.02603   2
  -1   1  20 15.7039 2.59877  -2
  -8   1  20 15.7039 2.59877   1
  -7   1  20 0.86608 0.65982   2
  -7   1  20 6.03869 1.09000   1
  -3   1  20 25.1634 2.85229  -2
  -6   1  20 25.1634 2.85229   1
  -6   1  20 23.3076 2.16859   1
  -6   1  20 6.15397 0.98641   2
  -5   1  20 19.0913 1.23012   2
  -4   1  20 82.1500 4.45149  -2
  -5   1  20 82.1500 4.45149   1
  -5   1  20 67.7324 3.44132   1
  -4   1  20 21.9017 1.49690   1
  -4   1  20 9.25038 1.70227   2
  -3   1  20 9.60779 1.22773   1
  -3   1  20 3.04268 1.20975   2
  -2   1  20 62.6729 2.37263   1
  -2   1  20 17.2943 1.28519   2
  -1   1  20 2.77712 1.57849   2
  -1   1  20 13.7266 1.31173   1
   0   1  20 3.06098 1.08574   2
   0   1  20 8.12245 1.23159   1
   1   1  20 1.67385 1.03203   2
   1   1  20 3.54314 0.92502   1
   0   0   0    0.00    0.00   0
;
_shelx_hkl_checksum              43185
_shelx_res_file
;
    JTM607a_0m_4a.res created by SHELXL-2014/7
TITL JTM607a_0m_4a_a.res in P2(1)/c
REM Old TITL JTM607a_0m_4a in P2(1)/c
REM SHELXT solution in P2(1)/c
REM R1 0.156,  Rweak 0.011,  Alpha 0.047,  Orientation as input
REM Formula found by SHELXT:  C30 N3 O S
CELL  1.54178  21.8833   5.7007  16.8054   90.000  100.234   90.000
ZERR    4.000   0.0008   0.0002   0.0006    0.000    0.001    0.000
LATT  1
SYMM -X, 1/2+Y, 1/2-Z
SFAC C H N O S
UNIT 100 80 16 4 4
TEMP -123
SIZE 0.05 0.14 0.20
L.S. 5
BOND $H
OMIT -1 1 4
OMIT -1 1 8
LIST 4
FMAP 2
EADP C20 C20A
EADP C21 C21A
EADP C22 C22A
EADP C23 C23A
EADP C24 C24A
EADP C25 C25A
SADI 0.005 C19 C20 C19 C20A
PLAN 5
CONF
EQIV $1 x, -y+1/2, z-1/2
HTAB C19 O1_$1
MPLA C1 > C6
MPLA C1 C6 S1 C7 C8 N1
MPLA C10 > C15
MPLA C1 C6 S1 C7 C8 N1
MPLA C17 C18 N2 N3 N4
MPLA C20 > C25
ACTA 140
WGHT    0.046500    2.561800
BASF   0.20422
FVAR       0.55814   0.50274
S1    5    0.887897    0.426827    0.760611    11.00000    0.01756    0.03354 =
         0.03350   -0.00955    0.00281   -0.00042
O1    4    0.705543    0.376374    0.723541    11.00000    0.01637    0.04058 =
         0.04495   -0.00710    0.00331    0.00186
N1    3    0.773263    0.130839    0.679879    11.00000    0.01811    0.02415 =
         0.02360   -0.00078    0.00101   -0.00101
N2    3    0.687834   -0.170654    0.508320    11.00000    0.02759    0.02709 =
         0.03202   -0.00452   -0.00095    0.00107
N3    3    0.663409   -0.096256    0.434934    11.00000    0.03095    0.03011 =
         0.03079   -0.00317   -0.00007    0.00216
N4    3    0.655216    0.137064    0.440633    11.00000    0.02006    0.02876 =
         0.02813    0.00330    0.00057    0.00051
C1    1    0.832380    0.065872    0.663516    11.00000    0.02042    0.02649 =
         0.01916    0.00523    0.00343    0.00439
C2    1    0.837971   -0.124973    0.612643    11.00000    0.02694    0.02657 =
         0.02716   -0.00001    0.00120    0.00367
AFIX  43
H2    2    0.801803   -0.207544    0.588058    11.00000   -1.20000
AFIX   0
C3    1    0.895343   -0.194463    0.597811    11.00000    0.03311    0.03480 =
         0.02993   -0.00542    0.00533    0.00953
AFIX  43
H3    2    0.898341   -0.325250    0.563683    11.00000   -1.20000
AFIX   0
C4    1    0.948654   -0.074532    0.632425    11.00000    0.02577    0.04097 =
         0.03228   -0.00326    0.00658    0.01059
AFIX  43
H4    2    0.988069   -0.122709    0.622117    11.00000   -1.20000
AFIX   0
C5    1    0.943966    0.114667    0.681780    11.00000    0.02009    0.04209 =
         0.02707   -0.00240    0.00227    0.00262
AFIX  43
H5    2    0.980341    0.197098    0.705721    11.00000   -1.20000
AFIX   0
C6    1    0.885919    0.186628    0.696981    11.00000    0.02183    0.02792 =
         0.01858    0.00182    0.00164    0.00405
C7    1    0.810868    0.475114    0.767388    11.00000    0.01833    0.02388 =
         0.02035    0.00269    0.00133    0.00039
C8    1    0.759949    0.325826    0.722202    11.00000    0.02029    0.02531 =
         0.02303    0.00350    0.00245    0.00037
C9    1    0.793218    0.646982    0.814255    11.00000    0.02141    0.02515 =
         0.02771    0.00185    0.00459    0.00205
AFIX  43
H9    2    0.749815    0.653601    0.814068    11.00000   -1.20000
AFIX   0
C10   1    0.829444    0.823227    0.864847    11.00000    0.02798    0.02168 =
         0.02306    0.00238    0.00606    0.00113
C11   1    0.894355    0.849602    0.877143    11.00000    0.02940    0.02862 =
         0.03425   -0.00357    0.01012   -0.00338
AFIX  43
H11   2    0.918614    0.741253    0.853118    11.00000   -1.20000
AFIX   0
C12   1    0.923298    1.031497    0.923819    11.00000    0.03857    0.03489 =
         0.03626   -0.00104    0.00439   -0.01247
AFIX  43
H12   2    0.967176    1.046583    0.931182    11.00000   -1.20000
AFIX   0
C13   1    0.889528    1.190979    0.959763    11.00000    0.05389    0.02602 =
         0.02847   -0.00166    0.00072   -0.00715
AFIX  43
H13   2    0.909848    1.316383    0.991072    11.00000   -1.20000
AFIX   0
C14   1    0.825938    1.166870    0.949868    11.00000    0.05153    0.03245 =
         0.03036   -0.00669    0.00442    0.00709
AFIX  43
H14   2    0.802409    1.276046    0.974671    11.00000   -1.20000
AFIX   0
C15   1    0.796098    0.984900    0.904091    11.00000    0.03232    0.03085 =
         0.03017   -0.00143    0.00544    0.00606
AFIX  43
H15   2    0.752372    0.968651    0.899024    11.00000   -1.20000
AFIX   0
C16   1    0.719546   -0.019922    0.647963    11.00000    0.02204    0.02527 =
         0.02641    0.00195    0.00167   -0.00414
AFIX  23
H16A  2    0.685982    0.010985    0.679064    11.00000   -1.20000
H16B  2    0.732047   -0.186149    0.656707    11.00000   -1.20000
AFIX   0
C17   1    0.694574    0.016367    0.560035    11.00000    0.01498    0.02353 =
         0.02849   -0.00243    0.00048   -0.00152
C18   1    0.673790    0.212954    0.516963    11.00000    0.02080    0.02355 =
         0.02890   -0.00196    0.00275   -0.00137
AFIX  43
H18   2    0.672696    0.368895    0.536595    11.00000   -1.20000
AFIX   0
C19   1    0.623860    0.270369    0.370116    11.00000    0.02283    0.04309 =
         0.02744    0.00898    0.00048    0.00155
AFIX  23
H19A  2    0.629524    0.188912    0.319907    11.00000   -1.20000
H19B  2    0.642840    0.428011    0.370124    11.00000   -1.20000
AFIX  66
PART 1
C20   1    0.555700    0.294891    0.371653    21.00000    0.02081    0.02967 =
         0.02421    0.00243   -0.00063    0.00091
C21   1    0.525116    0.492299    0.335926    21.00000    0.02865    0.03833 =
         0.04496   -0.00156    0.00187   -0.00439
AFIX  43
H21   2    0.547497    0.608731    0.312589    21.00000   -1.20000
AFIX  65
C22   1    0.461785    0.519351    0.334345    21.00000    0.03213    0.04124 =
         0.05540   -0.00793    0.00549    0.00612
AFIX  43
H22   2    0.440882    0.654271    0.309927    21.00000   -1.20000
AFIX  65
C23   1    0.429038    0.348994    0.368491    21.00000    0.02129    0.04466 =
         0.05119   -0.00343    0.00407    0.00178
AFIX  43
H23   2    0.385754    0.367484    0.367410    21.00000   -1.20000
AFIX  65
C24   1    0.459621    0.151585    0.404218    21.00000    0.02544    0.04219 =
         0.06186   -0.00323    0.00412   -0.00703
AFIX  43
H24   2    0.437239    0.035154    0.427555    21.00000   -1.20000
AFIX  65
C25   1    0.522952    0.124530    0.405800    21.00000    0.02582    0.03156 =
         0.04630   -0.00031    0.00312    0.00198
AFIX  43
H25   2    0.543854   -0.010390    0.430218    21.00000   -1.20000
AFIX  66
PART 2
C20A  1    0.554364    0.289611    0.366877   -21.00000    0.02081    0.02967 =
         0.02421    0.00243   -0.00063    0.00091
C21A  1    0.530852    0.482658    0.401997   -21.00000    0.02865    0.03833 =
         0.04496   -0.00156    0.00187   -0.00439
AFIX  43
H21A  2    0.558269    0.599603    0.428028   -21.00000   -1.20000
AFIX  65
C22A  1    0.467227    0.504599    0.399031   -21.00000    0.03213    0.04124 =
         0.05540   -0.00793    0.00549    0.00612
AFIX  43
H22A  2    0.451158    0.636539    0.423035   -21.00000   -1.20000
AFIX  65
C23A  1    0.427112    0.333492    0.360945   -21.00000    0.02129    0.04466 =
         0.05119   -0.00343    0.00407    0.00178
AFIX  43
H23A  2    0.383627    0.348489    0.358919   -21.00000   -1.20000
AFIX  65
C24A  1    0.450622    0.140443    0.325825   -21.00000    0.02544    0.04219 =
         0.06186   -0.00323    0.00412   -0.00703
AFIX  43
H24A  2    0.423205    0.023500    0.299795   -21.00000   -1.20000
AFIX  65
C25A  1    0.514248    0.118500    0.328790   -21.00000    0.02582    0.03156 =
         0.04630   -0.00031    0.00312    0.00198
AFIX  43
H25A  2    0.530316   -0.013440    0.304787   -21.00000   -1.20000
PART 0
AFIX   0
HKLF 5
REM  JTM607a_0m_4a_a.res in P2(1)/c
REM R1 =  0.0603 for    6233 Fo > 4sig(Fo)  and  0.0679 for all    7028 data
REM    276 parameters refined using      1 restraints
END
WGHT      0.0466      2.5560
REM Highest difference peak  0.300,  deepest hole -0.446,  1-sigma level  0.072
Q1    1   0.4780  0.4577  0.4328  11.00000  0.05    0.30
Q2    1   0.9949  0.2009  0.7324  11.00000  0.05    0.27
Q3    1   0.9092  0.1125  0.6916  11.00000  0.05    0.27
Q4    1   0.4383  0.0837  0.4696  11.00000  0.05    0.25
Q5    1   0.9876  0.7094  0.9087  11.00000  0.05    0.25
;
_shelx_res_checksum              64849
loop_
_space_group_symop_operation_xyz
'x, y, z'
'-x, y+1/2, -z+1/2'
'-x, -y, -z'
'x, -y-1/2, z-1/2'
loop_
_atom_site_type_symbol
_atom_site_label
_atom_site_fract_x
_atom_site_fract_y
_atom_site_fract_z
_atom_site_U_iso_or_equiv
_atom_site_adp_type
_atom_site_calc_flag
_atom_site_occupancy
_atom_site_disorder_assembly
_atom_site_disorder_group
S S1 0.88790(3) 0.42683(15) 0.76061(5) 0.0284(2) Uani d 1 . .
O O1 0.70554(9) 0.3764(4) 0.72354(15) 0.0342(5) Uani d 1 . .
N N1 0.77326(11) 0.1308(4) 0.67988(15) 0.0223(5) Uani d 1 . .
N N2 0.68783(12) -0.1707(5) 0.50832(16) 0.0297(6) Uani d 1 . .
N N3 0.66341(13) -0.0963(5) 0.43493(17) 0.0313(6) Uani d 1 . .
N N4 0.65522(11) 0.1371(5) 0.44063(16) 0.0261(6) Uani d 1 . .
C C1 0.83238(13) 0.0659(5) 0.66352(17) 0.0220(6) Uani d 1 . .
C C2 0.83797(15) -0.1250(6) 0.61264(19) 0.0273(7) Uani d 1 . .
H H2 0.8018 -0.2075 0.5881 0.033 Uiso calc 1 . .
C C3 0.89534(16) -0.1945(6) 0.59781(19) 0.0326(7) Uani d 1 . .
H H3 0.8983 -0.3252 0.5637 0.039 Uiso calc 1 . .
C C4 0.94865(15) -0.0745(6) 0.6324(2) 0.0328(7) Uani d 1 . .
H H4 0.9881 -0.1227 0.6221 0.039 Uiso calc 1 . .
C C5 0.94397(14) 0.1147(6) 0.68178(19) 0.0300(7) Uani d 1 . .
H H5 0.9803 0.1971 0.7057 0.036 Uiso calc 1 . .
C C6 0.88592(13) 0.1866(5) 0.69698(17) 0.0230(6) Uani d 1 . .
C C7 0.81087(13) 0.4751(5) 0.76739(17) 0.0211(6) Uani d 1 . .
C C8 0.75995(13) 0.3258(5) 0.72220(18) 0.0230(6) Uani d 1 . .
C C9 0.79322(14) 0.6470(5) 0.81425(18) 0.0247(6) Uani d 1 . .
H H9 0.7498 0.6536 0.8141 0.030 Uiso calc 1 . .
C C10 0.82944(14) 0.8232(5) 0.86485(18) 0.0241(6) Uani d 1 . .
C C11 0.89435(15) 0.8496(6) 0.8771(2) 0.0302(7) Uani d 1 . .
H H11 0.9186 0.7413 0.8531 0.036 Uiso calc 1 . .
C C12 0.92330(17) 1.0315(6) 0.9238(2) 0.0369(8) Uani d 1 . .
H H12 0.9672 1.0466 0.9312 0.044 Uiso calc 1 . .
C C13 0.88953(18) 1.1910(6) 0.9598(2) 0.0369(8) Uani d 1 . .
H H13 0.9098 1.3164 0.9911 0.044 Uiso calc 1 . .
C C14 0.82594(18) 1.1669(7) 0.9499(2) 0.0385(8) Uani d 1 . .
H H14 0.8024 1.2760 0.9747 0.046 Uiso calc 1 . .
C C15 0.79610(16) 0.9849(6) 0.9041(2) 0.0311(7) Uani d 1 . .
H H15 0.7524 0.9687 0.8990 0.037 Uiso calc 1 . .
C C16 0.71955(13) -0.0199(6) 0.64796(18) 0.0249(6) Uani d 1 . .
H H16A 0.6860 0.0110 0.6791 0.030 Uiso calc 1 . .
H H16B 0.7320 -0.1861 0.6567 0.030 Uiso calc 1 . .
C C17 0.69457(13) 0.0164(5) 0.56004(18) 0.0227(6) Uani d 1 . .
C C18 0.67379(13) 0.2130(6) 0.51696(18) 0.0246(6) Uani d 1 . .
H H18 0.6727 0.3689 0.5366 0.030 Uiso calc 1 . .
C C19 0.62386(14) 0.2704(7) 0.37012(18) 0.0316(7) Uani d 1 . .
H H19A 0.6295 0.1889 0.3199 0.038 Uiso calc 1 A 1
H H19B 0.6428 0.4280 0.3701 0.038 Uiso calc 1 A 1
C C20 0.55570(13) 0.2949(8) 0.3717(3) 0.0255(7) Uani d 0.503(3) B 1
C C21 0.52512(18) 0.4923(8) 0.3359(3) 0.0379(12) Uani d 0.503(3) B 1
H H21 0.5475 0.6087 0.3126 0.045 Uiso calc 0.503(3) B 1
C C22 0.46179(18) 0.5194(7) 0.3343(3) 0.0432(13) Uani d 0.503(3) B 1
H H22 0.4409 0.6543 0.3099 0.052 Uiso calc 0.503(3) B 1
C C23 0.42904(13) 0.3490(9) 0.3685(4) 0.0393(9) Uani d 0.503(3) B 1
H H23 0.3858 0.3675 0.3674 0.047 Uiso calc 0.503(3) B 1
C C24 0.45962(18) 0.1516(8) 0.4042(3) 0.0436(13) Uani d 0.503(3) B 1
H H24 0.4372 0.0352 0.4276 0.052 Uiso calc 0.503(3) B 1
C C25 0.52295(18) 0.1245(7) 0.4058(3) 0.0350(11) Uani d 0.503(3) B 1
H H25 0.5439 -0.0104 0.4302 0.042 Uiso calc 0.503(3) B 1
C C20A 0.55436(12) 0.2896(9) 0.3669(3) 0.0255(7) Uani d 0.497(3) B 2
C C21A 0.53085(17) 0.4827(8) 0.4020(3) 0.0379(12) Uani d 0.497(3) B 2
H H21A 0.5583 0.5996 0.4280 0.045 Uiso calc 0.497(3) B 2
C C22A 0.46723(19) 0.5046(8) 0.3990(3) 0.0432(13) Uani d 0.497(3) B 2
H H22A 0.4512 0.6365 0.4230 0.052 Uiso calc 0.497(3) B 2
C C23A 0.42711(13) 0.3335(9) 0.3609(4) 0.0393(9) Uani d 0.497(3) B 2
H H23A 0.3836 0.3485 0.3589 0.047 Uiso calc 0.497(3) B 2
C C24A 0.45062(17) 0.1404(8) 0.3258(3) 0.0436(13) Uani d 0.497(3) B 2
H H24A 0.4232 0.0235 0.2998 0.052 Uiso calc 0.497(3) B 2
C C25A 0.51425(19) 0.1185(7) 0.3288(3) 0.0350(11) Uani d 0.497(3) B 2
H H25A 0.5303 -0.0134 0.3048 0.042 Uiso calc 0.497(3) B 2
loop_
_atom_site_aniso_label
_atom_site_aniso_U_11
_atom_site_aniso_U_22
_atom_site_aniso_U_33
_atom_site_aniso_U_12
_atom_site_aniso_U_13
_atom_site_aniso_U_23
S1 0.0176(3) 0.0335(4) 0.0335(4) -0.0004(3) 0.0028(3) -0.0095(3)
O1 0.0164(10) 0.0406(14) 0.0449(14) 0.0019(9) 0.0033(9) -0.0071(11)
N1 0.0181(11) 0.0242(13) 0.0236(12) -0.0010(10) 0.0010(9) -0.0008(10)
N2 0.0276(14) 0.0271(15) 0.0320(14) 0.0011(11) -0.0009(11) -0.0045(11)
N3 0.0310(14) 0.0301(15) 0.0308(14) 0.0022(11) -0.0001(11) -0.0032(12)
N4 0.0201(12) 0.0288(14) 0.0281(13) 0.0005(10) 0.0006(10) 0.0033(11)
C1 0.0204(14) 0.0265(16) 0.0192(13) 0.0044(11) 0.0034(11) 0.0052(12)
C2 0.0269(15) 0.0266(17) 0.0272(15) 0.0037(13) 0.0012(12) 0.0000(13)
C3 0.0331(17) 0.0348(18) 0.0299(16) 0.0095(15) 0.0053(13) -0.0054(13)
C4 0.0258(16) 0.041(2) 0.0323(17) 0.0106(14) 0.0066(13) -0.0033(15)
C5 0.0201(14) 0.042(2) 0.0271(16) 0.0026(13) 0.0023(12) -0.0024(14)
C6 0.0218(14) 0.0279(16) 0.0186(13) 0.0041(12) 0.0016(11) 0.0018(11)
C7 0.0183(13) 0.0239(15) 0.0203(14) 0.0004(11) 0.0013(10) 0.0027(11)
C8 0.0203(14) 0.0253(16) 0.0230(14) 0.0004(11) 0.0024(11) 0.0035(12)
C9 0.0214(14) 0.0251(16) 0.0277(15) 0.0020(12) 0.0046(11) 0.0019(12)
C10 0.0280(15) 0.0217(16) 0.0231(14) 0.0011(12) 0.0061(12) 0.0024(11)
C11 0.0294(16) 0.0286(17) 0.0343(17) -0.0034(13) 0.0101(13) -0.0036(14)
C12 0.0386(18) 0.035(2) 0.0363(18) -0.0125(15) 0.0044(14) -0.0010(15)
C13 0.054(2) 0.0260(18) 0.0285(16) -0.0072(16) 0.0007(15) -0.0017(13)
C14 0.052(2) 0.032(2) 0.0304(17) 0.0071(16) 0.0044(15) -0.0067(14)
C15 0.0323(17) 0.0309(18) 0.0302(16) 0.0061(13) 0.0054(13) -0.0014(14)
C16 0.0220(14) 0.0253(16) 0.0264(15) -0.0041(12) 0.0017(11) 0.0019(12)
C17 0.0150(13) 0.0235(15) 0.0285(15) -0.0015(11) 0.0005(11) -0.0024(12)
C18 0.0208(14) 0.0236(16) 0.0289(15) -0.0014(11) 0.0027(11) -0.0020(12)
C19 0.0228(15) 0.043(2) 0.0274(15) 0.0015(14) 0.0005(12) 0.0090(15)
C20 0.0208(14) 0.0297(17) 0.0242(15) 0.0009(12) -0.0006(11) 0.0024(13)
C21 0.029(2) 0.038(3) 0.045(3) -0.004(2) 0.002(2) -0.002(3)
C22 0.032(3) 0.041(3) 0.055(3) 0.006(2) 0.005(3) -0.008(3)
C23 0.0213(16) 0.045(2) 0.051(2) 0.0018(15) 0.0041(15) -0.0034(18)
C24 0.025(2) 0.042(3) 0.062(3) -0.007(2) 0.004(2) -0.003(3)
C25 0.026(2) 0.032(3) 0.046(3) 0.0020(19) 0.003(2) 0.000(2)
C20A 0.0208(14) 0.0297(17) 0.0242(15) 0.0009(12) -0.0006(11) 0.0024(13)
C21A 0.029(2) 0.038(3) 0.045(3) -0.004(2) 0.002(2) -0.002(3)
C22A 0.032(3) 0.041(3) 0.055(3) 0.006(2) 0.005(3) -0.008(3)
C23A 0.0213(16) 0.045(2) 0.051(2) 0.0018(15) 0.0041(15) -0.0034(18)
C24A 0.025(2) 0.042(3) 0.062(3) -0.007(2) 0.004(2) -0.003(3)
C25A 0.026(2) 0.032(3) 0.046(3) 0.0020(19) 0.003(2) 0.000(2)
loop_
_atom_type_symbol
_atom_type_description
_atom_type_scat_dispersion_real
_atom_type_scat_dispersion_imag
_atom_type_scat_source
C C 0.0181 0.0091 'International Tables Vol C Tables 4.2.6.8 and 6.1.1.4'
H H 0.0000 0.0000 'International Tables Vol C Tables 4.2.6.8 and 6.1.1.4'
N N 0.0311 0.0180 'International Tables Vol C Tables 4.2.6.8 and 6.1.1.4'
O O 0.0492 0.0322 'International Tables Vol C Tables 4.2.6.8 and 6.1.1.4'
S S 0.3331 0.5567 'International Tables Vol C Tables 4.2.6.8 and 6.1.1.4'
loop_
_geom_angle_atom_site_label_1
_geom_angle_atom_site_label_2
_geom_angle_atom_site_label_3
_geom_angle
C7 S1 C6 104.38(14)
C8 N1 C1 126.5(2)
C8 N1 C16 115.4(2)
C1 N1 C16 118.1(3)
N3 N2 C17 108.8(3)
N2 N3 N4 106.7(3)
C18 N4 N3 111.3(3)
C18 N4 C19 128.3(3)
N3 N4 C19 120.1(3)
C6 C1 C2 118.2(3)
C6 C1 N1 121.7(3)
C2 C1 N1 120.1(3)
C3 C2 C1 120.9(3)
C3 C2 H2 119.6
C1 C2 H2 119.6
C2 C3 C4 120.4(3)
C2 C3 H3 119.8
C4 C3 H3 119.8
C5 C4 C3 119.5(3)
C5 C4 H4 120.3
C3 C4 H4 120.3
C4 C5 C6 120.4(3)
C4 C5 H5 119.8
C6 C5 H5 119.8
C1 C6 C5 120.5(3)
C1 C6 S1 124.6(2)
C5 C6 S1 114.8(2)
C9 C7 C8 116.3(3)
C9 C7 S1 122.3(2)
C8 C7 S1 121.4(2)
O1 C8 N1 119.5(3)
O1 C8 C7 119.6(3)
N1 C8 C7 120.9(2)
C7 C9 C10 131.0(3)
C7 C9 H9 114.5
C10 C9 H9 114.5
C11 C10 C15 117.0(3)
C11 C10 C9 126.2(3)
C15 C10 C9 116.8(3)
C12 C11 C10 120.8(3)
C12 C11 H11 119.6
C10 C11 H11 119.6
C13 C12 C11 121.1(3)
C13 C12 H12 119.5
C11 C12 H12 119.5
C12 C13 C14 119.3(3)
C12 C13 H13 120.3
C14 C13 H13 120.3
C13 C14 C15 120.5(3)
C13 C14 H14 119.7
C15 C14 H14 119.7
C14 C15 C10 121.2(3)
C14 C15 H15 119.4
C10 C15 H15 119.4
N1 C16 C17 113.9(2)
N1 C16 H16A 108.8
C17 C16 H16A 108.8
N1 C16 H16B 108.8
C17 C16 H16B 108.8
H16A C16 H16B 107.7
N2 C17 C18 108.3(3)
N2 C17 C16 120.0(3)
C18 C17 C16 131.7(3)
N4 C18 C17 104.9(3)
N4 C18 H18 127.6
C17 C18 H18 127.6
N4 C19 C20 110.9(3)
N4 C19 C20A 112.8(3)
N4 C19 H19A 109.5
C20 C19 H19A 109.5
N4 C19 H19B 109.5
C20 C19 H19B 109.5
H19A C19 H19B 108.1
C21 C20 C25 120.0
C21 C20 C19 118.1(3)
C25 C20 C19 121.9(3)
C22 C21 C20 120.0
C22 C21 H21 120.0
C20 C21 H21 120.0
C21 C22 C23 120.0
C21 C22 H22 120.0
C23 C22 H22 120.0
C24 C23 C22 120.0
C24 C23 H23 120.0
C22 C23 H23 120.0
C25 C24 C23 120.0
C25 C24 H24 120.0
C23 C24 H24 120.0
C24 C25 C20 120.0
C24 C25 H25 120.0
C20 C25 H25 120.0
C21A C20A C25A 120.0
C21A C20A C19 119.1(3)
C25A C20A C19 120.9(3)
C20A C21A C22A 120.0
C20A C21A H21A 120.0
C22A C21A H21A 120.0
C23A C22A C21A 120.0
C23A C22A H22A 120.0
C21A C22A H22A 120.0
C22A C23A C24A 120.0
C22A C23A H23A 120.0
C24A C23A H23A 120.0
C25A C24A C23A 120.0
C25A C24A H24A 120.0
C23A C24A H24A 120.0
C24A C25A C20A 120.0
C24A C25A H25A 120.0
C20A C25A H25A 120.0
loop_
_geom_bond_atom_site_label_1
_geom_bond_atom_site_label_2
_geom_bond_distance
S1 C7 1.732(3)
S1 C6 1.733(3)
O1 C8 1.229(4)
N1 C8 1.378(4)
N1 C1 1.419(4)
N1 C16 1.478(4)
N2 N3 1.324(4)
N2 C17 1.367(4)
N3 N4 1.348(4)
N4 C18 1.346(4)
N4 C19 1.471(4)
C1 C6 1.389(4)
C1 C2 1.402(4)
C2 C3 1.381(5)
C2 H2 0.9500
C3 C4 1.388(5)
C3 H3 0.9500
C4 C5 1.376(5)
C4 H4 0.9500
C5 C6 1.401(4)
C5 H5 0.9500
C7 C9 1.356(4)
C7 C8 1.497(4)
C9 C10 1.456(4)
C9 H9 0.9500
C10 C11 1.407(4)
C10 C15 1.410(4)
C11 C12 1.384(5)
C11 H11 0.9500
C12 C13 1.377(5)
C12 H12 0.9500
C13 C14 1.379(5)
C13 H13 0.9500
C14 C15 1.384(5)
C14 H14 0.9500
C15 H15 0.9500
C16 C17 1.496(4)
C16 H16A 0.9900
C16 H16B 0.9900
C17 C18 1.367(4)
C18 H18 0.9500
C19 C20 1.503(4)
C19 C20A 1.516(4)
C19 H19A 0.9900
C19 H19B 0.9900
C20 C21 1.3900
C20 C25 1.3900
C21 C22 1.3900
C21 H21 0.9500
C22 C23 1.3900
C22 H22 0.9500
C23 C24 1.3900
C23 H23 0.9500
C24 C25 1.3900
C24 H24 0.9500
C25 H25 0.9500
C20A C21A 1.3900
C20A C25A 1.3900
C21A C22A 1.3900
C21A H21A 0.9500
C22A C23A 1.3900
C22A H22A 0.9500
C23A C24A 1.3900
C23A H23A 0.9500
C24A C25A 1.3900
C24A H24A 0.9500
C25A H25A 0.9500
loop_
_geom_hbond_atom_site_label_D
_geom_hbond_atom_site_label_H
_geom_hbond_atom_site_label_A
_geom_hbond_site_symmetry_A
_geom_hbond_distance_DH
_geom_hbond_distance_HA
_geom_hbond_distance_DA
_geom_hbond_angle_DHA
C19 H19A O1 4_565 0.99 2.55 3.395(4) 144
loop_
_geom_torsion_atom_site_label_1
_geom_torsion_atom_site_label_2
_geom_torsion_atom_site_label_3
_geom_torsion_atom_site_label_4
_geom_torsion
C17 N2 N3 N4 0.3(3)
N2 N3 N4 C18 -0.4(3)
N2 N3 N4 C19 -175.0(3)
C8 N1 C1 C6 6.7(4)
C16 N1 C1 C6 -174.5(3)
C8 N1 C1 C2 -173.5(3)
C16 N1 C1 C2 5.3(4)
C6 C1 C2 C3 1.6(4)
N1 C1 C2 C3 -178.2(3)
C1 C2 C3 C4 -0.7(5)
C2 C3 C4 C5 0.0(5)
C3 C4 C5 C6 -0.2(5)
C2 C1 C6 C5 -1.7(4)
N1 C1 C6 C5 178.1(3)
C2 C1 C6 S1 179.7(2)
N1 C1 C6 S1 -0.5(4)
C4 C5 C6 C1 1.0(5)
C4 C5 C6 S1 179.8(3)
C7 S1 C6 C1 -1.7(3)
C7 S1 C6 C5 179.6(2)
C6 S1 C7 C9 178.1(3)
C6 S1 C7 C8 -1.1(3)
C1 N1 C8 O1 171.2(3)
C16 N1 C8 O1 -7.7(4)
C1 N1 C8 C7 -9.6(4)
C16 N1 C8 C7 171.5(3)
C9 C7 C8 O1 6.3(4)
S1 C7 C8 O1 -174.4(2)
C9 C7 C8 N1 -172.9(3)
S1 C7 C8 N1 6.3(4)
C8 C7 C9 C10 -179.2(3)
S1 C7 C9 C10 1.5(5)
C7 C9 C10 C11 -1.3(5)
C7 C9 C10 C15 177.6(3)
C15 C10 C11 C12 -1.9(5)
C9 C10 C11 C12 176.9(3)
C10 C11 C12 C13 0.3(5)
C11 C12 C13 C14 0.9(5)
C12 C13 C14 C15 -0.2(5)
C13 C14 C15 C10 -1.6(5)
C11 C10 C15 C14 2.6(5)
C9 C10 C15 C14 -176.4(3)
C8 N1 C16 C17 100.5(3)
C1 N1 C16 C17 -78.5(3)
N3 N2 C17 C18 -0.2(3)
N3 N2 C17 C16 178.1(3)
N1 C16 C17 N2 126.5(3)
N1 C16 C17 C18 -55.6(4)
N3 N4 C18 C17 0.2(3)
C19 N4 C18 C17 174.3(3)
N2 C17 C18 N4 0.0(3)
C16 C17 C18 N4 -178.1(3)
C18 N4 C19 C20 -79.4(4)
N3 N4 C19 C20 94.2(4)
C18 N4 C19 C20A -82.2(4)
N3 N4 C19 C20A 91.4(4)
N4 C19 C20 C21 150.6(3)
N4 C19 C20 C25 -30.9(5)
C25 C20 C21 C22 0.0
C19 C20 C21 C22 178.5(5)
C20 C21 C22 C23 0.0
C21 C22 C23 C24 0.0
C22 C23 C24 C25 0.0
C23 C24 C25 C20 0.0
C21 C20 C25 C24 0.0
C19 C20 C25 C24 -178.5(5)
N4 C19 C20A C21A 92.4(4)
N4 C19 C20A C25A -88.2(4)
C25A C20A C21A C22A 0.0
C19 C20A C21A C22A 179.4(5)
C20A C21A C22A C23A 0.0
C21A C22A C23A C24A 0.0
C22A C23A C24A C25A 0.0
C23A C24A C25A C20A 0.0
C21A C20A C25A C24A 0.0
C19 C20A C25A C24A -179.4(5)

_cod_database_fobs_code 1544626
