#------------------------------------------------------------------------------
#$Date: 2016-11-06 04:04:01 +0200 (Sun, 06 Nov 2016) $
#$Revision: 187967 $
#$URL: file:///home/coder/svn-repositories/cod/cif/1/54/43/1544323.cif $
#------------------------------------------------------------------------------
#
# This file is available in the Crystallography Open Database (COD),
# http://www.crystallography.net/
#
# All data on this site have been placed in the public domain by the
# contributors.
#
data_1544323
loop_
_publ_author_name
'Feng, Wei-Xu'
'van der Lee, Arie'
'Legrand, Yves-Marie'
'Petit, Eddy'
'Dumitrescu, Dan'
'Su, Cheng-Yong'
'Barboiu, Mihail'
_publ_section_title
;
 Adaptive Encapsulation of \w-Amino Acids and Their Guanidinium-Amide
 Congeners.
;
_journal_issue                   21
_journal_name_full               'Organic letters'
_journal_page_first              5556
_journal_page_last               5559
_journal_paper_doi               10.1021/acs.orglett.6b02802
_journal_volume                  18
_journal_year                    2016
_chemical_formula_sum            'C30 H48 N10 O16 S4'
_chemical_formula_weight         933.02
_space_group_crystal_system      triclinic
_space_group_IT_number           2
_space_group_name_Hall           '-P 1'
_space_group_name_H-M_alt        'P -1'
_symmetry_space_group_name_Hall  '-P 1'
_symmetry_space_group_name_H-M   'P -1'
_atom_sites_solution_hydrogens   mixed
_audit_creation_method           SHELXL-2014/6
_cell_angle_alpha                96.042(5)
_cell_angle_beta                 101.703(6)
_cell_angle_gamma                91.370(6)
_cell_formula_units_Z            1
_cell_length_a                   7.6006(7)
_cell_length_b                   10.2393(7)
_cell_length_c                   12.7741(8)
_cell_measurement_reflns_used    5936
_cell_measurement_temperature    175(2)
_cell_measurement_theta_max      28.24
_cell_measurement_theta_min      2.14
_cell_volume                     967.02(13)
_computing_structure_refinement  'SHELXL-2014/6 (Sheldrick, 2014)'
_diffrn_ambient_temperature      175(2)
_diffrn_measured_fraction_theta_full 0.960
_diffrn_measured_fraction_theta_max 0.991
_diffrn_measurement_device_type
'Agilent Technologies Gemini-S four-circle diffractometer'
_diffrn_measurement_method       '\f and \w scans'
_diffrn_radiation_monochromator  graphite
_diffrn_radiation_source         'fine-focus sealed tube'
_diffrn_radiation_type           MoK\a
_diffrn_radiation_wavelength     0.71073
_diffrn_reflns_av_R_equivalents  0.0339
_diffrn_reflns_av_unetI/netI     0.0526
_diffrn_reflns_Laue_measured_fraction_full 0.960
_diffrn_reflns_Laue_measured_fraction_max 0.991
_diffrn_reflns_limit_h_max       8
_diffrn_reflns_limit_h_min       -8
_diffrn_reflns_limit_k_max       12
_diffrn_reflns_limit_k_min       -11
_diffrn_reflns_limit_l_max       12
_diffrn_reflns_limit_l_min       -15
_diffrn_reflns_number            5936
_diffrn_reflns_point_group_measured_fraction_full 0.960
_diffrn_reflns_point_group_measured_fraction_max 0.991
_diffrn_reflns_theta_full        25.242
_diffrn_reflns_theta_max         25.000
_diffrn_reflns_theta_min         1.638
_exptl_absorpt_coefficient_mu    0.333
_exptl_absorpt_correction_T_max  1.00000
_exptl_absorpt_correction_T_min  0.92184
_exptl_absorpt_correction_type   multi-scan
_exptl_absorpt_process_details
;
Correction based on redundant symmetry equivalent reflections
;
_exptl_crystal_colour            yellow
_exptl_crystal_density_diffrn    1.602
_exptl_crystal_description       rod
_exptl_crystal_F_000             490
_exptl_crystal_size_max          0.44
_exptl_crystal_size_mid          0.26
_exptl_crystal_size_min          0.21
_refine_diff_density_max         0.408
_refine_diff_density_min         -0.397
_refine_diff_density_rms         0.068
_refine_ls_extinction_method     none
_refine_ls_goodness_of_fit_ref   1.050
_refine_ls_hydrogen_treatment    constr
_refine_ls_matrix_type           full
_refine_ls_number_parameters     271
_refine_ls_number_reflns         3363
_refine_ls_number_restraints     3
_refine_ls_restrained_S_all      1.057
_refine_ls_R_factor_all          0.0526
_refine_ls_R_factor_gt           0.0433
_refine_ls_shift/su_max          0.000
_refine_ls_shift/su_mean         0.000
_refine_ls_structure_factor_coef Fsqd
_refine_ls_weighting_details
'w=1/[\s^2^(Fo^2^)+(0.0385P)^2^+0.8755P] where P=(Fo^2^+2Fc^2^)/3'
_refine_ls_weighting_scheme      calc
_refine_ls_wR_factor_gt          0.0994
_refine_ls_wR_factor_ref         0.1055
_reflns_Friedel_coverage         0.000
_reflns_number_gt                2854
_reflns_number_total             3363
_reflns_threshold_expression     'I > 2\s(I)'
_cod_data_source_file            ol6b02802_si_006.cif
_cod_data_source_block           feng48
_cod_depositor_comments
'Adding full bibliography for 1544319--1544323.cif.'
_cod_database_code               1544323
_shelx_space_group_comment
;
The symmetry employed for this shelxl refinement is uniquely defined
by the following loop, which should always be used as a source of
symmetry information in preference to the above space-group names.
They are only intended as comments.
;
_shelxl_version_number           2014/6
_shelx_res_file
;
TITL feng48_a.res in P-1
REM Old TITL Feng48 in P-1

REM SHELXT solution in P-1
REM R1 0.123,  Rweak 0.009,  Alpha 0.033,  Orientation as input
REM Formula found by SHELXT:  C18 N2 O8 S2

CELL  0.71073   7.6006  10.2393  12.7741   96.042  101.703   91.370
ZERR   1.000   0.0007   0.0007   0.0008    0.005    0.006    0.006
LATT  1
SFAC C H N O S
UNIT 30 48 10 16 4
L.S. 10
omit -3 50
DFIX 0.84 0.02 O8 H8D O8 H8C
DANG 1.34 0.01 H8D H8C
BOND $H
LIST 6
ACTA
FMAP 2
PLAN 20
WGHT    0.038500    0.875500
FVAR       2.32087
S001  5    0.752952    0.518674    0.135357    11.00000    0.01742    0.01384 =
         0.00925    0.00139    0.00103    0.00439
S002  5    0.931570    0.075754    0.312159    11.00000    0.02169    0.00919 =
         0.01244   -0.00079    0.00274    0.00195
O6    4    0.627328    0.613200    0.165686    11.00000    0.02026    0.02142 =
         0.01613    0.00189    0.00250    0.01080
O1    4    0.812807    0.024545    0.375579    11.00000    0.02542    0.01353 =
         0.02545    0.00169    0.00927   -0.00365
O2    4    1.116820    0.042034    0.344900    11.00000    0.02258    0.01627 =
         0.02770    0.00173    0.00722    0.00642
O4    4    0.662303    0.408186    0.062517    11.00000    0.03413    0.01681 =
         0.01439   -0.00088   -0.00631    0.00266
O5    4    0.896485    0.579597    0.094460    11.00000    0.02260    0.02524 =
         0.01886    0.01033    0.00704    0.00337
O7    4    0.283542    0.711739    0.298979    11.00000    0.02685    0.02387 =
         0.02548   -0.00190    0.00553   -0.00329
O3    4    0.863603    0.045162    0.196893    11.00000    0.05121    0.01465 =
         0.01403   -0.00303   -0.00123    0.00565
N1    3    0.730036    0.501273    0.858020    11.00000    0.02054    0.02823 =
         0.01392    0.00122    0.00083   -0.00100
AFIX  33
H1A   2    0.780548    0.520247    0.927367    11.00000   -1.50000
H1B   2    0.627624    0.454277    0.851611    11.00000   -1.50000
H1C   2    0.804572    0.455089    0.824852    11.00000   -1.50000
AFIX   0
N3    3    0.459255    0.846490    0.178718    11.00000    0.03188    0.02010 =
         0.01561    0.00149    0.00834    0.01206
AFIX  43
H3B   2    0.511876    0.779829    0.154594    11.00000   -1.20000
AFIX   0
N2    3    0.480327    0.877289    0.289077    11.00000    0.02527    0.01584 =
         0.01376    0.00126    0.00230    0.00146
AFIX  43
H2B   2    0.545006    0.945237    0.321816    11.00000   -1.20000
AFIX   0
N5    3    0.275562    1.018122    0.142641    11.00000    0.03574    0.01934 =
         0.01633   -0.00028    0.00033    0.01296
AFIX  93
H5B   2    0.213851    1.064139    0.096985    11.00000   -1.20000
H5C   2    0.281892    1.038424    0.210406    11.00000   -1.20000
AFIX   0
O8    4    0.885847   -0.156798    0.035859    11.00000    0.11692    0.01890 =
         0.02240    0.00022   -0.00377    0.01546
AFIX   3
H8D   2    0.889577   -0.237278    0.046669    11.00000   -1.20000
H8C   2    0.902137   -0.105808    0.094299    11.00000   -1.20000
AFIX   0
C5    1    0.910504    0.529819    0.355370    11.00000    0.01055    0.01186 =
         0.01052    0.00161    0.00410    0.00153
N4    3    0.354190    0.882030    0.005542    11.00000    0.03840    0.02343 =
         0.01887    0.00289    0.00618    0.01298
AFIX  93
H4B   2    0.293627    0.926067   -0.042098    11.00000   -1.20000
H4C   2    0.411056    0.815182   -0.014003    11.00000   -1.20000
AFIX   0
C6    1    0.973416    0.462416    0.447843    11.00000    0.00882    0.01273 =
         0.01065    0.00124    0.00221    0.00147
C4    1    0.853503    0.452569    0.255711    11.00000    0.01253    0.01289 =
         0.01160    0.00321    0.00266    0.00220
C7    1    0.908804    0.670149    0.369397    11.00000    0.01604    0.01328 =
         0.01208    0.00485    0.00277    0.00342
AFIX  43
H7A   2    0.871981    0.714323    0.309266    11.00000   -1.20000
AFIX   0
C1    1    0.981729    0.322799    0.438166    11.00000    0.00986    0.01253 =
         0.01468    0.00168    0.00366    0.00141
C3    1    0.864776    0.316854    0.246613    11.00000    0.01346    0.01450 =
         0.01217   -0.00196    0.00196    0.00137
AFIX  43
H3C   2    0.828846    0.268611    0.179400    11.00000   -1.20000
AFIX   0
C8    1    0.958720    0.740712    0.466760    11.00000    0.01657    0.00951 =
         0.01554    0.00288    0.00290    0.00235
AFIX  43
H8A   2    0.954491    0.831829    0.472371    11.00000   -1.20000
AFIX   0
C2    1    0.928412    0.251721    0.335523    11.00000    0.01338    0.01066 =
         0.01254    0.00001    0.00448    0.00152
C15   1    0.359880    0.917147    0.108979    11.00000    0.01987    0.01236 =
         0.01797   -0.00090    0.00361   -0.00164
C14   1    0.395925    0.797158    0.344622    11.00000    0.02028    0.01310 =
         0.02091    0.00167    0.00369    0.00666
C12   1    0.486896    0.695912    0.516921    11.00000    0.02170    0.01528 =
         0.01773    0.00193    0.00507    0.00015
AFIX  23
H12A  2    0.376050    0.642158    0.503066    11.00000   -1.20000
H12B  2    0.573797    0.646930    0.484618    11.00000   -1.20000
AFIX   0
C11   1    0.557532    0.722302    0.637739    11.00000    0.02049    0.01871 =
         0.01760    0.00059    0.00556    0.00069
AFIX  23
H11A  2    0.663275    0.781479    0.651564    11.00000   -1.20000
H11B  2    0.466824    0.765775    0.670484    11.00000   -1.20000
AFIX   0
C13   1    0.451679    0.822634    0.464435    11.00000    0.02807    0.01734 =
         0.01870    0.00112    0.00556    0.00260
AFIX  23
H13A  2    0.357892    0.868235    0.492660    11.00000   -1.20000
H13B  2    0.560008    0.879400    0.483007    11.00000   -1.20000
AFIX   0
C9    1    0.692123    0.625561    0.808158    11.00000    0.02237    0.02324 =
         0.01738    0.00318    0.00558    0.00151
AFIX  23
H9A   2    0.803570    0.677355    0.816253    11.00000   -1.20000
H9B   2    0.612474    0.676479    0.845151    11.00000   -1.20000
AFIX   0
C10   1    0.606031    0.597754    0.690035    11.00000    0.02141    0.01945 =
         0.01594    0.00072    0.00410   -0.00031
AFIX  23
H10A  2    0.497991    0.542121    0.682133    11.00000   -1.20000
H10B  2    0.688281    0.550020    0.652895    11.00000   -1.20000

AFIX   0
HKLF 4

REM  feng48_a.res in P-1
REM R1 =  0.0433 for    2854 Fo > 4sig(Fo)  and  0.0526 for all    3363 data
REM    271 parameters refined using      3 restraints

END

WGHT      0.0384      0.8832

REM Highest difference peak  0.408,  deepest hole -0.397,  1-sigma level  0.068
Q1    1   0.8132  0.4929  0.2064  11.00000  0.05    0.41
Q2    1   0.6067  0.9103  0.3191  11.00000  0.05    0.41
Q3    1   0.7727 -0.1586  0.0556  11.00000  0.05    0.40
Q4    1   0.7260  0.4257  0.8004  11.00000  0.05    0.34
Q5    1   1.0000  0.5000  0.5000  10.50000  0.05    0.32
Q6    1   0.6536  0.4775  0.8989  11.00000  0.05    0.29
Q7    1   0.9542  0.2821  0.3866  11.00000  0.05    0.27
Q8    1   0.9424  0.6413  0.1292  11.00000  0.05    0.25
Q9    1   0.9426  0.1721  0.3209  11.00000  0.05    0.25
Q10   1   0.9589  0.4995  0.4062  11.00000  0.05    0.24
Q11   1   0.8430  0.3934  0.2569  11.00000  0.05    0.24
Q12   1   0.7573 -0.0221  0.3043  11.00000  0.05    0.21
Q13   1   0.7705  0.4174  0.0527  11.00000  0.05    0.21
Q14   1   1.1136 -0.3289  0.0685  11.00000  0.05    0.21
Q15   1   1.1666  0.0407  0.4185  11.00000  0.05    0.20
Q16   1   0.8956  0.5005  0.2936  11.00000  0.05    0.20
Q17   1   0.9321  0.3884  0.4365  11.00000  0.05    0.20
Q18   1   0.8846  0.2816  0.2961  11.00000  0.05    0.20
Q19   1   0.9426  0.7861  0.9031  11.00000  0.05    0.20
Q20   1   0.6233  0.3998  0.0295  11.00000  0.05    0.20
;
_shelx_res_checksum              82658
_shelx_hkl_file
;
   0   0  -1 302.189 19.8997   4
   0   0  -2 9452.76 267.880   4
   0   0  -3 802.277 57.4957   4
   0   0  -4 14397.9 428.554   4
   0   0  -5 10457.0 349.771   4
   0   0  -6 31774.2 895.495   4
   0   0  -7 523.586 72.5356   4
   0   0  -8 538.461 75.4214   4
   0   0  -9 473.984 79.3049   4
   0   0 -10 1179.67 129.235   4
   0   0 -11 87.4325 41.9400   4
   0   0 -12 932.046 127.234   4
   0   0 -13 539.649 103.503   4
   0   0 -14 17.0343 33.7753   4
   0   1 -14 1924.05 196.798   4
   0   1 -13 64.4628 53.7034   4
   0   1 -12 269.711 74.2967   4
   0   1 -11 781.114 112.217   4
   0   1 -10 10818.2 453.240   4
   0   1  -9 83.4537 40.3451   4
   0   1  -8 5358.36 260.332   4
   0   1  -7 1682.10 123.970   4
   0   1  -6 10591.2 371.357   4
   0   1  -5 1501.64 98.2459   4
   0   1  -5 1486.41 52.0633   1
   0   1  -5 1492.04 53.1269   2
   0   1  -4 3418.52 146.146   4
   0   1  -4 3199.05 98.2315   2
   0   1  -4 3119.32 95.8828   1
   0   1  -3 9731.94 259.911   1
   0  -1   3 9989.50 261.158   1
   0   1  -3 10009.2 299.309   4
   0  -1   2 7923.27 212.829   1
   0   1  -2 8132.41 230.816   4
   0   1  -2 7664.44 211.234   1
   0  -1   1 1732.64 62.3571   1
   0  -1   0 1727.94 62.2669   1
   0  -1  -1 2524.43 80.8706   4
   0   1   1 2526.60 80.7861   4
   0   1   1 2538.89 82.8534   1
   0  -1  -1 2579.44 83.3917   1
   0   1   2 2137.81 72.3284   1
   0   1   2 2070.71 85.4291   4
   0  -1  -2 2197.96 73.3420   1
   0  -1  -2 2197.11 86.7496   4
   0  -1  -3 35523.0 893.211   4
   0  -1  -3 33576.8 848.869   1
   0   1   3 34262.3 848.689   1
   0   1   3 33401.4 888.811   4
   0   1   4 2898.30 128.072   4
   0  -1  -4 2671.18 126.035   4
   0   1   4 2433.60 81.7889   2
   0   1   4 2587.02 81.0792   1
   0   1   5 1523.60 55.0910   2
   0   1   5 1795.56 107.020   4
   0   1   5 1612.06 54.6563   1
   0  -1  -5 1655.92 104.498   4
   0  -1  -6 1198.75 96.5216   4
   0  -1  -7 297.140 53.0864   4
   0  -1  -8 42.9201 23.4715   4
   0  -1  -9 1484.83 135.848   4
   0  -1 -10 2058.65 169.367   4
   0  -1 -11 1475.07 151.195   4
   0  -1 -12 206.051 66.3718   4
   0  -1 -13-4.44852 30.6055   4
   0  -1 -14 632.834 109.610   4
   0   2 -14 2727.46 239.385   4
   0   2 -13 157.269 55.2790   4
   0   2 -12 2336.17 202.308   4
   0   2 -11 1347.69 145.973   4
   0   2 -10 65.8121 43.4320   4
   0   2  -9 69.7069 37.9734   4
   0   2  -8 505.710 31.8663   1
   0   2  -8 523.631 33.0692   2
   0   2  -8 598.173 77.3814   4
   0   2  -7 458.841 33.8924   2
   0   2  -7 481.777 33.2027   1
   0   2  -7 505.763 68.5767   4
   0   2  -6 65.4443 21.5643   4
   0   2  -6 19.6778 9.43105   1
   0   2  -6 33.6406 12.4658   2
   0   2  -5 26374.6 668.290   1
   0  -2   5 26020.3 669.582   1
   0   2  -5 24696.6 670.134   2
   0   2  -5 27157.6 734.717   4
   0  -2   4 16433.1 441.703   1
   0   2  -4 16336.8 439.456   1
   0   2  -4 16426.4 477.707   4
   0   2  -3 4759.71 170.081   4
   0  -2   3 4741.05 157.777   1
   0   2  -3 4730.58 155.400   1
   0  -2   2 9584.45 273.073   1
   0   2  -2 8957.00 266.560   4
   0   2  -2 9675.78 272.317   1
   0  -2   1 16929.9 455.481   1
   0  -2   0 19575.0 519.339   1
   0  -2  -1 20473.0 546.615   1
   0   2   1 20244.2 522.051   4
   0   2   1 20992.3 546.616   5
   0   2   1 20626.2 546.176   1
   0  -2  -1 23288.7 527.809   3
   0  -2  -1 21420.2 548.010   5
   0  -2  -1 20762.0 522.034   4
   0  -2  -2 2414.85 92.8661   4
   0   2   2 2255.81 91.4784   4
   0  -2  -2 2499.69 98.3541   1
   0  -2  -2 2484.49 100.622   5
   0   2   2 2336.41 94.7552   1
   0   2   3 1853.52 90.3699   4
   0   2   3 1865.99 80.2394   1
   0  -2  -3 1815.38 91.2584   4
   0  -2  -3 1842.93 80.9427   1
   0  -2  -4 24038.5 644.831   1
   0   2   4 24794.0 644.817   1
   0  -2  -4 26359.8 690.471   4
   0   2   4 25075.4 682.762   4
   0   2   5 13822.6 419.205   4
   0  -2  -5 13370.2 419.565   4
   0   2   5 13126.0 363.044   2
   0   2   5 12883.4 358.566   1
   0   2   6 363.963 30.9302   2
   0   2   6 316.710 49.0579   4
   0  -2  -6 375.187 56.4043   4
   0   2   6 315.729 27.3456   1
   0   2   7 4248.25 135.946   2
   0  -2  -7 4089.33 209.726   4
   0   2   7 4101.95 133.382   1
   0   2   8 1302.18 53.6654   1
   0  -2  -8 1619.49 129.270   4
   0   2   8 1276.11 53.8063   2
   0  -2  -9 1545.49 137.413   4
   0  -2 -10 530.863 86.3575   4
   0  -2 -11 2351.89 189.723   4
   0  -2 -12 58.2060 53.3769   4
   0  -2 -13 173.298 46.6393   4
   0  -2 -14 65.3717 53.9335   4
   0   3 -14 72.3200 31.6828   4
   0   3 -13-15.0099 39.2525   4
   0   3 -12 890.351 126.309   4
   0   3 -11 1024.44 125.514   4
   0   3 -10 2036.07 84.3788   1
   0   3 -10 1755.54 157.366   4
   0   3 -10 1963.73 84.3978   2
   0   3  -9 5202.42 174.044   1
   0   3  -9 4990.92 174.135   2
   0   3  -9 4834.72 260.764   4
   0   3  -8 1345.25 120.420   4
   0   3  -8 1382.76 77.0274   2
   0   3  -8 1501.54 77.2483   1
   0   3  -7 66.5945 16.7762   1
   0   3  -7 67.5254 28.3298   4
   0   3  -7 125.914 24.3384   2
   0   3  -6 210.169 28.8331   1
   0   3  -6 233.820 44.4970   4
   0   3  -6 181.363 28.4532   2
   0   3  -5 5754.73 199.091   1
   0  -3   5 5755.38 201.798   1
   0   3  -5 5710.96 228.385   4
   0   3  -4 1360.96 84.7827   4
   0   3  -4 1277.95 76.0720   1
   0  -3   4 1391.33 79.4314   1
   0   3  -3 1420.64 80.2093   1
   0  -3   3 1514.71 83.7981   1
   0   3  -3 1420.18 77.6027   4
   0  -3   2 30395.1 816.976   1
   0   3  -2 31434.5 815.579   1
   0  -3   1 1984.15 98.2366   1
   0  -3   0 2.10885 18.9212   1
   0   3   1 27793.5 736.905   1
   0  -3  -1 30984.9 700.850   3
   0  -3  -1 27195.2 690.915   4
   0   3   1 27590.4 691.228   4
   0  -3  -1 27736.4 739.746   1
   0   3   1 28628.6 736.685   5
   0  -3  -2 1111.44 71.9487   1
   0  -3  -2 1240.90 60.5850   4
   0  -3  -2 1349.50 77.1514   5
   0   3   2 1181.07 72.4003   1
   0  -3  -2 1295.97 62.3789   3
   0   3   2 1191.31 59.5776   4
   0  -3  -3 5723.41 199.765   5
   0   3   3 5583.56 192.357   1
   0   3   3 5455.07 187.373   4
   0  -3  -3 5021.45 188.910   1
   0  -3  -3 5409.92 186.334   4
   0   3   4 2716.49 116.899   1
   0  -3  -4 2570.72 116.422   1
   0  -3  -4 2552.96 124.246   4
   0   3   4 2523.58 123.240   4
   0   3   5 70.0003 19.8565   2
   0   3   5 149.033 32.5591   4
   0  -3  -5 97.8303 29.1846   4
   0   3   5 136.139 22.2408   1
   0   3   6 159.497 34.3967   4
   0   3   6 140.528 23.7492   1
   0   3   6 141.165 24.0077   2
   0  -3  -6 156.138 37.4036   4
   0  -3  -7 20039.6 609.309   4
   0   3   7 18598.8 520.006   2
   0   3   7 18756.5 515.644   1
   0  -3  -8 260.905 53.7915   4
   0   3   8 313.747 32.9328   2
   0   3   8 288.761 31.2754   1
   0   3   9 1109.11 61.7268   2
   0  -3  -9 1190.93 119.495   4
   0   3   9 1172.19 61.7887   1
   0  -3 -10 635.599 93.6155   4
   0  -3 -11 137.577 55.1026   4
   0  -3 -12 3267.61 240.774   4
   0  -3 -13 87.9527 48.8605   4
   0  -3 -14 316.768 80.9945   4
   0   4 -14 1039.39 145.047   4
   0   4 -13-7.00598 35.6474   4
   0   4 -12 1558.72 162.848   4
   0   4 -11 757.214 106.776   4
   0   4 -10 2659.56 126.051   2
   0   4 -10 2459.51 190.255   4
   0   4  -9 2182.43 111.683   1
   0   4  -9 2298.90 169.884   4
   0   4  -9 2292.86 118.408   2
   0   4  -8 2780.51 133.788   2
   0   4  -8 2549.73 125.683   1
   0   4  -8 2456.06 165.609   4
   0   4  -7 3549.90 160.909   2
   0   4  -7 3679.31 157.331   1
   0   4  -7 3389.41 188.441   4
   0   4  -6 1004.82 73.5351   1
   0   4  -6 784.786 79.4615   4
   0  -4   6 927.739 72.1895   1
   0   4  -5 7434.72 278.099   4
   0  -4   5 7595.31 270.850   1
   0   4  -5 8127.18 272.035   1
   0   4  -4 20257.2 588.879   4
   0   4  -4 21670.8 600.759   1
   0  -4   4 21072.9 599.874   1
   0   4  -3 175.818 25.9855   4
   0  -4   3 191.721 33.2492   1
   0   4  -3 178.400 31.1891   1
   0   4  -2 842.496 50.3153   4
   0   4  -2 950.304 71.2393   1
   0  -4   2 925.731 72.4813   1
   0  -4   1 2913.36 140.413   1
   0   4   0 1367.43 86.1277   5
   0   4   0 961.770 47.9884   3
   0  -4   0 1048.86 79.0994   1
   0   4   1 40907.9 1027.09   4
   0  -4  -1 40001.6 1096.46   1
   0   4   1 43385.9 1099.65   1
   0   4   1 43893.3 1096.50   5
   0   4   2 1289.62 62.0341   4
   0   4   2 1356.90 88.1950   1
   0  -4  -2 1237.53 85.2818   1
   0  -4  -2 1426.58 67.6867   3
   0   4   2 1165.60 84.5938   5
   0  -4  -2 1221.79 92.4001   5
   0  -4  -2 1301.85 63.0033   4
   0  -4  -3 3472.04 135.390   3
   0   4   3 3632.96 157.820   1
   0  -4  -3 3286.29 154.119   1
   0  -4  -3 3427.46 136.496   4
   0  -4  -3 3597.46 157.885   5
   0   4   3 3327.92 134.658   4
   0   4   4 6847.24 237.648   4
   0  -4  -4 6776.02 239.324   4
   0  -4  -4 7140.28 256.106   5
   0   4   4 7016.67 246.688   1
   0  -4  -4 6151.02 240.483   1
   0   4   5 2435.16 129.009   4
   0   4   5 2329.02 120.013   1
   0  -4  -5 2548.27 137.438   5
   0  -4  -5 1880.20 116.941   4
   0  -4  -6 224.673 47.1250   5
   0  -4  -6 291.258 46.9922   4
   0   4   6 208.790 36.1916   2
   0   4   6 226.087 33.9253   1
   0   4   7 2337.89 119.773   1
   0  -4  -7 2651.65 158.217   4
   0   4   7 2443.93 125.421   2
   0  -4  -8 9288.41 362.179   4
   0   4   8 9000.54 292.302   2
   0   4   8 8193.59 283.427   1
   0   4   9 201.471 31.8135   2
   0  -4  -9 199.639 55.9959   4
   0  -4 -10 7134.84 342.486   4
   0  -4 -11 800.454 110.175   4
   0  -4 -12 217.660 64.4305   4
   0  -4 -13 286.525 74.3697   4
   0  -4 -14 1314.95 165.612   4
   0   5 -14 113.949 69.4083   4
   0   5 -13 135.965 63.7421   4
   0   5 -12 996.488 134.363   4
   0   5 -11 1085.03 128.408   4
   0   5 -10 377.449 76.7897   4
   0   5 -10 455.827 53.5104   2
   0   5  -9 1548.47 103.476   1
   0   5  -9 1777.46 113.343   2
   0   5  -9 1317.61 130.930   4
   0   5  -8 1185.13 89.6572   1
   0   5  -8 1199.21 113.498   4
   0   5  -8 1108.33 91.3239   2
   0   5  -7 78.5255 25.5030   1
   0   5  -7 82.7829 34.7917   4
   0   5  -7 31.1718 21.3229   2
   0   5  -6 852.372 80.2665   4
   0   5  -6 917.369 78.6167   1
   0  -5   6 923.328 81.0437   1
   0  -5   5 1834.73 114.487   1
   0   5  -5 1435.67 98.9561   4
   0   5  -5 1589.29 107.601   1
   0   5  -4 640.860 64.7751   1
   0  -5   4 642.960 67.0317   1
   0   5  -4 464.460 48.2763   4
   0  -5   3 1108.55 89.5411   1
   0   5  -3 1122.77 87.4511   1
   0   5  -3 1071.02 66.6569   4
   0   5  -2 2712.59 143.197   1
   0   5  -2 2486.45 98.1081   4
   0  -5   2 2365.51 138.130   1
   0  -5   1 20305.5 606.320   1
   0  -5   0 5921.21 235.015   1
   0   5   0 5757.78 169.522   3
   0   5   0 4036.03 207.711   5
   0  -5  -1 4400.73 198.747   1
   0   5   1 4988.22 204.530   5
   0   5   1 4561.19 199.897   1
   0   5   1 4345.46 129.883   4
   0  -5  -2 8439.24 315.773   1
   0   5   2 8593.19 252.393   4
   0   5   2 9692.02 324.038   5
   0   5   2 9429.56 321.441   1
   0  -5  -2 8597.78 253.967   4
   0  -5  -3 5.64607 16.8679   1
   0   5   3-4.61639 17.7485   1
   0  -5  -3 22.3394 22.0905   5
   0  -5  -3 10.1946 11.6025   4
   0  -5  -3 14.3136 10.7767   3
   0   5   3 5.33239 10.7609   4
   0  -5  -4 2201.47 115.014   3
   0  -5  -4 2557.17 142.602   5
   0   5   4 2478.70 136.250   1
   0   5   4 2271.15 116.156   4
   0  -5  -4 2359.23 118.244   4
   0  -5  -4 2306.78 133.382   1
   0  -5  -5 5406.63 218.352   3
   0  -5  -5 5681.92 242.098   5
   0   5   5 6148.23 244.361   2
   0   5   5 5503.38 228.549   1
   0  -5  -5 5447.82 223.213   4
   0   5   6 4424.06 196.816   1
   0  -5  -6 4517.24 207.911   4
   0  -5  -6 4639.64 215.630   5
   0   5   6 4325.04 200.167   2
   0   5   7 17499.7 544.890   1
   0  -5  -7 18875.4 587.944   5
   0   5   7 18125.4 556.138   2
   0  -5  -7 18769.6 588.900   4
   0  -5  -8 1890.81 136.739   5
   0   5   8 1559.80 106.328   2
   0   5   8 1400.71 97.7806   1
   0  -5  -8 1611.32 130.591   4
   0   5   9 301.084 44.0981   2
   0  -5  -9 346.988 58.9861   5
   0  -5  -9 291.961 61.8752   4
   0  -5 -10-39.7723 25.6682   5
   0  -5 -10 1.81365 37.4421   4
   0  -5 -11 930.278 107.163   5
   0  -5 -11 1059.76 125.381   4
   0  -5 -12 371.866 78.5252   4
   0  -5 -13 718.360 118.613   4
   0  -5 -14 1029.24 143.285   4
   0   6 -14 559.153 110.147   4
   0   6 -13 2795.79 234.950   4
   0   6 -12 2022.89 187.703   4
   0   6 -11 1518.59 155.518   4
   0   6 -10 2393.98 148.672   2
   0   6 -10 2240.01 182.924   4
   0   6  -9 2356.72 175.794   4
   0   6  -9 2271.69 147.045   2
   0   6  -8 9307.73 383.427   4
   0   6  -8 9948.24 369.991   2
   0   6  -7 2771.58 166.191   4
   0   6  -7 2628.31 161.334   2
   0   6  -6 85.3820 28.6268   4
   0  -6   6 121.962 38.2230   1
   0   6  -5 303.028 44.2310   4
   0  -6   5 462.844 63.0115   1
   0   6  -4 488.802 49.1703   4
   0  -6   4 475.714 63.9641   1
   0  -6   3 8331.81 315.836   1
   0   6  -3 7540.09 247.822   4
   0   6  -2 1944.84 82.8304   4
   0  -6   2 2209.18 141.084   1
   0  -6   1 7686.80 300.620   1
   0   6  -1 7151.78 196.750   4
   0   6  -1 7283.43 197.816   4
   0   6   0 55.1589 13.4678   3
   0  -6   0 64.2209 27.7811   1
   0   6   1 7746.25 300.237   5
   0  -6  -1 7520.70 303.743   1
   0  -6  -2 148.473 41.0782   1
   0   6   2 215.028 43.8417   5
   0  -6  -3 6526.87 283.569   1
   0  -6  -3 7303.45 229.210   4
   0  -6  -4 4017.11 201.996   1
   0  -6  -4 4139.87 168.132   4
   0  -6  -4 3909.01 166.505   3
   0   6   5 14802.8 406.639   2
   0  -6  -5 15026.3 358.559   4
   0  -6  -5 14367.5 355.249   3
   0  -6  -6 23.3225 18.7529   3
   0  -6  -6 58.5343 29.8529   4
   0  -6  -6 42.0637 26.9059   5
   0   6   6 14.4215 26.0283   2
   0  -6  -7 21.7091 28.5429   5
   0   6   7 19.2590 22.5533   2
   0  -6  -7 11.9650 16.1875   3
   0  -6  -7 9.67800 22.0714   4
   0   6   8 2907.60 164.351   2
   0  -6  -8 2736.53 175.849   4
   0  -6  -8 2852.38 182.775   5
   0  -6  -8 2625.36 168.289   3
   0  -6  -9 39.0052 36.8090   4
   0   6   9 0.95549 19.6527   2
   0  -6  -9 11.8506 19.3958   3
   0  -6  -9 49.3129 31.9195   5
   0  -6 -10 6578.45 311.752   5
   0  -6 -10 5828.14 309.254   4
   0  -6 -11 1818.52 155.094   5
   0  -6 -11 1481.15 151.287   4
   0  -6 -12 299.724 71.5861   4
   0  -6 -13 111.506 58.3996   4
   0   7 -14 170.255 54.8677   4
   0   7 -13 524.950 99.8327   4
   0   7 -12 929.458 126.564   4
   0   7 -11 1829.36 171.204   4
   0   7 -11 1704.60 134.899   2
   0   7 -10 442.734 78.6000   4
   0   7 -10 588.691 79.6460   2
   0   7  -9 1912.79 145.203   2
   0   7  -9 1997.72 160.756   4
   0   7  -8 20.2223 19.9799   4
   0   7  -8 36.1682 27.0332   2
   0   7  -7 1471.54 127.010   2
   0   7  -7 1512.20 121.725   4
   0   7  -6 2775.94 158.841   4
   0  -7   6 3163.75 185.943   1
   0   7  -6 2745.36 179.957   2
   0  -7   5 4101.66 216.603   1
   0   7  -5 3690.83 174.797   4
   0  -7   4 13.3921 22.5475   1
   0   7  -4 1.94629 10.3694   4
   0   7  -3 13.6861 9.62403   4
   0  -7   3 76.9400 38.4334   1
   0  -7   2 1340.86 118.992   1
   0   7  -2 1455.01 64.6875   4
   0  -7   1 256.943 55.1775   1
   0  -7   0 25.8629 27.5267   1
   0   7   0 32.6266 11.8141   3
   0  -7  -1 130.462 39.1132   1
   0  -7  -2 2231.05 153.861   1
   0  -7  -3 758.272 87.1560   1
   0  -7  -4 10093.4 321.537   4
   0   7   4 10659.1 408.009   2
   0  -7  -5 408.761 52.0182   3
   0  -7  -5 483.925 53.9258   4
   0   7   5 477.217 73.2013   2
   0   7   6 545.569 77.0270   2
   0  -7  -6 715.551 73.9037   3
   0  -7  -6 757.188 75.6233   4
   0  -7  -7 76.9525 43.0770   5
   0   7   7 106.524 37.4558   2
   0  -7  -7 49.0604 20.7314   4
   0  -7  -7 65.8566 29.2907   3
   0   7   8 164.090 44.8031   2
   0  -7  -8 185.514 48.9850   4
   0  -7  -8 238.874 55.7885   5
   0  -7  -8 124.017 38.7206   3
   0  -7  -9 1118.46 114.694   4
   0   7   9 930.063 95.9141   2
   0  -7  -9 997.514 106.005   3
   0  -7  -9 1051.00 114.998   5
   0  -7 -10 260.235 59.9928   3
   0  -7 -10 289.811 62.5504   5
   0  -7 -10 329.772 66.6663   4
   0  -7 -11 1662.97 152.288   3
   0   8 -13 2212.50 207.831   4
   0   8 -12 320.804 75.3458   4
   0   8 -11 20.9370 29.5265   4
   0   8 -10 88.8329 36.3981   4
   0   8 -10 159.542 47.5596   2
   0   8  -9 763.984 97.5835   4
   0   8  -9 895.982 104.087   2
   0   8  -8 372.178 65.6190   4
   0   8  -8 312.838 63.8455   2
   0   8  -7 83.1880 40.0998   2
   0   8  -7 62.0881 27.6910   4
   0   8  -6 4060.23 238.409   2
   0   8  -6 4105.07 200.726   4
   0   8  -5 2226.29 171.457   2
   0   8  -5 2482.77 134.817   4
   0  -8   5 2435.89 172.984   1
   0  -8   4 631.241 87.6702   1
   0   8  -4 639.937 56.5941   4
   0  -8   3 48.8539 40.7410   1
   0   8  -3 27.0586 14.3185   4
   0  -8   2 220.731 54.9890   1
   0   8  -1 5212.23 178.976   3
   0  -8   1 5371.19 272.241   1
   0  -8   0 202.386 54.3954   1
   0  -8  -1 410.166 66.3667   1
   0  -8  -2-6.80819 30.0412   1
   0   8   3 7175.04 335.880   2
   0   8   4 1048.12 114.958   2
   0  -8  -5 9146.80 308.513   4
   0   8   5 9001.83 388.795   2
   0  -8  -6 6.98042 14.6316   3
   0   8   6 9.23977 20.9808   2
   0  -8  -6 36.9843 22.8762   4
   0  -8  -7 4740.26 225.801   3
   0   8   7 4487.03 251.469   2
   0   8   8 2195.32 164.455   2
   0   9 -12 4589.19 295.497   4
   0   9 -11 353.107 73.4717   4
   0   9 -10 651.445 95.9729   2
   0   9 -10 745.795 98.6384   4
   0   9  -9 15.6629 19.8471   4
   0   9  -9 29.5987 29.5648   2
   0   9  -8 12.5990 25.2121   2
   0   9  -8 1.71143 18.3245   4
   0   9  -7 1204.30 105.836   4
   0   9  -7 1305.44 136.787   2
   0   9  -6 138.966 35.4980   4
   0   9  -6 34.0328 29.7957   2
   0   9  -5 94.0349 25.5402   4
   0   9  -5 89.0798 31.8318   2
   0   9  -4 29.6645 38.4597   2
   0   9  -4 98.1288 21.5052   4
   0  -9   3 870.469 108.546   1
   0   9  -3 822.607 109.695   2
   0  -9   2 137.350 49.8590   1
   0  -9   1 1179.91 126.084   1
   0  -9   0 3295.11 217.389   1
   0  -9  -1 37.7934 31.7454   1
   0   9   1 75.1327 42.8437   2
   0   9   2 1068.06 126.598   2
   0   9   3 36.4624 34.6106   2
   0   9   4 1880.73 166.036   2
   0   9   5 596.794 89.7741   2
   0   9   6 6437.91 329.641   2
   0   9   7 811.064 113.044   2
   0   9   8 3322.92 221.397   2
   0  10 -10 210.949 59.7354   2
   0  10  -9 2545.82 207.802   2
   0  10  -8 575.563 94.0912   2
   0  10  -7 80.0093 37.0422   2
   0  10  -6 34.2084 31.6253   2
   0  10  -5 2098.36 189.386   2
   0  10  -4 3935.25 262.716   2
   0  10  -3 757.735 110.071   2
   0  10  -2 2315.84 197.622   2
   0  10  -1 788.758 113.972   2
   0  10   0 306.111 72.8634   2
   0  10   1 77.8544 46.4727   2
   0  10   2 1740.76 169.945   2
   0  10   3 1732.07 166.370   2
   0  10   4 630.144 97.5715   2
   0  10   5 611.382 98.6377   2
   0  10   6 160.428 56.6640   2
   0  10   7 1714.99 166.690   2
   0  10   8 169.639 59.2712   2
   0  11 -10 1154.00 144.118   2
   0  11  -9 487.492 94.5148   2
   0  11  -8 443.029 88.1235   2
   0  11  -7-10.8303 27.2943   2
   0  11  -6 2169.54 201.333   2
   0  11  -5 921.535 128.431   2
   0  11  -4 569.052 105.300   2
   0  11  -3 993.198 132.739   2
   0  11  -2 81.7640 61.1532   2
   0  11  -1 3289.68 252.935   2
   0  11   0 197.841 65.2772   2
   0  11   1 126.081 64.2483   2
   0  11   2 264.680 80.1369   2
   0  11   3 174.673 61.9945   2
   0  11   4 1860.71 186.010   2
   0  11   5 2571.05 218.957   2
   0  11   6 902.341 128.786   2
   0  11   7 212.559 57.3412   2
   0  12  -3 625.433 116.540   2
   0  12  -2 2276.79 219.503   2
   0  12  -1 323.294 81.1591   2
   0  12   0 272.789 87.0581   2
   0  12   1 11.0497 39.5960   2
  -1  12   0 100.304 61.4705   2
  -1  12  -1 394.651 91.3557   2
  -1  12  -2 718.386 118.547   2
  -1  11   7 2113.18 198.001   2
  -1  11   6 689.478 110.965   2
  -1  11   5 2793.46 228.039   2
  -1  11   4 150.699 62.3631   2
  -1  11   3 730.109 117.603   2
  -1  11   2 406.357 87.2476   2
  -1  11   1 1416.98 160.226   2
  -1  11   0 660.240 114.469   2
  -1  11  -1 139.625 64.4176   2
  -1  11  -2 1568.62 168.678   2
  -1  11  -3 676.592 111.564   2
  -1  11  -4 374.091 86.2290   2
  -1  11  -5 856.398 124.224   2
  -1  11  -6 1191.43 147.610   2
  -1  11  -7 1173.44 146.598   2
  -1  11  -8 10.5009 32.4461   2
  -1  11  -9 321.222 74.7916   2
  -1  11 -10 270.301 73.2847   2
  -1  10   8 730.208 107.450   2
  -1  10   7 1285.07 143.817   2
  -1  10   6 2966.56 221.344   2
  -1  10   5 400.101 79.5068   2
  -1  10   4 1343.84 147.462   2
  -1  10   3 59.9700 45.0419   2
  -1  10   2 460.005 88.4119   2
  -1  10   1 363.131 77.5512   2
  -1  10   0 6171.37 337.491   2
  -1  10  -1 1034.63 130.252   2
  -1  10  -2 59.9750 41.9783   2
  -1  10  -3 241.730 70.5828   2
  -1  10  -4 257.503 70.5298   2
  -1  10  -5 184.807 55.6442   2
  -1  10  -6-10.4756 27.4487   2
  -1  10  -7 497.696 86.4139   2
  -1  10  -8 312.725 73.6018   2
  -1  10  -9 586.280 97.5701   2
  -1  10 -10 712.616 105.531   2
   1  -9 -10 77.1764 50.3084   5
  -1   9   8 696.320 99.3298   2
  -1   9   7 1802.28 160.649   2
  -1   9   6 258.181 60.2481   2
  -1   9   5 851.164 106.624   2
  -1   9   4 608.560 92.3133   2
  -1   9   3 1158.59 126.382   2
  -1   9   2 191.094 63.7031   2
  -1   9   1 690.732 99.2988   2
  -1   9   0 4020.66 248.757   2
  -1   9  -1 37.6356 42.6125   2
  -1   9  -2 461.225 83.0259   2
  -1   9  -2 469.409 43.7042   4
  -1   9  -3 2313.11 119.636   4
  -1   9  -3 2510.41 192.927   2
  -1   9  -4 2244.61 127.579   4
  -1   9  -4 2119.53 176.225   2
  -1   9  -5 38.6976 24.5467   4
  -1   9  -5 53.4267 34.6403   2
  -1   9  -6 468.486 80.3572   2
  -1   9  -6 463.413 63.7987   4
  -1   9  -7 140.089 41.7449   4
  -1   9  -7 113.447 41.6626   2
  -1   9  -8-12.8262 17.5820   4
  -1   9  -8-9.10905 19.3534   2
  -1   9  -9-5.74302 15.0309   4
  -1   9  -9 15.1540 18.7676   2
  -1   9 -10 7236.99 358.037   2
  -1   9 -10 7169.17 367.809   4
  -1   9 -11 464.506 91.0246   4
  -1   9 -12 113.818 50.5495   4
   1  -8 -11 135.224 51.1560   5
   1  -8 -10 186.645 64.2979   5
   1  -8  -9 102.835 51.6461   5
  -1   8   9 97.8476 38.4221   2
   1  -8  -8 118.507 62.6497   5
   1  -8  -8 135.351 39.2640   4
  -1   8   8 140.384 42.1450   2
   1  -8  -7 154.619 40.1040   4
  -1   8   7 157.333 50.4029   2
   1  -8  -7 236.761 65.7819   5
  -1   8   6 598.414 88.1172   2
  -1   8   5 2313.84 173.069   2
  -1   8   4 3601.25 221.568   2
  -1   8   3 121.821 24.0322   4
  -1   8   3 233.252 63.9373   2
  -1   8   2 2020.49 158.909   2
  -1   8   2 1638.21 85.7294   4
  -1   8   1 26.7712 22.8371   2
  -1   8   1 83.8415 18.7984   4
  -1   8   0 3795.64 140.876   4
  -1   8   0 3923.09 230.174   2
  -1   8  -1 1338.36 128.979   2
  -1   8  -1 1391.75 77.4088   4
  -1   8  -2 2840.03 194.428   2
  -1   8  -3 51.3546 24.8463   2
  -1   8  -4 341.413 68.1945   2
  -1   8  -4 361.479 49.3987   4
  -1   8  -5 4900.60 267.152   2
  -1   8  -5 5182.22 227.928   4
  -1   8  -6 659.707 88.4023   2
  -1   8  -6 745.187 82.5231   4
  -1   8  -7 1468.91 135.767   2
  -1   8  -7 1695.39 134.066   4
  -1   8  -8 128.055 42.9876   4
  -1   8  -8 120.446 44.3242   2
  -1   8  -9 2257.25 179.505   4
  -1   8  -9 2364.27 175.647   2
  -1   8 -10 827.823 99.3325   2
  -1   8 -10 1014.98 124.515   4
  -1   8 -11 14.6633 40.0469   4
  -1   8 -12 1271.40 157.264   4
  -1   8 -13 688.533 123.493   4
   1  -7 -12 1407.85 157.432   4
   1  -7 -11 8.02271 28.2846   4
   1  -7 -11 14.3126 38.0716   5
   1  -7 -10 415.284 80.7213   4
   1  -7 -10 250.073 63.7810   5
  -1   7   9 336.188 60.2628   2
   1  -7  -9 236.994 51.1870   3
   1  -7  -9 270.623 60.6937   4
   1  -7  -9 286.982 66.3035   5
   1  -7  -8 10591.1 412.977   4
  -1   7   8 10436.7 404.397   2
   1  -7  -8 10955.9 440.425   5
   1  -7  -8 9823.47 374.292   3
   1  -7  -7 622.940 65.7479   3
   1  -7  -7 561.773 74.4405   4
  -1   7   7 625.678 79.8291   2
   1  -7  -7 509.193 79.3333   5
  -1   7   6 2461.44 164.040   2
   1  -7  -6 2528.10 150.290   4
   1  -7  -6 2536.66 178.542   5
   1  -7  -6 2390.62 129.338   3
  -1   7   6 2246.48 141.042   4
   1  -7  -5 5830.52 201.608   3
   1  -7  -5 6068.45 232.540   4
  -1   7   5 5590.46 223.664   4
  -1   7   5 5847.70 267.357   2
  -1   7   4 113.515 30.2761   4
  -1   7   4 106.718 43.3969   2
  -1   7   3 2669.90 126.600   4
  -1   7   3 2739.38 177.551   2
  -1   7   2 4712.17 174.124   4
  -1   7   2 4854.66 246.343   2
  -1   7   1 5679.95 192.348   4
  -1   7   1 5978.13 279.661   2
  -1   7   0 583.207 76.6083   2
  -1   7   0 435.611 39.5692   4
  -1   7  -1 3791.06 213.698   2
  -1   7  -2 4246.91 229.985   2
  -1   7  -3 605.249 79.0959   2
  -1   7  -4 5610.00 271.652   2
  -1   7  -5 4070.39 221.585   2
  -1   7  -5 3994.88 196.594   4
  -1   7  -6 297.653 55.7726   2
  -1   7  -6 265.801 52.4339   4
  -1   7  -7 3.23100 18.7165   2
  -1   7  -7 6.15319 15.2134   4
  -1   7  -8 23.7171 22.1714   4
  -1   7  -8 27.2564 17.7617   2
  -1   7  -9 413.709 63.6086   2
  -1   7  -9 398.678 70.7238   4
  -1   7 -10 4492.14 275.409   4
  -1   7 -10 4809.12 246.256   2
  -1   7 -11 1735.78 173.050   4
  -1   7 -12 733.620 116.476   4
  -1   7 -13 67.7077 53.4819   4
   1  -6 -14 774.289 127.881   4
   1  -6 -13-22.5931 29.3499   4
   1  -6 -12 29.0115 33.4339   4
   1  -6 -12 8.71603 33.4370   5
   1  -6 -11 229.799 58.5087   5
   1  -6 -11 46.5457 37.6872   4
   1  -6 -10 515.956 86.9721   4
   1  -6 -10 559.738 88.6726   5
  -1   6   9 5362.65 244.783   2
   1  -6  -9 5555.98 286.737   5
   1  -6  -9 5405.24 281.456   4
   1  -6  -8 1689.55 136.953   4
  -1   6   8 1644.78 122.507   2
   1  -6  -8 1558.23 136.818   5
   1  -6  -7 875.742 93.8911   4
   1  -6  -7 951.726 104.410   5
  -1   6   7 829.367 85.7640   2
  -1   6   6 4936.89 233.286   2
  -1   6   6 4703.99 221.322   4
   1  -6  -6 5281.00 232.968   4
   1  -6  -6 4978.25 252.381   5
  -1   6   5 11200.0 382.135   4
   1  -6  -5 11728.8 428.431   5
  -1   6   5 12068.0 417.288   2
   1  -6  -5 11026.4 352.516   3
   1  -6  -5 11923.6 389.931   4
  -1   6   4 1255.74 106.366   2
  -1   6   4 1267.10 88.5204   4
   1  -6  -4 1367.77 118.875   5
   1  -6  -4 1292.06 89.5317   4
   1  -6  -4 1130.61 67.9032   3
   1  -6  -3 123.471 45.1005   5
  -1   6   3 166.319 40.4741   2
  -1   6   3 87.6221 22.0395   4
  -1   6   2 1355.88 77.1497   4
  -1   6   2 1446.86 113.847   2
  -1   6   1 64.0347 29.5139   2
  -1   6   1 54.9537 14.8476   4
  -1   6   0 103.944 30.1423   2
  -1   6   0 75.9784 17.9152   4
  -1   6  -1 2010.82 137.945   2
  -1   6  -2 2031.22 140.089   2
  -1   6  -3 3433.78 188.087   2
  -1   6  -4 1638.15 124.070   2
  -1   6  -5 208.265 43.6688   2
  -1   6  -6 77.0269 27.3755   4
  -1   6  -6 67.6666 29.3096   2
  -1   6  -7 20.9074 22.7744   2
  -1   6  -7-17.3363 21.3565   4
  -1   6  -8 50.8782 21.9216   2
  -1   6  -8 132.010 47.2093   4
  -1   6  -9 1247.27 126.981   4
  -1   6  -9 1279.78 108.062   2
  -1   6 -10 119.630 46.7946   4
  -1   6 -10 81.8000 31.1291   2
  -1   6 -11 2273.99 198.011   4
  -1   6 -12 720.073 114.823   4
  -1   6 -13 647.418 117.029   4
   1  -5 -14 760.857 125.414   4
   1  -5 -13 792.320 122.206   4
   1  -5 -12 110.884 52.1332   4
   1  -5 -11 57.0308 34.0986   4
   1  -5 -10 106.871 47.9189   4
  -1   5   9 2264.98 133.177   2
   1  -5  -9 2315.58 172.404   4
  -1   5   8 7620.05 287.653   2
   1  -5  -8 7991.20 333.606   4
  -1   5   8 7126.57 278.701   1
  -1   5   7-2.12791 14.0335   1
   1  -5  -7 22.3224 31.7366   5
  -1   5   7 22.2778 20.6185   2
   1  -5  -7 12.3800 21.9353   4
  -1   5   6 3279.63 171.482   1
   1  -5  -6 3791.76 202.769   5
   1  -5  -6 3809.31 190.289   4
  -1   5   6 3535.55 176.861   2
  -1   5   6 3656.12 185.886   4
   1  -5  -5 1198.09 93.4250   4
  -1   5   5 1231.15 93.5394   4
  -1   5   5 1269.58 98.5871   2
   1  -5  -5 1221.80 104.980   5
  -1   5   5 1320.27 100.944   1
  -1   5   4 7709.13 275.919   4
   1  -5  -4 7924.62 278.068   4
  -1   5   4 8258.36 303.351   1
   1  -5  -4 7507.49 302.994   5
  -1   5   4 7875.52 297.324   2
  -1   5   3 2051.02 127.560   1
   1  -5  -3 1990.74 128.683   5
  -1   5   3 1680.75 96.4594   4
   1  -5  -3 1824.97 99.5462   4
   1  -5  -3 1886.90 79.3265   3
  -1   5   3 1881.20 122.149   2
  -1   5   2 6634.68 261.656   1
  -1   5   2 6128.07 212.764   4
   1  -5  -2 6528.67 266.735   5
  -1   5   2 6596.26 261.260   2
  -1   5   1 821.513 78.8324   1
  -1   5   1 960.201 82.5391   2
  -1   5   1 891.278 57.5759   4
  -1   5   1 887.374 80.3638   5
  -1   5   0 5395.51 232.706   2
  -1   5  -1 2499.66 144.510   2
  -1   5  -2 1987.42 127.891   2
  -1   5  -2 2147.18 129.230   1
  -1   5  -3 471.908 59.5189   2
  -1   5  -3 618.501 65.9413   1
  -1   5  -4 2173.88 131.426   1
  -1   5  -4 2016.18 127.615   2
  -1   5  -5 112.508 31.4218   1
  -1   5  -5 57.9570 21.9250   2
  -1   5  -6 1214.91 96.0521   2
  -1   5  -6 1371.89 99.6021   1
  -1   5  -6 1089.76 98.5433   4
  -1   5  -7 567.773 64.4623   2
  -1   5  -7 584.971 64.3971   1
  -1   5  -7 677.699 81.9500   4
  -1   5  -8 8674.10 318.014   1
  -1   5  -8 9390.76 331.545   2
  -1   5  -8 8819.71 375.710   4
  -1   5  -9 761.731 99.8767   4
  -1   5  -9 743.864 70.9255   1
  -1   5  -9 903.089 81.7839   2
  -1   5 -10-10.3929 25.5768   4
  -1   5 -10 23.1812 22.1850   2
  -1   5 -11 251.042 68.9373   4
  -1   5 -12 99.7597 57.6639   4
  -1   5 -13-16.9298 37.3241   4
   1  -4 -14 114.507 54.2252   4
   1  -4 -13 33.9611 48.6548   4
   1  -4 -12 620.318 100.679   4
   1  -4 -11 244.531 60.5652   4
   1  -4 -10 8945.14 396.057   4
  -1   4  10 8799.01 291.120   2
  -1   4   9 684.943 60.3321   2
   1  -4  -9 782.094 96.3731   4
  -1   4   9 598.813 55.5607   1
   1  -4  -8 47.1921 28.8455   4
  -1   4   8 15.0967 14.5689   1
  -1   4   8 13.9056 18.2297   2
  -1   4   7 498.533 53.9385   2
   1  -4  -7 523.002 69.3141   4
  -1   4   7 495.875 52.4497   1
  -1   4   6 809.540 69.6610   2
  -1   4   6 879.181 72.7965   1
   1  -4  -6 906.101 84.6100   4
  -1   4   6 1004.35 86.8361   4
  -1   4   5 2692.61 138.103   1
  -1   4   5 2936.06 150.076   4
  -1   4   5 2617.63 135.747   2
   1  -4  -5 2721.50 145.644   4
   1  -4  -4 955.888 86.6781   5
  -1   4   4 1078.79 80.7916   2
  -1   4   4 1061.50 79.2965   4
   1  -4  -4 1167.10 82.2840   4
  -1   4   4 1081.76 82.0952   1
   1  -4  -3 195.225 30.8189   4
   1  -4  -3 158.470 34.5522   5
  -1   4   3 210.550 30.8630   4
  -1   4   3 185.335 35.8132   2
  -1   4   3 147.921 30.7602   1
  -1   4   2 916.971 61.0263   4
  -1   4   2 903.729 75.2325   2
   1  -4  -2 980.801 42.7321   3
   1  -4  -2 960.369 77.8598   5
  -1   4   2 925.085 74.9863   1
  -1   4   1 15566.3 454.856   1
   1  -4  -1 15196.5 459.371   5
  -1   4   1 14268.8 448.915   2
  -1   4   1 14107.7 406.647   4
  -1   4   0 939.444 76.8651   2
  -1   4  -1 1253.24 87.7109   2
  -1   4  -2 4.48647 16.7014   2
  -1   4  -2 29.7080 20.5880   1
  -1   4  -3 1998.49 114.621   1
  -1   4  -3 1935.58 113.279   2
  -1   4  -4 7305.61 262.296   1
  -1   4  -4 6993.97 259.069   2
  -1   4  -5 167.656 33.7124   2
  -1   4  -5 212.287 34.8600   1
  -1   4  -6 227.292 35.5896   1
  -1   4  -6 212.517 34.3879   2
  -1   4  -6 236.998 45.9233   4
  -1   4  -7 1033.00 77.3942   1
  -1   4  -7 919.698 96.5592   4
  -1   4  -7 1094.63 80.8597   2
  -1   4  -8 729.215 91.4446   4
  -1   4  -8 692.671 61.7079   1
  -1   4  -8 753.072 67.0829   2
  -1   4  -9 3671.79 228.205   4
  -1   4  -9 3960.16 168.540   2
  -1   4  -9 3694.74 159.908   1
  -1   4 -10 438.077 83.9812   4
  -1   4 -10 551.926 52.0749   2
  -1   4 -11 6952.14 364.355   4
  -1   4 -12 384.899 80.5730   4
  -1   4 -13 253.351 72.6807   4
  -1   4 -14 2.37489 46.4524   4
   1  -3 -14 1063.35 146.407   4
   1  -3 -13 897.448 129.250   4
   1  -3 -12 42.6441 38.8382   4
   1  -3 -11 109.062 43.9261   4
  -1   3  10 1206.19 64.8906   2
   1  -3 -10 1223.54 127.974   4
   1  -3  -9 2273.83 163.948   4
  -1   3   9 2074.17 98.0682   2
  -1   3   9 1970.86 94.3769   1
  -1   3   8 93.9705 20.5478   2
  -1   3   8 112.863 21.4306   1
   1  -3  -8 84.1901 32.9093   4
  -1   3   7 280.260 35.5298   2
   1  -3  -7 303.496 55.9292   4
  -1   3   7 250.013 32.9796   1
  -1   3   6 1111.65 72.3801   1
  -1   3   6 1034.52 89.3274   4
  -1   3   6 982.471 69.0400   2
   1  -3  -6 1106.74 95.0557   4
  -1   3   5 124.499 25.5470   1
  -1   3   5 90.5903 27.3478   4
  -1   3   5 111.983 25.8931   2
   1  -3  -5 79.3422 22.4414   4
   1  -3  -4 140.569 29.2204   4
  -1   3   4 116.837 27.2860   4
  -1   3   4 137.028 26.1714   1
  -1   3   4 161.237 30.1875   2
  -1   3   3 817.569 64.0728   2
  -1   3   3 978.134 67.6182   1
   1  -3  -3 904.221 65.0676   4
  -1   3   3 958.779 66.0132   4
  -1   3   2 34.0582 14.1134   4
  -1   3   2 38.2289 18.0700   2
   1  -3  -2 37.8278 18.0554   4
   1  -3  -2 39.2651 25.4150   5
  -1   3   2 32.6353 18.1997   1
  -1   3   1 9851.91 303.243   2
  -1   3   1 8890.80 274.788   4
   1  -3  -1 10188.0 309.277   5
  -1   3   0 6868.67 235.323   2
  -1   3  -1 38.3826 19.2344   2
  -1   3  -2 40826.4 1043.35   1
  -1   3  -2 39092.1 1040.29   2
  -1   3  -3 2590.10 121.419   2
  -1   3  -3 2583.64 121.010   1
  -1   3  -4 14618.5 430.843   2
  -1   3  -4 14818.9 431.547   1
  -1   3  -5 28.2716 15.7249   1
  -1   3  -5-19.7149 19.7225   2
  -1   3  -6 2905.36 129.738   2
  -1   3  -6 2683.15 159.761   4
  -1   3  -6 2868.37 127.427   1
  -1   3  -7 4033.30 157.080   1
  -1   3  -7 3956.75 159.597   2
  -1   3  -7 4020.33 211.428   4
  -1   3  -8 422.590 42.1590   2
  -1   3  -8 290.859 59.3510   4
  -1   3  -8 362.273 38.2318   1
  -1   3  -9 84.8989 44.5668   4
  -1   3  -9 39.8392 14.8641   2
  -1   3  -9 52.6409 13.6082   1
  -1   3 -10 2272.31 95.9162   2
  -1   3 -10 2653.99 195.628   4
  -1   3 -11 1203.35 136.517   4
  -1   3 -12-6.13546 29.3120   4
  -1   3 -13 877.072 130.983   4
  -1   3 -14 2639.53 242.376   4
   1  -2 -14 83.3005 48.5518   4
   1  -2 -13 135.979 53.0662   4
   1  -2 -12 781.169 113.750   4
   1  -2 -11 3262.17 225.552   4
   1  -2 -10 168.699 51.5046   4
  -1   2   9 1205.26 55.1774   1
  -1   2   9 1273.29 57.6720   2
   1  -2  -9 1504.53 131.727   4
   1  -2  -8 944.266 100.015   4
  -1   2   8 673.290 43.7377   1
  -1   2   8 735.632 45.9580   2
  -1   2   7 6331.87 205.359   1
  -1   2   7 6625.19 206.591   2
   1  -2  -7 6904.82 283.963   4
  -1   2   6 7.67267 21.6663   4
   1  -2  -6-11.7039 26.0331   4
  -1   2   6 5.65157 9.70960   1
  -1   2   6 9.63684 10.8081   2
   1  -2  -5 2291.17 128.970   4
  -1   2   5 2330.10 101.112   1
  -1   2   5 2272.69 100.584   2
  -1   2   5 2581.18 136.727   4
  -1   2   4 5310.57 201.993   4
  -1   2   4 5206.23 176.272   2
   1  -2  -4 5051.94 198.524   4
   1  -2  -4 5213.26 178.629   2
  -1   2   3 3509.79 140.544   4
  -1   2   3 3282.27 128.334   2
   1  -2  -3 3454.29 131.833   2
   1  -2  -3 3373.60 140.045   4
   1  -2  -2 4982.84 170.051   4
   1  -2  -2 4847.92 169.079   2
  -1   2   2 4871.08 167.825   4
  -1   2   2 4803.76 168.058   2
   1  -2  -1 81454.7 1957.91   5
  -1   2   1 79491.8 1940.28   4
  -1   2   1 75244.0 1948.96   2
   1  -2   0 51.1499 18.5515   5
  -1   2   0 46.9469 19.0668   2
  -1   2  -1 19775.5 534.362   2
   1  -2   2 6279.93 206.112   2
  -1   2  -2 6501.98 207.677   2
  -1   2  -3 4826.83 169.224   2
   1  -2   3 5027.54 170.890   2
   1  -2   4 17144.6 461.912   2
  -1   2  -4 16312.6 458.557   2
  -1   2  -5 11089.0 319.197   1
  -1   2  -5 10986.8 320.365   2
  -1   2  -6 3153.78 118.623   1
  -1   2  -6 2978.90 117.377   2
  -1   2  -6 2950.89 166.805   4
  -1   2  -7 319.381 58.5995   4
  -1   2  -7 300.991 29.8372   2
  -1   2  -7 294.706 29.0939   1
  -1   2  -8 1594.72 133.434   4
  -1   2  -8 1639.86 71.1169   1
  -1   2  -8 1759.76 74.6425   2
  -1   2  -9 3295.76 100.164   1
  -1   2  -9 3378.40 215.059   4
  -1   2  -9 3139.21 102.315   2
  -1   2 -10 2087.39 173.702   4
  -1   2 -11 2856.85 217.784   4
  -1   2 -12 536.744 96.8539   4
  -1   2 -13 992.717 140.197   4
  -1   2 -14 77.5882 62.0483   4
   1  -1 -14 1518.05 170.713   4
   1  -1 -13 696.924 115.385   4
   1  -1 -12 374.747 81.4062   4
   1  -1 -11 4657.54 273.444   4
   1  -1 -10-3.28422 24.9333   4
   1  -1  -9 5109.23 260.711   4
  -1   1   8 3018.76 94.7104   1
  -1   1   8 3127.90 95.1800   1
   1  -1  -8 3366.41 193.168   4
   1  -1  -7 14169.8 468.611   4
  -1   1   7 13740.9 362.024   1
  -1   1   7 13503.9 361.615   2
   1  -1  -6 4834.27 153.781   2
  -1   1   6 4918.89 152.927   2
   1  -1  -6 5102.29 219.181   4
  -1   1   6 5366.69 225.107   4
   1  -1  -5 925.781 76.2188   4
  -1   1   5 841.629 72.1320   4
  -1   1   5 830.807 47.1731   2
   1  -1  -5 832.083 45.6363   2
   1  -1  -4 1054.27 54.6155   2
   1  -1  -4 1188.45 79.0257   4
  -1   1   4 1135.34 77.6045   4
  -1   1   4 1156.22 56.4491   2
  -1   1   3 20963.2 548.639   2
   1  -1  -3 21357.5 577.596   4
  -1   1   3 21247.7 575.631   4
   1  -1  -3 20989.9 548.558   2
  -1   1   2 8882.95 253.739   2
   1  -1  -2 8865.23 254.786   2
   1  -1  -2 9018.38 265.917   4
  -1   1   1 239.419 24.2288   2
   1  -1   0 1182.84 45.7901   3
  -1   1   0 1124.45 56.5485   2
   1  -1   0 1084.10 53.3883   5
   1  -1   1 4113.06 135.128   2
  -1   1  -1 4092.25 134.795   2
   1  -1   2 22849.4 595.346   2
  -1   1  -2 23235.9 595.583   2
   1  -1   3 20457.1 525.637   2
  -1   1  -3 19910.0 526.075   2
  -1   1  -4 9222.64 260.853   2
   1  -1   4 9291.06 260.463   2
  -1   1  -5 314.123 25.7138   2
   1  -1   5 384.998 28.9441   2
  -1   1  -6 7060.42 205.250   2
  -1   1  -6 7288.18 204.679   1
  -1   1  -6 7467.84 291.475   4
  -1   1  -7 1642.46 61.9216   2
  -1   1  -7 1696.03 127.776   4
  -1   1  -7 1725.62 61.3863   1
  -1   1  -8 836.949 95.3429   4
  -1   1  -9 17166.2 604.020   4
  -1   1 -10 365.002 77.8868   4
  -1   1 -11 1053.25 130.272   4
  -1   1 -12 26.4980 41.7358   4
  -1   1 -13 1299.88 161.375   4
  -1   1 -14 229.279 73.8400   4
   1   0 -14 497.555 100.838   4
   1   0 -13 284.470 77.2113   4
   1   0 -12 302.933 75.9278   4
   1   0 -11 14.2765 37.7204   4
   1   0 -10 416.972 76.2031   4
   1   0  -9 978.214 107.454   4
   1   0  -8 955.252 99.5251   4
   1   0  -7 38.0438 7.44952   2
  -1   0   7 39.5899 7.65644   1
   1   0  -7 46.0233 24.5421   4
   1   0  -6 9281.30 256.285   2
   1   0  -6 10382.9 348.662   4
  -1   0   6 9554.61 256.387   1
  -1   0   5 1759.93 68.4109   1
   1   0  -5 1812.80 69.5454   2
   1   0  -5 2014.49 114.022   4
  -1   0   4 1168.39 51.7122   2
   1   0  -4 1070.18 50.6996   2
   1   0  -4 1181.00 76.2639   4
  -1   0   3 1441.72 61.4593   2
   1   0  -3 1530.52 62.9817   2
   1   0  -3 1390.27 78.8559   4
   1   0  -2 2084.44 79.1093   2
   1   0  -2 2171.01 91.5586   4
  -1   0   2 2123.21 78.7870   2
  -1   0   1 18276.3 472.455   2
   1   0  -1 18186.4 475.840   4
  -1   0   0 3234.82 107.702   2
  -1   0  -1 229.728 22.6712   2
   1   0   1 228.470 22.1999   2
  -1   0  -2 467.177 31.9410   2
   1   0   2 457.566 32.0996   2
  -1   0  -3 19406.1 501.399   2
   1   0   3 19544.1 500.973   2
   1   0   4 257.008 22.0916   2
  -1   0  -4 212.179 19.3000   1
   1   0   5 1819.89 67.6398   2
  -1   0  -5 2031.74 121.472   4
  -1   0  -5 1774.15 65.5779   1
  -1   0  -6 93.7317 10.5550   1
   1   0   6 88.9999 11.1083   2
  -1   0  -6 129.545 34.4042   4
  -1   0  -7 2074.79 145.356   4
  -1   0  -8 203.007 45.9610   4
  -1   0  -9 7541.03 346.900   4
  -1   0 -10 318.524 68.7025   4
  -1   0 -11 489.333 94.0415   4
  -1   0 -12 899.467 127.529   4
  -1   0 -13 48.8577 45.5855   4
  -1   0 -14 588.882 119.736   4
   1   1 -14 1064.61 143.833   4
   1   1 -13 478.263 92.9604   4
   1   1 -12 287.723 74.8170   4
   1   1 -11 16013.3 602.830   4
   1   1 -10 5010.78 274.507   4
   1   1  -9 851.761 99.5383   4
   1   1  -8 2639.23 85.7611   2
  -1  -1   8 2584.85 86.5590   1
   1   1  -8 2573.42 165.472   4
   1   1  -7 698.967 38.9611   2
  -1  -1   7 735.306 39.5348   1
   1   1  -7 657.874 77.3104   4
   1   1  -6 2446.30 142.586   4
  -1  -1   6 2460.60 88.8644   1
   1   1  -6 2397.47 90.0478   2
  -1  -1   5 6685.81 201.438   1
   1   1  -5 7331.89 260.000   4
   1   1  -5 7031.51 204.780   2
  -1  -1   4 572.988 52.8727   4
   1   1  -4 632.992 56.6375   4
   1   1  -4 524.315 35.9648   2
  -1  -1   4 620.822 38.0679   1
  -1  -1   3 13299.2 364.190   4
   1   1  -3 12528.7 360.628   4
  -1  -1   3 12153.2 337.235   1
   1   1  -3 12141.7 338.292   1
   1   1  -2 7.37424 10.2810   1
  -1  -1   2 3.28375 10.8430   4
   1   1  -2 16.4204 13.6388   4
  -1  -1   2 4.87528 10.5938   1
  -1  -1   1 16006.9 432.167   1
   1   1  -1 16389.0 425.427   4
  -1  -1   1 16542.0 426.036   4
  -1  -1   0 2418.06 91.7302   1
  -1  -1  -1 23254.1 607.954   1
   1   1   1 22931.5 608.427   1
   1   1   1 24996.1 617.821   3
   1   1   2 25141.2 650.076   1
  -1  -1  -2 25534.4 648.595   1
  -1  -1  -3 7828.13 227.055   1
   1   1   3 8004.35 227.499   1
   1   1   4 2720.82 98.2217   2
  -1  -1  -4 2662.10 95.5468   1
   1   1   5-3.95828 7.80492   2
  -1  -1  -5-3.08294 19.9230   4
  -1  -1  -5 1.05056 6.44283   1
  -1  -1  -6 21815.1 563.662   1
  -1  -1  -6 23685.9 677.048   4
   1   1   6 22201.1 567.781   2
  -1  -1  -7 24.4393 6.42057   1
   1   1   7 15.0167 5.97370   2
  -1  -1  -7 21.0120 26.1081   4
  -1  -1  -8 5190.47 260.241   4
  -1  -1  -9 1637.71 144.677   4
  -1  -1 -10 29.4232 34.9195   4
  -1  -1 -11 15.9179 38.6580   4
  -1  -1 -12 104.406 46.7583   4
  -1  -1 -13 985.782 139.809   4
  -1  -1 -14 81.0444 58.0745   4
   1   2 -14 60.4736 47.7289   4
   1   2 -13 1803.54 179.132   4
   1   2 -12 164.398 60.2163   4
   1   2 -11 3056.02 215.224   4
   1   2 -10 1646.20 59.4567   2
   1   2 -10 1531.97 140.636   4
   1   2 -10 1560.49 58.8706   2
   1   2  -9 132.183 42.2120   4
   1   2  -9 53.5481 12.1051   2
  -1  -2   9 48.7335 11.2204   1
   1   2  -8 2898.16 110.547   2
   1   2  -8 2623.03 170.177   4
  -1  -2   8 2830.03 110.336   1
   1   2  -7 824.574 85.8135   4
   1   2  -7 848.063 52.3578   1
  -1  -2   7 955.841 89.0821   4
  -1  -2   7 873.360 53.3071   1
  -1  -2   6 7795.39 240.435   1
  -1  -2   6 8352.30 301.354   4
   1   2  -6 7706.82 242.427   1
   1   2  -6 8106.93 300.257   4
   1   2  -5 1249.90 68.1688   1
  -1  -2   5 1319.33 90.0553   4
   1   2  -5 1286.39 89.5831   4
  -1  -2   5 1174.73 65.3995   1
   1   2  -4 312.467 32.6433   1
  -1  -2   4 347.279 33.9294   1
   1   2  -4 316.056 40.3706   4
  -1  -2   4 359.557 40.6858   4
  -1  -2   3 9.65018 14.7874   1
   1   2  -3 34.8264 16.0372   4
  -1  -2   3-3.49554 13.5224   4
   1   2  -3-10.4706 12.2385   1
  -1  -2   2 10919.0 308.544   4
   1   2  -2 11132.1 321.258   1
   1   2  -2 11115.8 308.919   4
  -1  -2   2 11277.5 320.024   1
   1   2  -1 205.262 19.1668   4
  -1  -2   1 154.737 24.1773   1
  -1  -2   1 180.078 17.9945   4
  -1  -2   0 39711.0 1010.53   1
  -1  -2  -1 13989.1 378.426   3
   1   2   1 13482.8 378.111   1
  -1  -2  -1 12800.6 375.960   1
   1   2   1 13754.9 377.693   3
  -1  -2  -2 1845.01 85.7712   1
   1   2   2 1923.97 87.1167   1
  -1  -2  -2 1910.86 94.0203   3
   1   2   3 70.4825 17.4438   1
  -1  -2  -3 59.4064 17.1182   1
  -1  -2  -3 57.3282 15.3562   5
  -1  -2  -3 78.4710 27.3474   3
  -1  -2  -4 20973.1 585.893   4
   1   2   4 20627.0 548.243   1
  -1  -2  -4 20010.3 546.006   1
   1   2   5 2227.54 96.2357   1
  -1  -2  -5 2093.41 93.5546   1
  -1  -2  -5 2553.47 135.495   4
   1   2   6 12302.9 344.124   1
  -1  -2  -6 11792.6 344.058   1
  -1  -2  -6 12866.4 424.491   4
   1   2   7 3147.09 117.381   2
  -1  -2  -7 3155.33 116.906   1
  -1  -2  -7 3208.83 183.226   4
   1   2   8 1126.06 57.5218   2
   1   2   8 1143.37 56.8495   2
  -1  -2  -8 1294.25 116.755   4
  -1  -2  -9 3598.54 221.309   4
  -1  -2 -10 3344.19 228.316   4
  -1  -2 -11 175.687 57.0528   4
  -1  -2 -12 64.5074 48.1703   4
  -1  -2 -13 699.056 119.594   4
  -1  -2 -14 71.4896 56.7289   4
   1   3 -14 419.250 91.4283   4
   1   3 -13 75.8954 48.1958   4
   1   3 -12 928.193 121.398   4
   1   3 -11 3290.34 226.502   4
   1   3 -10 3581.74 140.650   2
   1   3 -10 3709.32 230.039   4
   1   3 -10 3732.82 144.352   2
  -1  -3   9 897.438 61.8833   1
   1   3  -9 825.339 98.5977   4
   1   3  -9 812.254 59.6276   1
  -1  -3   8 413.131 42.4019   1
   1   3  -8 385.137 40.5292   1
   1   3  -8 327.174 58.2653   4
   1   3  -7 1750.71 124.121   4
  -1  -3   7 1634.99 117.782   4
   1   3  -7 1439.93 84.3604   1
  -1  -3   7 1500.71 87.2468   1
  -1  -3   6 14096.7 436.625   4
  -1  -3   6 12849.1 391.403   1
   1   3  -6 12599.3 429.889   4
   1   3  -6 13504.1 393.647   1
  -1  -3   5 423.250 47.6145   4
   1   3  -5 467.713 44.1643   1
   1   3  -5 307.159 43.6755   4
  -1  -3   5 459.097 46.5752   1
  -1  -3   4 1599.94 89.6474   4
   1   3  -4 1641.58 88.6005   1
  -1  -3   4 1607.85 89.7847   1
   1   3  -4 1408.59 86.7063   4
   1   3  -3 472.425 44.5048   1
  -1  -3   3 376.378 36.0606   4
   1   3  -3 442.495 39.0976   4
  -1  -3   3 508.346 48.7420   1
  -1  -3   2 18.1615 10.6167   4
   1   3  -2 9.32449 7.33491   4
  -1  -3   2 9.71094 19.4903   1
   1   3  -2 12.6790 12.4254   1
  -1  -3   1 3996.66 117.781   4
  -1  -3   1 4325.53 162.924   1
  -1  -3   0 2129.64 105.286   1
   1   3   1 14339.8 400.612   5
  -1  -3  -1 13557.8 414.186   1
   1   3   1 14421.8 402.811   3
   1   3   1 14539.1 415.861   1
  -1  -3  -2 20.1386 17.0967   3
   1   3   2 14.9802 12.8277   5
  -1  -3  -2 27.8947 13.8031   4
  -1  -3  -2 23.4233 15.9050   1
   1   3   2-7.60880 17.5484   1
   1   3   3 3694.89 147.919   1
  -1  -3  -3 3737.92 140.626   5
  -1  -3  -3 3283.06 142.590   1
  -1  -3  -3 3458.68 142.176   4
  -1  -3  -3 3534.93 151.329   3
  -1  -3  -4 671.993 55.3615   1
  -1  -3  -4 663.227 64.6891   3
  -1  -3  -4 839.317 66.0466   4
  -1  -3  -4 785.916 54.9668   5
   1   3   4 744.522 57.5611   1
  -1  -3  -5 4900.52 179.170   5
   1   3   5 4916.58 178.659   1
  -1  -3  -5 4448.52 200.000   4
  -1  -3  -5 4509.26 177.028   1
  -1  -3  -6 3883.09 191.222   4
   1   3   6 3704.06 150.216   1
  -1  -3  -6 3765.31 152.587   1
  -1  -3  -7 3289.99 186.896   4
  -1  -3  -7 3145.96 133.059   1
   1   3   7 3011.00 130.437   1
   1   3   8 1924.51 93.7925   1
  -1  -3  -8 2146.86 157.032   4
   1   3   9 64.0875 15.3451   2
  -1  -3  -9 96.9258 41.6275   4
  -1  -3 -10 122.608 39.4365   4
  -1  -3 -11 46.8962 44.5297   4
  -1  -3 -12 374.871 80.8286   4
  -1  -3 -13 1074.58 142.844   4
  -1  -3 -14 84.1736 41.7865   4
   1   4 -14 682.379 116.337   4
   1   4 -13 997.089 133.387   4
   1   4 -12 1197.59 139.789   4
   1   4 -11 100.778 45.6406   4
   1   4 -11 163.158 31.3879   2
  -1  -4  10 5242.38 203.592   1
   1   4 -10 5099.84 202.584   1
   1   4 -10 5192.70 278.857   4
  -1  -4   9 4323.55 183.161   1
   1   4  -9 3950.14 230.686   4
   1   4  -9 4559.11 184.519   1
   1   4  -8 103.396 24.8887   1
  -1  -4   8 137.173 31.3994   1
   1   4  -8 62.7555 30.6284   4
   1   4  -7 4988.48 199.051   1
   1   4  -7 4585.40 223.042   4
  -1  -4   7 5067.43 204.152   1
  -1  -4   6 1690.77 103.671   1
   1   4  -6 1530.19 107.541   4
   1   4  -6 1569.47 97.3390   1
   1   4  -5 80.2105 20.1763   1
  -1  -4   5 77.5492 24.9786   1
  -1  -4   5 104.311 26.4629   4
   1   4  -5 51.6429 14.5163   4
   1   4  -4 21867.9 623.339   4
   1   4  -4 23618.3 644.585   1
  -1  -4   4 23038.5 645.360   1
  -1  -4   4 22539.0 624.674   4
   1   4  -3 275.452 38.4590   1
  -1  -4   3 272.475 37.7939   1
   1   4  -3 273.100 29.6041   4
  -1  -4   3 299.042 31.6715   4
   1   4  -2 1432.31 91.6776   1
   1   4  -2 1439.41 61.4056   4
  -1  -4   2 1304.11 58.6921   4
  -1  -4   2 1408.15 92.6140   1
  -1  -4   1 4559.74 188.193   1
  -1  -4   0 29406.4 811.219   1
   1   4   0 29676.1 777.373   3
   1   4   1 2374.04 118.825   5
   1   4   1 2390.68 122.479   1
  -1  -4  -1 2472.27 126.303   1
  -1  -4  -1 2172.32 76.1314   4
   1   4   1 2349.56 106.888   3
   1   4   2 2556.02 119.030   5
  -1  -4  -2 2454.58 128.974   1
  -1  -4  -2 2618.66 100.916   4
  -1  -4  -2 2473.85 117.876   3
   1   4   2 2703.40 131.885   1
  -1  -4  -3 536.419 55.8882   1
  -1  -4  -3 575.626 54.8878   3
  -1  -4  -3 595.954 48.1710   4
   1   4   3 597.229 57.0532   1
   1   4   4 13892.2 338.129   1
  -1  -4  -4 13694.9 331.129   4
  -1  -4  -4 13028.9 337.415   1
  -1  -4  -4 12960.0 340.595   3
   1   4   5 877.869 69.3459   1
  -1  -4  -5 749.121 67.9549   1
  -1  -4  -5 800.821 65.8014   5
  -1  -4  -5 775.672 74.2806   4
  -1  -4  -5 645.715 68.0523   3
  -1  -4  -6 1595.21 101.805   1
  -1  -4  -6 1843.77 108.796   5
  -1  -4  -6 1702.34 121.254   4
  -1  -4  -6 1593.64 118.101   3
   1   4   6 1741.80 102.577   1
  -1  -4  -7-2.60472 15.9740   5
   1   4   7 13.1519 16.9935   1
  -1  -4  -7 30.1961 20.4012   1
  -1  -4  -7 47.0524 36.9377   4
   1   4   8 749.546 63.9071   1
  -1  -4  -8 810.022 94.4322   4
  -1  -4  -8 850.623 79.4729   5
  -1  -4  -9 4809.26 256.574   4
   1   4   9 4178.29 175.823   2
  -1  -4 -10 33.0341 35.9952   4
  -1  -4 -11 244.066 67.0159   4
  -1  -4 -12 48.7108 37.2571   4
  -1  -4 -13 10.2074 43.4098   4
  -1  -4 -14 1624.46 185.566   4
   1   5 -14 1131.75 146.854   4
   1   5 -13 1166.19 145.517   4
   1   5 -12 1072.92 132.041   4
   1   5 -11 781.425 74.1368   2
   1   5 -11 734.401 104.705   4
  -1  -5  10 17117.3 517.064   1
   1   5 -10 15298.6 582.933   4
  -1  -5   9 221.487 41.6970   1
   1   5  -9 291.181 44.1038   1
   1   5  -9 250.967 51.9242   4
  -1  -5   8 17.0345 16.9920   1
   1   5  -8 13.3218 13.4449   1
   1   5  -8 31.0361 26.1700   4
   1   5  -7 84.2965 25.6260   1
  -1  -5   7 89.8580 33.2448   1
   1   5  -7 52.5652 21.7929   4
   1   5  -6 1649.89 110.248   4
   1   5  -6 1733.80 112.067   1
  -1  -5   6 1536.36 110.146   1
  -1  -5   5 764.096 75.2111   1
   1   5  -5 658.192 62.5222   4
   1   5  -5 925.330 78.3441   1
  -1  -5   4 3451.49 174.398   1
   1   5  -4 3194.54 139.062   4
   1   5  -4 3753.28 173.736   1
   1   5  -3 782.161 50.9171   4
  -1  -5   3 836.501 79.0829   1
   1   5  -3 979.425 81.3574   1
  -1  -5   2 2063.76 126.987   1
   1   5  -2 2062.63 74.9049   4
  -1  -5   1 5594.90 234.981   1
  -1  -5   0 741.886 73.7870   1
   1   5   0 700.596 55.0663   3
   1   5   1 605.783 62.4688   5
   1   5   1 540.478 49.1822   3
  -1  -5  -1 479.924 60.9237   1
   1   5   1 559.214 62.5256   1
  -1  -5  -2 2410.97 140.376   1
  -1  -5  -2 2202.02 88.7887   4
   1   5   2 2907.27 146.960   1
   1   5   2 2554.04 130.028   5
  -1  -5  -3 2201.95 120.816   3
  -1  -5  -3 2182.45 102.378   4
   1   5   3 2534.48 138.335   1
  -1  -5  -3 2373.39 138.967   1
  -1  -5  -4 174.140 37.4283   1
  -1  -5  -4 152.500 35.2663   3
  -1  -5  -4 211.798 33.0007   4
   1   5   4 203.215 37.7178   1
  -1  -5  -5 6462.93 242.441   5
  -1  -5  -5 5520.81 237.060   1
   1   5   5 5730.39 234.774   1
  -1  -5  -5 5754.75 230.016   4
  -1  -5  -5 5186.68 233.536   3
  -1  -5  -6 54.7457 25.7905   1
  -1  -5  -6 71.8128 28.0209   3
  -1  -5  -6 91.4515 28.4555   5
  -1  -5  -6 117.553 33.4422   4
   1   5   6 112.520 27.3188   1
  -1  -5  -7 2947.44 157.138   5
  -1  -5  -7 2762.68 150.931   1
  -1  -5  -7 3000.58 174.104   4
   1   5   7 2523.75 143.039   1
  -1  -5  -7 2497.00 163.917   3
  -1  -5  -8 373.959 63.8953   3
  -1  -5  -8 324.538 56.6520   5
  -1  -5  -8 423.795 71.7539   4
   1   5   9 1471.83 103.331   2
  -1  -5  -9 1288.51 128.052   3
  -1  -5  -9 1555.89 118.816   5
  -1  -5  -9 1610.87 142.373   4
  -1  -5 -10 511.458 85.5187   3
  -1  -5 -10 361.366 60.4664   5
  -1  -5 -10 410.277 75.5883   4
  -1  -5 -11 465.697 84.7104   4
  -1  -5 -11 458.897 84.6239   3
  -1  -5 -12 209.823 73.4164   4
  -1  -5 -12 236.246 65.9603   3
  -1  -5 -13 556.240 101.508   3
  -1  -5 -13 484.966 96.9613   4
   1   6 -14 1219.12 156.093   4
   1   6 -13 77.5086 40.3047   4
   1   6 -12 3227.82 237.602   4
   1   6 -11 599.677 73.3572   2
   1   6 -11 456.969 81.1347   4
  -1  -6  10 4273.40 208.875   1
   1   6 -10 3682.22 234.661   4
  -1  -6   9 804.737 87.3466   1
   1   6  -9 787.035 93.4927   4
  -1  -6   8 120.538 35.5102   1
   1   6  -8 82.7206 34.6584   4
  -1  -6   7 893.611 88.8778   1
   1   6  -7 811.376 82.6049   4
  -1  -6   6 276.323 50.6713   1
   1   6  -6 301.121 46.7223   4
  -1  -6   5 34.0760 28.1313   1
   1   6  -5 12.7002 9.90999   4
   1   6  -4 1984.34 100.709   4
  -1  -6   4 2183.77 143.727   1
   1   6  -3 1185.97 61.5970   4
  -1  -6   3 1094.94 101.326   1
  -1  -6   2 1789.26 129.399   1
  -1  -6   1 2196.19 145.385   1
   1   6   0 469.360 46.5838   3
  -1  -6   0 556.234 69.2376   1
   1   6   1 51.9479 25.0982   5
  -1  -6  -1 10.9032 26.8343   1
   1   6   1 47.1005 19.3501   3
  -1  -6  -2 2935.77 98.4696   4
   1   6   2 2973.05 157.810   5
  -1  -6  -2 2965.22 172.276   1
  -1  -6  -3 113.412 39.7329   1
  -1  -6  -3 114.935 19.0012   4
  -1  -6  -4 4825.47 231.956   1
  -1  -6  -4 4484.86 205.173   3
  -1  -6  -4 5142.76 189.920   4
  -1  -6  -5 7616.09 268.403   4
  -1  -6  -5 6848.86 278.852   3
  -1  -6  -5 6538.72 287.807   1
  -1  -6  -6 3614.07 193.413   1
  -1  -6  -6 3679.71 181.031   4
  -1  -6  -6 3417.58 188.584   3
  -1  -6  -7 5264.82 244.089   4
  -1  -6  -7 4507.58 240.133   3
  -1  -6  -7 5809.71 253.288   5
  -1  -6  -7 5155.38 239.124   1
  -1  -6  -8 4260.68 246.760   5
   1   6   8 6374.38 269.560   2
  -1  -6  -8 6586.48 296.282   3
  -1  -6  -8 6754.86 291.293   4
   1   6   9 85.8701 29.8564   2
  -1  -6  -9 94.8202 35.1620   5
  -1  -6  -9 80.6494 32.7898   3
  -1  -6  -9 102.214 39.1924   4
  -1  -6 -10 300.639 67.6729   3
  -1  -6 -10 251.151 60.7956   4
  -1  -6 -11 19.0449 28.3485   3
  -1  -6 -11 182.757 58.9195   4
  -1  -6 -12 404.810 87.9938   3
  -1  -6 -12 469.490 90.4408   4
  -1  -6 -13 2017.88 194.222   3
   1   7 -14 740.829 122.722   4
   1   7 -13 1476.95 163.490   4
   1   7 -12-16.6101 35.9501   4
   1   7 -11 2400.28 165.652   2
   1   7 -11 2193.99 183.056   4
   1   7 -10 220.028 58.6784   4
  -1  -7  10 258.401 52.3695   1
   1   7 -10 246.556 56.3903   2
  -1  -7   9 208.219 48.1723   1
   1   7  -9 125.808 36.0274   4
  -1  -7   8 108.158 40.0748   1
   1   7  -8 45.3897 25.5461   4
  -1  -7   7 49.7661 37.4185   1
   1   7  -7 37.3074 23.9762   4
   1   7  -6 12245.7 406.444   4
  -1  -7   6 12475.1 457.927   1
  -1  -7   5 2906.60 179.559   1
   1   7  -5 2473.30 127.461   4
  -1  -7   4-14.9812 21.9377   1
   1   7  -4 38.3102 12.9067   4
  -1  -7   3 4015.75 217.987   1
   1   7  -3 3953.59 129.151   4
  -1  -7   2 138.236 43.4264   1
  -1  -7   1 871.375 94.1740   1
   1   7   0 2860.05 133.959   3
  -1  -7   0 2955.75 183.318   1
  -1  -7  -1 1950.62 147.251   1
   1   7   1 2105.34 111.425   3
  -1  -7  -2 505.245 71.2279   1
  -1  -7  -3 1260.29 116.684   1
  -1  -7  -3 1403.49 67.0732   4
  -1  -7  -4 3986.26 158.159   4
  -1  -7  -4 3899.50 216.897   1
  -1  -7  -5 1585.22 98.9192   4
  -1  -7  -5 1448.97 124.117   1
  -1  -7  -5 1402.28 109.468   3
  -1  -7  -6 125.344 36.4694   3
  -1  -7  -6 125.347 41.5456   1
  -1  -7  -6 145.988 35.1465   4
  -1  -7  -7 2617.99 172.554   1
  -1  -7  -7 2791.47 165.001   4
  -1  -7  -7 2567.67 170.500   3
  -1  -7  -8 7.49595 22.5531   3
   1   7   8 187.262 48.4211   2
  -1  -7  -8 117.833 40.4296   4
  -1  -7  -9-54.7776 33.8867   3
  -1  -7  -9 33.3340 33.9667   4
  -1  -7 -10 307.297 64.7565   3
  -1  -7 -11 1459.02 151.115   3
  -1  -7 -12 975.221 127.954   3
   1   8 -14 141.033 52.4206   4
   1   8 -13-34.1517 43.7235   4
   1   8 -12 264.091 71.8473   4
   1   8 -11 136.150 45.5373   2
   1   8 -11 209.946 56.2564   4
   1   8 -10 2849.00 198.431   4
   1   8 -10 2858.05 199.023   2
   1   8  -9 703.190 88.4224   4
  -1  -8   9 762.921 94.1201   1
  -1  -8   8 1869.17 153.155   1
   1   8  -8 1752.08 132.190   4
  -1  -8   7 1264.31 123.896   1
   1   8  -7 1335.01 105.412   4
  -1  -8   6 2710.17 188.057   1
   1   8  -6 2668.31 144.131   4
  -1  -8   5 73.9741 43.7090   1
   1   8  -5 11.4527 11.6545   4
   1   8  -4 3878.20 141.320   4
  -1  -8   4 3787.94 227.627   1
  -1  -8   3 7343.10 338.127   1
  -1  -8   2 2384.15 174.424   1
   1   8  -1 154.205 28.9881   3
  -1  -8   1 183.040 50.5376   1
  -1  -8   0 1470.67 134.667   1
   1   8   0 1422.38 90.3674   3
  -1  -8  -1 6.55752 28.8160   1
  -1  -8  -2 1329.83 128.500   1
  -1  -8  -3 52.9618 39.8306   1
  -1  -8  -4 95.3976 34.6897   1
  -1  -8  -5 375.222 71.2809   1
  -1  -8  -6 1878.58 154.535   1
  -1  -8  -7 265.064 54.1614   3
   1   8   7 279.621 60.8939   2
  -1  -8  -8 737.461 93.9884   3
   1   8   8 677.749 92.1555   2
  -1  -8  -9 88.7169 40.4252   3
   1   9 -11 3017.55 218.032   2
   1   9 -10 47.8035 33.3164   2
   1   9  -9 299.740 67.0420   2
  -1  -9   9 195.227 56.6644   1
  -1  -9   8 209.121 59.9637   1
  -1  -9   7 742.447 102.801   1
  -1  -9   6 587.044 91.1989   1
  -1  -9   5 1925.68 164.961   1
  -1  -9   4 176.596 49.1471   1
  -1  -9   3 95.1788 36.9210   1
  -1  -9   2 3984.52 246.641   1
  -1  -9   1 1826.08 161.746   1
  -1  -9   0 2323.47 184.659   1
  -1  -9  -1 506.100 85.6256   1
  -1  -9  -2 1097.01 123.135   1
  -1  -9  -3 967.545 116.785   1
  -1  -9  -4 1027.17 121.762   1
  -1  -9  -5 1963.09 168.962   1
   1   9   6 2248.02 185.243   2
   1   9   7 803.058 110.803   2
   1   9   8 70.3927 37.2734   2
   1  10 -11 114.640 47.4828   2
   1  10 -10 178.527 65.4576   2
   1  10  -9 67.0557 40.0857   2
  -1 -10   8 1021.07 129.281   1
  -1 -10   7 72.6894 46.5171   1
  -1 -10   6 226.875 67.1025   1
  -1 -10   5 2468.91 200.085   1
  -1 -10   4 997.976 126.279   1
  -1 -10   3 2445.49 198.463   1
  -1 -10   2 585.069 95.2290   1
  -1 -10   1 946.974 124.858   1
  -1 -10   0 1133.50 133.968   1
  -1 -10  -1 1227.72 140.329   1
  -1 -10  -2 320.189 70.1391   1
  -1 -10  -3 541.104 93.7402   1
  -1 -10  -4 56.7924 36.6872   1
   1  10   5 697.680 106.974   2
   1  10   6 1665.61 167.169   2
   1  10   7 640.944 104.840   2
   1  11 -10 9.79870 27.2264   2
   1  11  -9 6.31914 23.3530   2
   1  11  -8 277.666 73.3689   2
   1  11  -7 1411.24 170.006   2
  -1 -11   7 1660.56 172.690   1
  -1 -11   6 170.081 64.1744   1
  -1 -11   5 509.532 96.7919   1
  -1 -11   4 593.236 104.027   1
  -1 -11   3 4563.31 297.247   1
  -1 -11   2 2564.52 215.904   1
  -1 -11   1 621.596 104.612   1
  -1 -11   0 517.634 95.4182   1
  -1 -11  -1 236.866 71.4610   1
  -1 -11  -2 426.126 91.1775   1
   1  11   3 401.309 91.0319   2
  -1 -11  -3 241.658 69.0994   1
   1  11   4 4085.98 285.979   2
   1  11   5 580.514 108.672   2
   1  11   6 756.511 118.496   2
   1  11   7 215.706 67.1893   2
  -2  11   8 38.5588 38.9339   2
  -2  11   7-26.8083 32.2536   2
  -2  11   6 3080.83 243.756   2
  -2  11   5 960.343 134.826   2
  -2  11   4 59.3652 58.2047   2
  -2  11   3 112.505 53.6499   2
  -2  11   2 938.770 132.137   2
  -2  11   1 765.142 120.558   2
  -2  11   0 445.845 92.6225   2
  -2  11  -1 98.8501 34.8241   2
  -2  11  -2 75.1412 48.4416   2
  -2  11  -3 4655.52 306.257   2
  -2  11  -4 232.298 68.0684   2
  -2  11  -5 861.979 131.530   2
  -2  11  -6 18.4700 38.1978   2
  -2  11  -7 197.834 63.6289   2
  -2  11  -8 283.541 73.2473   2
  -2  11  -9 4159.47 292.962   2
  -2  10   8 50.8392 35.1691   2
  -2  10   7 56.5893 36.9042   2
  -2  10   6 9.84376 39.1220   2
  -2  10   5 1012.72 132.098   2
  -2  10   4 729.494 110.904   2
  -2  10   3 2090.80 185.303   2
  -2  10   2 273.060 68.7469   2
  -2  10   1 2072.78 188.780   2
  -2  10   0 7.39110 31.2118   2
  -2  10  -1 4208.62 273.106   2
  -2  10  -2 1541.87 161.081   2
  -2  10  -3 1116.40 137.194   2
  -2  10  -4-14.2837 21.1014   2
  -2  10  -5 186.960 58.7985   2
  -2  10  -6 427.586 82.8341   2
  -2  10  -7 424.308 87.0031   2
  -2  10  -8 2634.34 213.881   2
  -2  10  -9 255.375 61.7341   2
   2  -9 -11 669.661 115.173   5
   2  -9 -10 246.491 77.6870   5
   2  -9  -9 1642.73 183.538   5
  -2   9   9 2070.88 174.943   2
  -2   9   8 37.5998 37.1184   2
   2  -9  -8 113.233 57.8001   5
   2  -9  -7 8903.04 434.790   5
  -2   9   7 8675.97 404.856   2
  -2   9   6 0.08585 26.2469   2
  -2   9   5 41.1496 38.7035   2
  -2   9   4 188.913 55.5590   2
  -2   9   3 215.354 54.9995   2
  -2   9   2 3216.96 222.967   2
  -2   9   1 285.413 71.2013   2
  -2   9   0 99.7882 43.8351   2
  -2   9  -1 452.441 83.0322   2
  -2   9  -2 191.833 49.7757   2
  -2   9  -3 2057.02 176.849   2
  -2   9  -4 25.8617 23.0945   2
  -2   9  -5 685.775 97.6180   2
  -2   9  -6 315.160 63.3347   2
  -2   9  -6 368.190 67.8975   4
  -2   9  -7 34.5645 27.1227   2
  -2   9  -7 90.9330 39.2297   4
  -2   9  -8 63.2667 38.9408   4
  -2   9  -8 54.3980 33.1491   2
  -2   9  -9 3182.41 227.123   2
  -2   9  -9 3220.81 229.505   4
  -2   9 -10-4.99935 31.6768   4
  -2   9 -10 36.2760 36.8159   2
  -2   9 -11 5981.06 355.578   4
  -2   9 -12-18.5238 42.4482   4
   2  -8 -12 76.8822 46.8981   5
   2  -8 -11 90.1247 56.5199   5
   2  -8 -10 499.475 91.0317   5
   2  -8  -9 229.934 69.5084   5
   2  -8  -9 251.150 57.9154   4
  -2   8   9 214.021 53.8350   2
   2  -8  -8 1070.81 130.694   5
  -2   8   8 662.388 93.7398   2
   2  -8  -8 674.377 89.8583   4
   2  -8  -7 74.6085 51.6777   5
  -2   8   7 25.0261 30.1453   2
   2  -8  -6 6843.14 357.477   5
  -2   8   6 6882.93 332.554   2
   2  -8  -5 662.391 101.179   5
  -2   8   5 902.003 111.245   2
  -2   8   4 2123.96 168.210   2
  -2   8   3 3644.98 224.830   2
  -2   8   3 3473.67 169.018   4
  -2   8   2 2095.38 119.645   4
  -2   8   2 2032.65 163.468   2
  -2   8   1 5470.56 282.860   2
  -2   8   1 5220.31 213.400   4
  -2   8   0 1694.48 106.664   4
  -2   8   0 1836.16 155.221   2
  -2   8  -1 4332.68 250.143   2
  -2   8  -2 1298.44 127.381   2
  -2   8  -3 281.534 62.5871   2
  -2   8  -4 7072.04 336.981   2
  -2   8  -5 292.939 62.5085   2
  -2   8  -6 68.9275 29.1033   2
  -2   8  -7 690.985 93.0734   2
  -2   8  -7 569.878 83.9354   4
  -2   8  -8 2096.06 168.921   2
  -2   8  -8 2299.96 177.825   4
  -2   8  -9 124.260 48.8463   4
  -2   8  -9 189.660 49.8598   2
  -2   8 -10 290.292 75.4761   4
  -2   8 -10 344.571 68.5925   2
  -2   8 -11 215.200 69.7788   4
  -2   8 -12 1462.18 171.276   4
   2  -7 -13 27.8855 37.0370   4
   2  -7 -13-10.9110 43.6598   5
   2  -7 -12 357.995 92.3269   5
   2  -7 -12 326.701 77.4233   4
   2  -7 -11 31.4004 38.7645   4
   2  -7 -11 6.12741 39.4676   5
   2  -7 -10 675.777 104.173   5
   2  -7 -10 828.528 108.214   4
   2  -7  -9 1189.56 123.077   4
   2  -7  -9 1019.26 128.082   5
  -2   7   9 1087.26 109.729   2
   2  -7  -8 144.958 55.2117   5
   2  -7  -8 80.8402 41.6480   4
  -2   7   8 82.1945 37.5404   2
  -2   7   7 42.8383 29.9549   2
   2  -7  -7 56.9035 28.0665   4
   2  -7  -7 36.3193 31.0013   5
   2  -7  -6 9167.95 392.702   5
  -2   7   6 8560.93 363.581   2
   2  -7  -6 8528.55 282.627   3
  -2   7   5 1628.49 135.237   2
   2  -7  -5 1644.04 145.075   5
  -2   7   5 1285.76 106.935   4
   2  -7  -5 1547.65 76.8464   3
   2  -7  -4 791.845 101.556   5
  -2   7   4 638.127 68.0188   4
  -2   7   4 818.002 93.7018   2
  -2   7   3 4475.28 238.871   2
  -2   7   3 4313.16 192.315   4
   2  -7  -3 4118.14 242.243   5
  -2   7   2 1426.62 96.3073   4
  -2   7   2 1419.80 126.758   2
  -2   7   1 33.6762 31.0644   2
  -2   7   1-14.9082 14.4791   4
  -2   7   0 813.795 95.7896   2
  -2   7   0 730.000 67.9854   4
  -2   7  -1 198.427 51.9588   2
  -2   7  -2 1460.93 61.8214   3
  -2   7  -2 1475.59 129.535   2
  -2   7  -3 123.638 39.4008   2
  -2   7  -4 8171.07 351.204   2
  -2   7  -5 1834.66 146.745   2
  -2   7  -6 590.720 80.9863   2
  -2   7  -7 183.683 47.0919   2
  -2   7  -8 1711.17 139.818   2
  -2   7  -8 1178.97 126.398   4
  -2   7  -9 549.982 93.7309   4
  -2   7  -9 695.186 89.4891   2
  -2   7 -10 1329.82 121.121   2
  -2   7 -10 1064.92 134.190   4
  -2   7 -11 95.1860 53.4899   4
  -2   7 -12 42.6327 35.6758   4
   2  -6 -13 1346.59 164.436   4
   2  -6 -13 1486.40 168.592   5
   2  -6 -12 104.060 47.2347   5
   2  -6 -12 66.5297 42.8962   4
   2  -6 -11 4678.56 291.710   5
   2  -6 -11 4711.58 288.117   4
   2  -6 -10 1.70151 25.3898   4
   2  -6 -10 43.0780 44.1843   5
  -2   6  10 27.9191 22.4914   2
   2  -6  -9 381.452 73.2375   5
  -2   6   9 342.993 57.7307   2
   2  -6  -9 285.652 63.9883   4
   2  -6  -8 741.209 100.692   5
  -2   6   8 705.692 80.8462   2
   2  -6  -8 655.117 92.7849   4
  -2   6   7 2313.87 154.713   2
   2  -6  -7 2328.37 159.770   4
   2  -6  -7 2310.26 174.939   5
   2  -6  -6 21029.0 655.346   4
  -2   6   6 20643.2 660.232   2
   2  -6  -6 20787.8 692.295   5
  -2   6   5 176.917 43.2527   2
   2  -6  -5 204.844 56.6073   5
  -2   6   5 182.872 37.7488   4
  -2   6   4 4212.71 214.919   2
   2  -6  -4 4053.33 221.816   5
  -2   6   4 3788.68 183.940   4
   2  -6  -3 1458.79 125.438   5
  -2   6   3 1436.59 118.407   2
  -2   6   3 1268.28 93.4668   4
  -2   6   2 2342.59 126.729   4
  -2   6   2 2192.78 150.089   2
   2  -6  -2 2327.39 159.477   5
  -2   6   1 60.0791 28.5462   2
  -2   6   1 55.5924 23.5130   4
  -2   6   0 10041.0 382.772   2
  -2   6  -1 8812.62 351.153   2
  -2   6  -2 2571.01 162.984   2
  -2   6  -2 2643.82 100.712   3
  -2   6  -3 39.6663 28.8134   2
  -2   6  -4 1645.29 128.410   2
  -2   6  -5 3204.31 187.344   2
  -2   6  -6-35.9612 29.3913   2
  -2   6  -7 4166.33 218.406   2
  -2   6  -8 908.478 92.7921   2
  -2   6  -8 800.350 101.864   4
  -2   6  -9 365.208 75.4633   4
  -2   6  -9 391.504 61.5100   2
  -2   6 -10 5446.97 252.977   2
  -2   6 -10 4817.88 297.168   4
  -2   6 -11 261.730 72.3933   4
  -2   6 -12 2121.22 204.749   4
   2  -5 -14 986.533 141.210   4
   2  -5 -13 100.832 59.5276   4
   2  -5 -12 120.208 51.6634   4
   2  -5 -11 970.562 126.355   4
  -2   5  10 1663.29 116.871   2
   2  -5 -10 1759.48 158.313   4
  -2   5   9 1006.45 91.0828   2
   2  -5  -9 979.681 111.997   4
   2  -5  -8 3241.07 202.577   4
  -2   5   8 3062.05 169.791   2
  -2   5   7 23.5901 21.1633   2
   2  -5  -7 79.4684 39.6323   4
  -2   5   6 20.9528 19.4827   2
   2  -5  -6 37.2812 28.5216   4
   2  -5  -6 6.20253 33.5956   5
  -2   5   5 164.529 38.8525   2
   2  -5  -5 197.742 47.8144   5
   2  -5  -5 162.355 41.3097   4
  -2   5   5 155.141 35.9129   4
  -2   5   4 2415.68 147.346   2
  -2   5   4 2331.87 135.726   4
   2  -5  -4 2554.57 163.163   5
  -2   5   3 3197.97 155.546   4
   2  -5  -3 3209.91 178.705   5
  -2   5   3 3250.93 173.011   2
  -2   5   2 210.211 42.0931   2
  -2   5   2 203.639 36.3357   4
   2  -5  -2 126.948 36.9890   5
  -2   5   1 3627.94 186.502   2
  -2   5   1 3613.79 161.509   4
   2  -5  -1 3809.35 195.788   5
  -2   5   0 4610.54 216.594   2
  -2   5  -1 6571.45 267.498   2
  -2   5  -1 5068.75 242.744   5
  -2   5  -1 7055.48 271.318   1
  -2   5  -1 6252.20 178.041   3
  -2   5  -2 3.95668 14.7325   1
  -2   5  -2 27.5227 24.0911   2
  -2   5  -3 6393.12 264.160   1
  -2   5  -3 6039.15 261.400   2
  -2   5  -4 3845.77 193.538   2
  -2   5  -5 4231.40 206.666   2
  -2   5  -6 1975.70 132.184   2
  -2   5  -7 1859.90 127.312   2
  -2   5  -8 1534.88 141.878   4
  -2   5  -8 1533.49 114.215   1
  -2   5  -8 1747.38 122.034   2
  -2   5  -9 55.5401 30.3187   4
  -2   5  -9 60.6968 23.1204   2
  -2   5 -10 80.7057 43.8149   4
  -2   5 -10 175.504 37.5567   2
  -2   5 -11 89.9613 42.6573   4
  -2   5 -12 110.321 51.0999   4
  -2   5 -13 169.036 65.5390   4
   2  -4 -14 150.632 61.2734   4
   2  -4 -13 1232.43 152.710   4
   2  -4 -12 1547.23 164.197   4
   2  -4 -11 5720.57 316.551   4
  -2   4  10 665.388 65.3009   2
   2  -4 -10 741.625 104.738   4
  -2   4   9 569.890 62.9084   2
  -2   4   9 518.914 57.6529   1
   2  -4  -9 655.572 93.3230   4
  -2   4   8 968.648 82.3218   1
  -2   4   8 944.319 81.3291   2
   2  -4  -8 924.760 101.532   4
  -2   4   7 8464.61 311.137   1
   2  -4  -7 8995.53 357.863   4
  -2   4   7 8721.50 312.905   2
   2  -4  -6 575.457 75.9357   4
  -2   4   6 588.799 63.1891   1
  -2   4   6 571.012 61.7753   2
  -2   4   5 1740.04 115.010   2
   2  -4  -5 1732.21 120.214   4
  -2   4   5 1834.03 119.945   4
  -2   4   5 1955.90 118.921   1
  -2   4   4 2384.55 136.277   2
   2  -4  -4 2333.87 135.581   4
  -2   4   4 2419.35 134.278   4
   2  -4  -4 2547.09 140.966   2
   2  -4  -4 2279.99 145.165   5
  -2   4   3 695.393 66.0433   4
  -2   4   3 759.547 73.8418   2
   2  -4  -3 779.854 73.5729   2
   2  -4  -3 665.609 75.8357   5
  -2   4   2 13069.2 424.191   2
   2  -4  -2 13583.4 429.972   2
   2  -4  -2 12549.8 425.762   5
  -2   4   2 12952.5 404.149   4
   2  -4  -1 18689.7 555.956   5
  -2   4   1 17801.3 551.133   2
  -2   4   0 29095.8 817.893   2
  -2   4  -1 228.491 39.7741   2
  -2   4  -1 194.697 21.0878   3
   2  -4   1 234.905 42.4770   2
  -2   4  -1 228.777 42.5056   5
  -2   4  -2-51.2556 31.2256   2
   2  -4   2 36.6661 23.5805   2
  -2   4  -2 14.8726 20.7173   5
  -2   4  -3 1057.17 87.1618   2
   2  -4   3 1382.42 97.1609   2
   2  -4   4 4304.04 191.560   2
  -2   4  -4 3883.47 185.108   2
  -2   4  -5 1325.53 95.1674   1
  -2   4  -5 1107.41 89.0770   2
  -2   4  -6 676.108 67.4665   1
  -2   4  -6 694.408 69.0988   2
  -2   4  -7 27.3198 17.6716   1
  -2   4  -7 54.0471 18.7406   2
  -2   4  -8 93.8907 24.6108   2
  -2   4  -8 152.033 33.0926   1
  -2   4  -9 29.3419 35.0843   4
  -2   4  -9 13.6109 14.2471   2
  -2   4 -10 1261.03 140.333   4
  -2   4 -10 1238.96 88.8104   2
  -2   4 -11 1090.63 139.561   4
  -2   4 -12 448.965 95.3105   4
  -2   4 -13 205.941 70.4217   4
   2  -3 -14 937.195 135.214   4
   2  -3 -13 527.291 96.6731   4
   2  -3 -12 2114.17 189.905   4
   2  -3 -11 2209.37 185.302   4
   2  -3 -10 5342.18 291.872   4
  -2   3  10 5562.66 205.225   2
   2  -3  -9 4074.35 232.699   4
  -2   3   9 3728.78 161.677   2
  -2   3   9 3621.25 160.727   1
  -2   3   8 11064.4 359.117   1
  -2   3   8 11255.0 361.740   2
   2  -3  -8 12064.1 442.521   4
   2  -3  -7 124.403 41.4560   4
  -2   3   7 95.5132 25.9315   2
   2  -3  -6 43.4741 17.3401   2
  -2   3   6 69.9928 20.1638   2
   2  -3  -6 79.0491 30.1312   4
  -2   3   6 82.5241 30.2641   4
  -2   3   5 536.242 55.4759   2
   2  -3  -5 503.462 53.4499   2
   2  -3  -5 530.817 64.6002   4
  -2   3   5 415.724 55.2365   4
   2  -3  -4 932.354 79.2251   4
  -2   3   4 1069.02 78.7280   2
   2  -3  -4 968.084 75.9909   2
  -2   3   4 1145.53 86.4276   4
  -2   3   3 977.151 74.4686   2
  -2   3   3 921.732 74.4235   4
   2  -3  -3 1050.47 78.1730   2
   2  -3  -2 24998.1 672.205   2
   2  -3  -2 22573.5 674.978   5
  -2   3   2 23774.1 668.970   2
  -2   3   2 23425.0 659.504   4
  -2   3   1 16778.9 509.209   2
   2  -3  -1 16473.1 506.580   5
   2  -3  -1 17573.0 444.845   3
  -2   3   0 850.010 67.9730   5
  -2   3   0 825.880 69.3527   2
   2  -3   0 826.191 69.0683   5
  -2   3  -1 4604.13 154.375   3
  -2   3  -1 4613.94 190.616   5
  -2   3  -1 4766.95 194.431   2
   2  -3   1 5108.05 195.089   2
  -2   3  -2 13666.3 431.249   2
  -2   3  -2 14536.1 439.156   5
   2  -3   2 14268.5 434.221   2
  -2   3  -3 857.260 70.2915   2
   2  -3   3 873.329 69.7860   2
  -2   3  -4 14215.8 439.384   2
   2  -3   4 14404.3 438.319   2
  -2   3  -5 1440.61 93.5020   2
   2  -3   5 1530.52 94.7863   2
  -2   3  -6 6906.05 253.223   2
   2  -3   6 7051.74 252.891   2
  -2   3  -7 814.458 67.5122   2
  -2   3  -7 913.523 70.0850   1
  -2   3  -8 8341.37 284.400   2
  -2   3  -8 8174.32 280.503   1
  -2   3  -9 330.552 74.6131   4
  -2   3  -9 243.237 33.8538   1
  -2   3  -9 246.812 34.5807   2
  -2   3 -10 126.310 47.3905   4
  -2   3 -11 39.0015 36.3605   4
  -2   3 -12 912.577 130.342   4
  -2   3 -13 1027.91 145.325   4
   2  -2 -14 3064.65 251.006   4
   2  -2 -13 951.650 132.762   4
   2  -2 -12 3078.46 230.917   4
   2  -2 -11 279.617 72.6583   4
   2  -2 -10 117.658 49.8262   4
  -2   2  10 65.7999 17.2193   1
  -2   2  10 75.3445 17.0224   2
  -2   2   9 4347.40 164.590   2
  -2   2   9 4090.24 160.056   1
   2  -2  -9 4312.27 240.487   4
   2  -2  -8 1879.72 144.385   4
  -2   2   8 1806.29 97.1078   2
   2  -2  -8 1878.73 99.4252   2
   2  -2  -7 5052.57 240.077   4
  -2   2   7 4664.92 182.041   2
   2  -2  -7 4897.48 185.015   2
   2  -2  -6 364.435 56.3194   4
   2  -2  -6 431.840 45.8584   2
  -2   2   6 491.783 63.6401   4
  -2   2   6 408.065 43.8419   2
  -2   2   5 3171.97 142.215   2
   2  -2  -5 3391.29 144.498   2
   2  -2  -5 3251.71 167.319   4
  -2   2   5 3689.06 173.029   4
   2  -2  -4 12654.6 417.624   4
  -2   2   4 13849.1 418.940   4
   2  -2  -4 12944.0 392.693   2
  -2   2   4 12969.2 392.990   2
   2  -2  -3 15340.4 439.879   2
  -2   2   3 14424.8 436.515   2
  -2   2   3 14865.6 449.924   4
   2  -2  -3 15029.3 450.922   4
  -2   2   2 10945.4 349.626   2
   2  -2  -2 11716.2 354.667   2
  -2   2   2 11629.0 355.924   4
  -2   2   1 1003.68 70.5352   2
   2  -2  -1 965.249 69.0866   5
   2  -2   0 6136.46 215.006   5
  -2   2   0 6773.07 227.032   2
   2  -2   0 6144.38 191.095   3
   2  -2   1 325.118 40.2253   2
  -2   2  -1 300.965 32.2574   3
  -2   2  -1 253.848 34.1020   5
  -2   2  -1 269.933 40.4252   2
   2  -2   2 640.287 55.5498   2
  -2   2  -2 602.229 49.6873   3
  -2   2  -2 624.978 55.1446   2
  -2   2  -2 591.602 51.9785   5
  -2   2  -3 3465.55 148.614   2
   2  -2   3 3559.89 148.150   2
   2  -2   4 22195.0 600.954   2
  -2   2  -4 21035.8 600.755   2
  -2   2  -5 658.301 55.4872   2
   2  -2   5 734.662 58.1829   2
   2  -2   6 250.249 32.8061   2
  -2   2  -6 235.949 31.7643   2
   2  -2   7 307.560 36.4255   2
  -2   2  -7 312.557 36.8291   2
  -2   2  -8 2619.83 119.214   2
  -2   2  -8 2754.64 118.379   1
  -2   2  -8 2737.21 190.934   4
  -2   2  -9 1438.02 143.432   4
  -2   2  -9 1533.49 77.9134   1
  -2   2  -9 1543.42 80.1299   2
  -2   2 -10 1638.60 157.106   4
  -2   2 -11 4026.90 270.630   4
  -2   2 -12 594.819 102.135   4
  -2   2 -13 40.0913 56.4152   4
   2  -1 -14 100.453 59.4613   4
   2  -1 -13 47.6790 54.0942   4
   2  -1 -12 75.1878 47.3778   4
   2  -1 -11 3551.48 237.448   4
  -2   1  10 1213.75 62.6699   1
  -2   1  10 1227.63 63.2205   1
   2  -1 -10 1251.02 129.814   4
  -2   1   9 1259.27 69.3649   2
   2  -1  -9 1224.75 68.7020   2
   2  -1  -9 1228.79 121.185   4
  -2   1   8 1311.40 72.5658   2
   2  -1  -8 1262.65 114.949   4
   2  -1  -8 1159.56 69.7265   2
   2  -1  -7 288.736 34.7090   2
   2  -1  -7 328.137 57.0215   4
  -2   1   7 343.090 37.2324   2
  -2   1   6 2732.65 121.168   2
   2  -1  -6 2857.42 122.995   2
   2  -1  -6 2862.48 162.829   4
  -2   1   6 3199.49 167.097   4
  -2   1   5 3850.38 152.001   2
   2  -1  -5 3988.24 186.579   4
   2  -1  -5 3962.15 152.986   2
   2  -1  -4 1223.78 73.7622   2
  -2   1   4 1158.50 71.1760   2
   2  -1  -4 1158.21 86.6617   4
   2  -1  -3 7.81678 20.1091   4
  -2   1   3 13.7279 17.5164   2
   2  -1  -3 33.2791 15.9057   2
   2  -1  -2 1430.48 78.6567   2
  -2   1   2 1151.47 72.9917   2
  -2   1   1 10408.2 318.136   2
   2  -1   0 15018.9 400.347   3
  -2   1   0 14002.9 414.500   2
   2  -1   0 14083.1 399.974   5
   2  -1   1 15069.3 436.736   5
  -2   1  -1 16109.8 459.774   2
   2  -1   1 16857.0 461.823   2
  -2   1  -1 16194.2 450.334   3
   2  -1   1 17516.8 454.206   3
  -2   1  -2 1626.01 74.8124   5
  -2   1  -2 1667.63 87.9018   2
  -2   1  -2 1705.34 89.7031   3
   2  -1   2 1614.77 86.6775   2
  -2   1  -3 415.512 41.3924   2
   2  -1   3 418.481 40.4397   2
  -2   1  -4 378.411 38.9748   2
   2  -1   4 362.006 37.6726   2
  -2   1  -5 6759.40 229.427   2
   2  -1   5 7143.50 229.966   2
   2  -1   6 255.376 30.7187   2
  -2   1  -6 301.090 33.5688   2
  -2   1  -7 8102.27 248.343   2
   2  -1   7 7635.24 244.276   2
  -2   1  -8 1655.24 77.2459   1
   2  -1   8 1570.78 78.0812   2
  -2   1  -8 1600.62 140.932   4
  -2   1  -9 2831.22 100.524   1
  -2   1  -9 2766.53 199.201   4
  -2   1  -9 2834.52 99.4983   1
  -2   1 -10 1472.47 151.052   4
  -2   1 -11 110.973 55.1223   4
  -2   1 -12 4716.07 309.211   4
  -2   1 -13 75.3870 64.3512   4
   2   0 -15 98.7169 50.2857   4
   2   0 -14 4264.74 301.173   4
   2   0 -13 62.4862 56.1909   4
   2   0 -12 18.9512 25.7268   4
   2   0 -11 19.1970 32.6153   4
   2   0 -10 13.5305 8.33848   2
  -2   0  10-1.76434 4.82929   1
   2   0 -10 15.9241 33.8555   4
   2   0  -9 715.816 48.5889   2
   2   0  -9 695.466 89.9599   4
  -2   0   9 761.142 49.1181   1
  -2   0   8 2151.46 98.0294   1
   2   0  -8 2231.64 98.8057   2
   2   0  -8 2073.26 152.214   4
  -2   0   7 4475.96 163.629   1
   2   0  -7 5066.78 231.954   4
   2   0  -7 4645.14 167.117   2
  -2   0   6 1254.94 72.5273   2
   2   0  -6 1229.06 72.1163   2
   2   0  -6 1291.78 101.286   4
  -2   0   5 416.174 42.3808   2
   2   0  -5 471.717 43.3899   2
   2   0  -5 497.076 57.4501   4
   2   0  -4 1332.03 90.1339   4
  -2   0   4 1378.48 76.5003   2
   2   0  -4 1194.93 72.6364   2
   2   0  -3 4323.97 162.439   2
   2   0  -3 4747.81 182.988   4
  -2   0   3 4478.49 166.420   2
  -2   0   2 18957.4 517.961   2
   2   0  -2 18432.3 513.616   2
  -2   0   1 213463. 5201.59   2
   2   0   0 1804.53 86.9196   3
  -2   0   0 1773.07 90.6329   2
  -2   0  -1 1722.45 87.5952   2
   2   0   1 1626.90 84.9003   2
   2   0   1 1604.21 61.8182   5
   2   0   1 1732.57 87.1639   3
  -2   0  -2 303.229 36.7955   2
   2   0   2 302.321 36.0464   2
  -2   0  -3 5274.67 189.152   2
   2   0   3 5696.15 191.090   2
  -2   0  -4 17369.4 484.155   2
   2   0   4 17497.4 484.876   2
  -2   0  -5 2147.10 98.2420   1
   2   0   5 2296.86 101.471   2
  -2   0  -6 2.75893 10.4551   1
   2   0   6-14.9942 10.5379   2
   2   0   7 544.559 42.0143   2
  -2   0  -7 550.386 41.7553   1
   2   0   8 10143.3 292.572   2
  -2   0  -8 9898.47 411.892   4
  -2   0  -8 10419.8 288.648   1
   2   0   9 619.194 36.6152   2
  -2   0  -9 684.666 33.0188   1
  -2   0  -9 737.692 102.200   4
  -2   0 -10 1474.10 151.619   4
  -2   0 -11 7148.78 377.394   4
  -2   0 -12 1111.47 145.526   4
  -2   0 -13 281.649 84.2569   4
   2   1 -15 1914.16 201.756   4
   2   1 -14 4.09383 33.1731   4
   2   1 -13 55.1066 41.4635   4
   2   1 -12 344.276 80.3489   4
   2   1 -11 11949.7 489.354   4
  -2  -1  11 11393.9 310.849   1
   2   1 -10 1454.70 70.3323   2
   2   1 -10 1101.86 122.709   4
  -2  -1  10 1276.08 65.9713   1
  -2  -1   9 103.181 18.6614   1
   2   1  -9 149.139 51.7085   4
   2   1  -9 124.055 21.1913   2
   2   1  -8 4934.92 176.270   2
   2   1  -8 5266.77 252.980   4
  -2  -1   8 4871.28 172.957   1
   2   1  -7 346.345 57.5033   4
  -2  -1   7 286.512 33.0741   1
   2   1  -7 361.764 39.1376   2
   2   1  -6-16.9330 11.1897   2
  -2  -1   6 10.7688 13.0721   1
   2   1  -6 13.1270 22.6305   4
  -2  -1   6 36.2160 22.9415   4
  -2  -1   5 4432.56 167.247   1
   2   1  -5 4293.09 194.894   4
   2   1  -5 4619.23 170.811   2
  -2  -1   5 4662.93 199.165   4
   2   1  -4 2595.65 132.801   4
  -2  -1   4 2747.37 118.988   1
   2   1  -4 2733.30 121.190   2
  -2  -1   4 2709.04 133.123   4
  -2  -1   3 7027.07 233.913   1
   2   1  -3 7222.00 236.117   2
   2   1  -3 7090.75 244.201   4
  -2  -1   3 7142.73 243.192   4
  -2  -1   2 111913. 2812.45   1
   2   1  -2 111121. 2813.59   2
  -2  -1   2 119471. 2818.26   4
  -2  -1   1 643.662 52.2775   1
   2   1   0 938.179 62.8896   3
  -2  -1   0 922.498 63.1871   1
  -2  -1  -1 1758.33 92.2452   1
   2   1   1 1849.15 93.2797   2
   2   1   1 1846.41 95.1750   3
   2   1   2 4400.88 165.923   2
  -2  -1  -2 4467.87 164.752   1
  -2  -1  -3 1516.49 82.4500   1
   2   1   3 1528.40 84.1603   2
   2   1   4 5518.18 194.408   2
  -2  -1  -4 5424.84 189.138   1
   2   1   5 537.541 46.5803   2
  -2  -1  -5 525.825 45.5181   1
   2   1   6 6737.33 221.897   2
  -2  -1  -6 6807.71 219.678   1
  -2  -1  -7 11839.8 338.952   1
   2   1   7 11670.7 343.993   2
  -2  -1  -7 12623.0 450.746   4
   2   1   8 32.7863 11.6517   2
  -2  -1  -8 49.4337 27.7755   4
  -2  -1  -8 16.4858 9.57514   1
  -2  -1  -9 785.031 104.990   4
   2   1   9 844.162 45.7926   2
  -2  -1  -9 817.429 42.9674   1
  -2  -1 -10 1231.17 136.361   4
  -2  -1 -11 1368.95 150.270   4
  -2  -1 -12 145.682 59.1064   4
  -2  -1 -13 393.374 93.4907   4
   2   2 -15 1938.47 207.028   4
   2   2 -14 821.402 126.608   4
   2   2 -13 1659.45 173.330   4
   2   2 -12-25.6317 29.0728   4
  -2  -2  11 1038.18 62.2919   1
   2   2 -11 1034.97 122.212   4
   2   2 -10 8690.29 274.913   2
  -2  -2  10 8811.82 273.088   1
   2   2 -10 8479.88 380.642   4
   2   2  -9 78.1867 21.4764   2
   2   2  -9 97.1164 43.8961   4
  -2  -2   9 123.965 22.7679   1
   2   2  -8 18184.4 521.281   2
   2   2  -8 17679.3 598.299   4
  -2  -2   8 18638.1 514.889   1
   2   2  -7 1625.94 92.6517   2
   2   2  -7 1502.54 117.696   4
  -2  -2   7 1537.15 87.4769   1
   2   2  -6 149.680 24.5148   2
  -2  -2   6 224.777 32.3186   1
   2   2  -6 188.246 39.5888   4
  -2  -2   6 314.663 50.9281   4
  -2  -2   5 5155.90 208.090   4
   2   2  -5 5004.29 188.172   2
   2   2  -5 4739.13 182.356   1
   2   2  -5 4712.87 202.761   4
  -2  -2   5 4670.13 181.125   1
   2   2  -4 14784.8 427.914   1
   2   2  -4 14030.1 435.981   4
  -2  -2   4 15102.0 437.758   4
  -2  -2   4 14103.2 424.529   1
   2   2  -3 19070.7 540.514   1
   2   2  -3 18962.5 538.231   4
  -2  -2   3 19404.5 536.753   4
  -2  -2   3 19161.3 538.579   1
  -2  -2   2 5883.02 199.089   4
  -2  -2   2 5894.23 211.013   1
  -2  -2   1 10683.6 333.123   1
   2   2   0 50010.7 1255.66   3
  -2  -2   0 47743.4 1255.49   1
   2   2   1 218.924 35.4739   3
  -2  -2  -1 232.113 35.6756   1
   2   2   1 159.252 29.9515   1
   2   2   2 14.4640 16.2276   1
  -2  -2  -2 0.97547 16.6432   3
  -2  -2  -2-0.22898 13.2246   1
   2   2   2-1.87754 15.7233   3
   2   2   3 14950.9 431.294   1
  -2  -2  -3 14278.0 426.327   1
  -2  -2  -3 14801.8 454.256   3
   2   2   4 686.527 57.1123   2
  -2  -2  -4 415.149 27.6993   5
  -2  -2  -4 672.854 67.8756   3
  -2  -2  -4 714.846 55.2223   1
   2   2   5 2128.76 106.697   2
  -2  -2  -5 1999.35 79.2653   5
  -2  -2  -5 1961.69 100.038   1
  -2  -2  -5 2006.60 130.985   3
   2   2   6 12864.0 392.589   2
  -2  -2  -6 14285.8 464.561   4
  -2  -2  -6 12798.2 384.744   1
  -2  -2  -7 4022.10 214.137   4
   2   2   7 3711.09 152.412   2
  -2  -2  -7 3787.97 148.521   1
   2   2   8 4431.28 167.182   2
  -2  -2  -8 4529.75 164.395   1
  -2  -2  -8 5007.17 258.231   4
  -2  -2  -9 15.0497 7.59378   1
  -2  -2  -9 58.4771 34.6586   4
  -2  -2 -10 4446.46 272.288   4
  -2  -2 -11 1044.59 133.482   4
  -2  -2 -12 49.8950 44.5856   4
  -2  -2 -13 16.9486 36.9039   4
   2   3 -15 193.155 72.8284   4
   2   3 -14-50.0397 47.4960   4
   2   3 -13 2061.17 190.907   4
   2   3 -12 950.229 123.532   4
  -2  -3  11 8757.27 287.663   1
   2   3 -11 8588.19 398.466   4
   2   3 -10 1100.58 78.8738   2
  -2  -3  10 1011.60 73.6212   1
   2   3 -10 1099.66 120.591   4
   2   3  -9 977.025 74.8814   2
  -2  -3   9 1027.37 73.8932   1
   2   3  -9 1035.36 109.598   4
   2   3  -8 30.9372 9.99811   2
   2   3  -8 40.1131 22.0879   4
  -2  -3   8 26.3643 14.0072   1
   2   3  -7 17787.2 519.738   1
   2   3  -7 16668.3 557.313   4
  -2  -3   7 17926.6 516.030   1
  -2  -3   6 15.6773 13.5563   1
   2   3  -6 10.3882 10.5397   1
   2   3  -6-6.35821 18.2369   4
  -2  -3   6 3.21808 13.2436   4
   2   3  -5 301.526 40.7937   1
  -2  -3   5 254.492 39.4593   1
   2   3  -5 360.385 48.2671   4
  -2  -3   5 353.994 46.4044   4
  -2  -3   4 16.8081 19.6088   1
  -2  -3   4 13.4065 15.5699   4
   2   3  -4 12.5231 13.7704   4
   2   3  -4 9.55806 12.3636   1
   2   3  -3 836.860 62.7022   4
  -2  -3   3 954.691 63.8773   4
  -2  -3   3 865.542 67.6364   1
   2   3  -3 924.703 71.7372   1
  -2  -3   2 1589.33 94.9280   1
  -2  -3   2 1412.78 75.9052   4
  -2  -3   1 6054.90 193.511   4
  -2  -3   1 5972.11 223.799   1
   2   3   0 25.7327 18.5399   3
  -2  -3   0 22.3036 21.5215   1
   2   3   0 27.9358 18.6985   1
   2   3   1 217.021 33.6381   3
  -2  -3  -1 247.008 38.8016   1
   2   3   1 261.571 38.4057   1
  -2  -3  -2 4869.87 206.473   3
   2   3   2 5018.29 204.567   3
   2   3   2 5604.43 210.288   1
   2   3   2 5661.28 169.749   5
  -2  -3  -2 5174.77 203.131   1
  -2  -3  -3 8347.08 307.248   3
   2   3   3 9218.73 301.086   1
  -2  -3  -3 8526.30 291.212   1
  -2  -3  -4 38.0905 23.3782   3
  -2  -3  -4-5.32539 14.6054   1
   2   3   4 16.4965 17.9511   1
  -2  -3  -5 220.967 43.0470   4
  -2  -3  -5 242.049 45.9651   3
   2   3   5 297.578 40.6184   1
  -2  -3  -5 222.361 34.8012   1
  -2  -3  -5 236.299 28.9300   5
   2   3   6 8400.73 288.021   2
   2   3   6 8260.76 284.105   1
  -2  -3  -6 8527.53 254.195   5
  -2  -3  -6 8558.38 329.845   4
  -2  -3  -6 7946.73 279.575   1
  -2  -3  -6 7808.86 325.996   3
  -2  -3  -7 241.390 30.9801   5
  -2  -3  -7 256.689 56.3602   4
   2   3   7 157.875 29.6155   2
  -2  -3  -7 255.358 51.3815   3
  -2  -3  -7 267.291 37.9418   1
  -2  -3  -8 1.92643 23.7760   3
  -2  -3  -8 12.5169 10.7875   5
  -2  -3  -8 25.4351 24.5170   4
  -2  -3  -8 30.9360 17.7248   1
   2   3   8 9.43960 14.5954   2
  -2  -3  -9 428.114 44.2708   1
  -2  -3  -9 635.243 92.4276   4
  -2  -3 -10 1376.94 144.727   4
  -2  -3 -11 2864.21 226.455   4
  -2  -3 -12 38.4679 42.2074   4
  -2  -3 -13 46.2466 27.2630   4
   2   4 -14 361.304 89.2780   4
   2   4 -13 974.531 129.953   4
   2   4 -12 940.621 123.655   4
  -2  -4  11 4382.92 191.402   1
   2   4 -11 4232.95 260.665   4
   2   4 -10 599.944 63.0146   2
  -2  -4  10 562.099 61.6592   1
   2   4 -10 599.582 88.3122   4
   2   4  -9 1503.63 103.945   1
  -2  -4   9 1619.75 105.225   1
   2   4  -9 1355.69 126.562   4
   2   4  -8 6921.86 264.361   1
  -2  -4   8 6939.94 260.975   1
   2   4  -8 6245.13 290.825   4
   2   4  -7 3891.89 178.359   1
  -2  -4   7 3569.41 172.555   1
  -2  -4   7 3829.78 194.198   4
   2   4  -7 3423.63 188.329   4
   2   4  -6 2706.09 143.075   1
   2   4  -6 2553.61 146.503   4
  -2  -4   6 2708.21 143.049   1
  -2  -4   6 2688.00 148.895   4
   2   4  -5 8629.83 306.969   4
  -2  -4   5 8627.15 310.750   1
  -2  -4   5 8856.69 306.604   4
   2   4  -5 9357.71 319.565   1
   2   4  -4 17183.7 506.707   4
  -2  -4   4 17450.0 531.223   1
  -2  -4   4 17481.1 509.420   4
   2   4  -4 18240.1 536.448   1
  -2  -4   3 492.339 57.7808   1
   2   4  -3 502.290 47.1300   4
  -2  -4   3 479.124 43.7742   4
   2   4  -3 607.133 61.5540   1
  -2  -4   2 447.156 37.7985   4
  -2  -4   2 496.031 58.1989   1
  -2  -4   1 80.9261 25.7321   1
  -2  -4   1 57.6737 13.3270   4
   2   4   0 29.0929 14.8080   1
   2   4   0-18.9286 14.0070   3
  -2  -4   0 54.8812 28.1041   1
   2   4   1 856.043 71.6335   3
  -2  -4  -1 851.986 74.1561   1
   2   4   1 943.188 79.2138   1
   2   4   2 7420.39 244.424   5
  -2  -4  -2 7542.05 280.682   1
   2   4   2 8664.82 296.083   1
   2   4   2 7863.98 279.286   3
  -2  -4  -3 3936.96 186.454   3
  -2  -4  -3 3808.12 180.352   1
   2   4   3 4516.71 192.082   1
  -2  -4  -4 83.0374 31.2199   3
   2   4   4 240.964 41.1081   1
  -2  -4  -4 218.946 38.9785   1
  -2  -4  -4 151.411 31.2811   4
   2   4   5 50.2905 22.2998   1
  -2  -4  -5 37.0226 26.0771   3
  -2  -4  -5 59.2180 21.7154   1
  -2  -4  -5 71.2583 32.2764   4
  -2  -4  -6 250.143 51.9560   3
   2   4   6 238.079 42.6273   1
  -2  -4  -6 249.192 41.0213   1
  -2  -4  -6 371.624 58.6007   4
   2   4   7 15693.0 495.727   1
  -2  -4  -7 15729.8 498.163   1
  -2  -4  -7 17625.6 482.618   5
  -2  -4  -7 16509.5 555.307   4
  -2  -4  -7 15155.1 549.987   3
  -2  -4  -8 1988.36 119.470   1
  -2  -4  -8 1984.13 156.410   4
  -2  -4  -8 2467.31 120.450   5
  -2  -4  -8 1901.01 155.435   3
  -2  -4  -9 4666.69 195.736   1
  -2  -4  -9 4552.36 262.603   4
  -2  -4  -9 4656.21 265.947   3
  -2  -4 -10 59.0732 43.7704   3
  -2  -4 -10 42.0797 34.6847   4
  -2  -4 -11 89.0173 49.8747   3
  -2  -4 -11 42.5591 25.6066   4
  -2  -4 -12 662.046 110.159   3
  -2  -4 -12 554.417 105.135   4
  -2  -4 -13 1415.88 166.764   4
   2   5 -14 146.899 58.8622   4
   2   5 -13 86.3695 40.4289   4
   2   5 -12 1810.19 170.653   4
  -2  -5  11 1236.26 99.6368   1
   2   5 -11 931.375 118.917   4
  -2  -5  10 385.016 57.6995   1
   2   5 -10 292.231 63.9585   4
  -2  -5   9 6.43740 22.9114   1
   2   5  -9 4.64173 19.1722   4
  -2  -5   8 2889.39 161.642   1
   2   5  -8 2803.56 174.829   4
  -2  -5   7 9924.80 358.137   1
   2   5  -7 9680.54 364.121   4
  -2  -5   7 10167.6 365.444   4
  -2  -5   6 253.700 41.6129   4
   2   5  -6 335.357 48.7613   4
  -2  -5   6 243.898 47.2956   1
  -2  -5   5 528.624 54.8568   4
   2   5  -5 460.342 51.0941   4
  -2  -5   5 441.283 60.3212   1
   2   5  -4 1661.04 93.5293   4
  -2  -5   4 1594.14 116.023   1
  -2  -5   4 1638.29 92.5649   4
   2   5  -3 1049.00 65.3902   4
  -2  -5   3 1090.49 92.2926   1
  -2  -5   3 1004.36 61.9925   4
  -2  -5   2 849.299 82.0503   1
  -2  -5   2 778.249 46.5180   4
  -2  -5   1 21546.5 558.029   4
  -2  -5   1 23090.0 663.019   1
   2   5   0 1103.64 82.8145   3
  -2  -5   0 939.518 87.5450   1
  -2  -5   0 924.352 46.1082   4
   2   5   1 2355.32 128.337   3
  -2  -5  -1 2200.90 138.041   1
   2   5   2 497.498 50.4736   5
  -2  -5  -2 561.823 44.3399   4
  -2  -5  -2 562.831 66.6349   1
   2   5   2 577.386 62.4054   3
  -2  -5  -3 134.200 27.6381   4
  -2  -5  -3 161.559 38.7153   1
  -2  -5  -4 1229.76 101.885   3
  -2  -5  -4 1145.13 96.5706   1
  -2  -5  -4 1381.84 92.3068   4
  -2  -5  -5 1423.53 117.331   3
  -2  -5  -5 1539.64 113.872   1
  -2  -5  -5 1619.72 110.529   4
  -2  -5  -6 4127.62 223.135   3
  -2  -5  -6 4030.68 203.467   1
  -2  -5  -6 4806.00 220.928   4
  -2  -5  -7 136.059 45.1268   3
  -2  -5  -7 125.150 41.0639   4
  -2  -5  -7 133.857 35.3170   1
  -2  -5  -8 23.3333 28.8590   3
  -2  -5  -8-10.1514 15.6645   1
  -2  -5  -8 2.85946 36.1732   4
  -2  -5  -9 131.227 52.1685   3
  -2  -5  -9 221.319 55.1742   4
  -2  -5 -10 374.125 76.3358   3
  -2  -5 -10 367.473 78.0807   4
  -2  -5 -11 467.096 89.0730   3
  -2  -5 -11 591.855 98.5237   4
  -2  -5 -12 58.7230 41.2280   3
  -2  -5 -12-26.4000 32.4430   4
  -2  -5 -13 269.312 72.6867   4
   2   6 -14 1.41258 39.5793   4
   2   6 -13 1450.70 161.463   4
   2   6 -12 16.1390 35.0889   4
  -2  -6  11 5040.65 242.249   1
   2   6 -11 4881.19 283.526   4
  -2  -6  10 5032.95 242.014   1
   2   6 -10 4571.10 262.074   4
  -2  -6   9 12248.9 436.119   1
   2   6  -9 11342.1 446.636   4
  -2  -6   8 5310.42 250.587   1
   2   6  -8 4980.30 246.553   4
   2   6  -7 229.754 45.7083   4
  -2  -6   7 180.029 44.5163   1
  -2  -6   6 1358.87 115.218   1
  -2  -6   6 1295.08 95.9900   4
   2   6  -6 1407.10 101.131   4
   2   6  -5 4300.88 181.954   4
  -2  -6   5 4471.13 220.062   1
  -2  -6   5 4141.64 178.045   4
  -2  -6   4 14470.8 441.047   4
   2   6  -4 16198.7 449.067   4
  -2  -6   4 16029.9 523.092   1
  -2  -6   3 6232.22 200.325   4
  -2  -6   3 7014.07 286.610   1
  -2  -6   2-3.84220 22.1582   1
  -2  -6   2 6.35288 3.27519   4
  -2  -6   1 70.5029 33.4403   1
   2   6   0 22.8575 23.5943   3
  -2  -6   0 49.6035 36.1604   1
   2   6   1 785.945 80.4576   5
  -2  -6  -1 791.113 38.9390   4
  -2  -6  -1 815.403 86.2793   1
   2   6   1 912.598 78.2654   3
   2   6   2 3446.05 169.631   3
  -2  -6  -2 3283.64 187.269   1
  -2  -6  -2 3358.86 125.649   4
   2   6   2 3526.54 166.289   5
  -2  -6  -3 1511.76 85.0544   4
  -2  -6  -3 1360.94 112.948   1
  -2  -6  -4 438.893 50.3444   4
  -2  -6  -4 428.879 64.0848   1
  -2  -6  -5 3004.60 178.711   1
  -2  -6  -5 2853.41 174.291   3
  -2  -6  -5 3097.36 161.007   4
  -2  -6  -6 972.178 101.418   3
  -2  -6  -6 910.378 95.5481   1
  -2  -6  -6 1056.23 95.7781   4
  -2  -6  -7 577.326 82.1281   3
  -2  -6  -7 636.108 77.9509   1
  -2  -6  -7 664.322 79.8180   4
  -2  -6  -8 200.868 52.4420   3
  -2  -6  -8 293.918 53.2139   1
  -2  -6  -8 390.345 65.6055   4
  -2  -6  -9 1447.14 141.027   4
  -2  -6  -9 1858.98 164.088   3
  -2  -6 -10 565.743 95.3915   3
  -2  -6 -10 480.181 82.4628   4
  -2  -6 -11 742.038 113.026   3
  -2  -6 -11 746.095 107.768   4
  -2  -6 -12 8.35700 34.9769   3
   2   7 -14-4.83517 26.9612   4
   2   7 -13 1602.51 171.104   4
   2   7 -12 1439.55 151.083   4
  -2  -7  11 456.966 70.4939   1
   2   7 -11 536.815 90.9631   4
  -2  -7  10 632.270 85.1368   1
   2   7 -10 690.722 93.7504   4
  -2  -7   9 563.278 78.8790   1
   2   7  -9 598.799 82.1132   4
   2   7  -8 2788.61 172.560   4
  -2  -7   8 2948.20 188.851   1
  -2  -7   7 1972.16 152.221   1
   2   7  -7 1990.73 133.022   4
   2   7  -6 13157.7 425.744   4
  -2  -7   6 12997.1 483.409   1
   2   7  -5 743.361 64.3940   4
  -2  -7   5 806.606 94.8052   1
   2   7  -4 100.336 20.4114   4
  -2  -7   4 119.730 42.8292   1
  -2  -7   3 8047.80 343.205   1
  -2  -7   2 2412.90 167.879   1
   2   7  -1 3967.41 188.899   3
  -2  -7   1 4376.77 232.235   1
   2   7   0 26.6325 20.5775   3
  -2  -7   0 51.0450 28.0854   1
  -2  -7  -1 1885.65 145.467   1
   2   7   1 1538.05 109.128   3
  -2  -7  -2 172.550 15.5950   4
  -2  -7  -2 178.531 46.7142   1
  -2  -7  -3 10319.6 300.774   4
  -2  -7  -3 9490.57 397.415   1
  -2  -7  -4 480.001 75.3705   1
  -2  -7  -4 463.427 47.2138   4
  -2  -7  -5 234.779 51.7146   1
  -2  -7  -5 262.839 42.5637   4
  -2  -7  -6-4.13025 26.3389   3
  -2  -7  -6-2.06023 25.1660   1
  -2  -7  -6 11.2669 15.9519   4
  -2  -7  -7-9.41809 21.4497   3
  -2  -7  -7 39.0215 25.5464   1
  -2  -7  -7 39.0848 25.7367   4
  -2  -7  -8 2023.49 165.558   3
  -2  -7  -8 2086.17 153.600   1
  -2  -7  -9 57.9421 27.7704   3
  -2  -7 -10 908.926 121.382   3
  -2  -7 -11 73.7018 47.5254   3
   2   8 -14 472.943 99.3308   4
   2   8 -13 110.143 54.7808   4
   2   8 -12 239.754 60.7044   4
  -2  -8  11 1407.38 134.772   1
   2   8 -11 1369.11 139.768   4
   2   8 -10 137.084 51.9720   4
  -2  -8  10 47.2732 34.5959   1
  -2  -8   9 1202.36 127.557   1
   2   8  -9 1162.03 113.917   4
  -2  -8   8 312.057 69.0208   1
   2   8  -8 120.003 34.7341   4
  -2  -8   7 2178.60 171.520   1
   2   8  -7 2442.29 144.135   4
   2   8  -6 152.988 33.6442   4
  -2  -8   6 173.984 53.7432   1
  -2  -8   5 3415.24 219.610   1
   2   8  -5 3525.96 147.566   4
  -2  -8   4 661.473 96.2489   1
  -2  -8   3 862.549 106.294   1
  -2  -8   2 2820.23 194.076   1
  -2  -8   1 177.228 51.6528   1
  -2  -8   0 3091.47 206.911   1
  -2  -8  -1 189.379 51.9460   1
  -2  -8  -2 184.531 51.1345   1
  -2  -8  -3 3056.30 205.310   1
  -2  -8  -4 1040.37 115.778   1
  -2  -8  -5 423.639 73.3695   1
  -2  -8  -6 601.893 88.9006   1
  -2  -8  -7 452.335 76.8818   1
  -2  -8  -8 1134.37 127.128   3
  -2  -8  -8 1181.53 123.646   1
  -2  -8  -9 144.531 50.3677   3
  -2  -9  11 411.851 72.0597   1
  -2  -9  10 607.796 93.2007   1
  -2  -9   9 6.42242 25.6278   1
  -2  -9   8 251.293 63.8843   1
  -2  -9   7-21.8003 22.2391   1
  -2  -9   6 2282.30 185.393   1
  -2  -9   5 21.1055 42.2261   1
  -2  -9   4 2196.71 182.715   1
  -2  -9   3 869.927 113.373   1
  -2  -9   2 2571.54 196.058   1
  -2  -9   1 301.024 75.8313   1
  -2  -9   0 250.544 64.2449   1
  -2  -9  -1 2270.53 186.706   1
  -2  -9  -2 526.584 87.7219   1
  -2  -9  -3 2849.76 210.114   1
  -2  -9  -4 430.864 80.9599   1
  -2  -9  -5 210.846 63.7794   1
  -2  -9  -6 368.183 75.9783   1
  -2  -9  -7 16.3846 27.5651   1
  -2 -10  11 148.071 49.7508   1
  -2 -10  10 1028.37 130.562   1
  -2 -10   9 140.063 57.9927   1
  -2 -10   8 64.4298 37.8069   1
  -2 -10   7 78.0385 51.5794   1
  -2 -10   6 275.612 71.5361   1
  -2 -10   5 5119.33 307.852   1
  -2 -10   4 662.897 102.238   1
  -2 -10   3 401.324 81.0053   1
  -2 -10   2 949.462 125.038   1
  -2 -10   1 3379.07 243.964   1
  -2 -10   0 2594.21 208.391   1
  -2 -10  -1 877.922 120.109   1
  -2 -10  -2 55.0272 39.5525   1
  -2 -10  -3 166.528 62.8442   1
  -2 -10  -4 3913.19 264.644   1
  -2 -10  -5 1346.20 150.044   1
  -2 -10  -6 4907.51 300.765   1
  -2 -10  -7 990.545 127.744   1
  -2 -11  10 270.105 73.5603   1
  -2 -11   9 116.902 53.4764   1
  -2 -11   8 838.503 124.218   1
  -2 -11   7 404.350 88.4943   1
  -2 -11   6 401.548 89.3607   1
  -2 -11   5 523.939 99.2967   1
  -2 -11   4 3823.45 272.374   1
  -2 -11   3 954.929 133.684   1
  -2 -11   2 4538.72 299.724   1
  -2 -11   1-4.47017 45.7013   1
  -2 -11   0 205.790 71.7042   1
  -2 -11  -1 772.233 123.408   1
  -2 -11  -2 497.749 97.9815   1
  -2 -11  -3 1787.12 184.598   1
  -2 -11  -4 725.935 111.889   1
  -2 -11  -5 24.8593 35.9446   1
  -3  11   6 2821.47 239.052   2
  -3  11   5 62.1662 38.9332   2
  -3  11   4-51.4137 46.7682   2
  -3  11   3 2053.63 202.109   2
  -3  11   2 1563.08 177.295   2
  -3  11   1 1196.39 157.452   2
  -3  11   0 124.976 45.3271   2
  -3  11  -1 1142.22 148.977   2
  -3  11  -2 2232.59 209.588   2
  -3  11  -3 490.271 100.277   2
  -3  11  -4 347.766 86.1274   2
  -3  11  -5 61.5488 47.3714   2
  -3  11  -6 17.8601 35.7288   2
  -3  10   8 1468.93 163.735   2
  -3  10   7 1014.83 135.317   2
  -3  10   6 1154.58 145.357   2
  -3  10   5 735.978 116.133   2
  -3  10   4 1148.43 142.499   2
  -3  10   3 156.305 58.7616   2
  -3  10   2 3023.39 233.926   2
  -3  10   1 1712.49 173.504   2
  -3  10   0 4784.32 302.430   2
  -3  10  -1 293.304 73.7880   2
  -3  10  -2 41.3814 41.2048   2
  -3  10  -3 147.331 63.6935   2
  -3  10  -4 1648.75 173.548   2
  -3  10  -5 554.815 99.0801   2
  -3  10  -6 36.3097 37.7173   2
  -3  10  -7-22.9049 32.2745   2
  -3  10  -8-2.67187 31.3214   2
  -3  10  -9 119.796 53.6882   2
   3  -9  -9 159.844 49.8982   5
  -3   9   9 58.2985 46.0633   2
   3  -9  -8 143.819 57.3115   5
  -3   9   8 199.980 63.0936   2
   3  -9  -7 52.3843 47.4352   5
  -3   9   7 38.9644 32.3418   2
   3  -9  -6 753.025 127.926   5
  -3   9   6 1041.67 130.049   2
  -3   9   5 853.299 117.095   2
  -3   9   4 2206.25 190.842   2
  -3   9   3 1622.95 160.692   2
  -3   9   2 136.323 47.3431   2
  -3   9   1 1919.54 174.586   2
  -3   9   0 38.7934 40.7194   2
  -3   9  -1 2139.19 183.316   2
  -3   9  -2 1759.43 167.408   2
  -3   9  -3 3799.11 253.334   2
  -3   9  -4 46.7036 33.3565   2
  -3   9  -5-32.5231 35.3592   2
  -3   9  -6 60.0523 30.0534   2
  -3   9  -7 3373.60 237.411   2
  -3   9  -8 1182.88 137.483   2
  -3   9  -8 1098.34 128.758   4
  -3   9  -9 4021.00 262.895   2
  -3   9  -9 3720.05 264.227   4
  -3   9 -10 69.7577 35.5388   4
  -3   9 -11 85.1154 43.1446   4
   3  -8 -11 72.9453 49.7419   5
   3  -8 -10 109.650 67.6316   5
   3  -8  -9 34.6460 28.0941   5
  -3   8   9-33.5023 32.7530   2
   3  -8  -8 497.144 98.2508   5
  -3   8   8 454.971 80.7123   2
   3  -8  -7 637.538 106.755   5
  -3   8   7 282.271 63.4204   2
   3  -8  -6 141.166 65.7829   5
  -3   8   6 157.214 57.5542   2
  -3   8   5 1990.48 169.281   2
   3  -8  -5 1719.80 171.651   5
  -3   8   4 14.0609 31.8597   2
   3  -8  -4 40.0228 34.0616   5
  -3   8   3 323.746 69.9011   2
  -3   8   2 2953.36 208.553   2
  -3   8   1 2782.65 163.979   4
  -3   8   1 3022.62 208.559   2
  -3   8   0 9348.22 411.210   2
  -3   8  -1 498.670 86.3747   2
  -3   8  -2 1173.99 126.961   2
  -3   8  -3 5.56265 36.0874   2
  -3   8  -3 55.9650 15.7186   3
  -3   8  -4-2.23068 29.3250   2
  -3   8  -4 25.3899 12.7224   3
  -3   8  -5 230.162 60.0875   2
  -3   8  -5 188.037 31.8582   3
  -3   8  -6 3124.41 217.030   2
  -3   8  -7 364.449 69.2764   2
  -3   8  -8 121.479 43.6998   2
  -3   8  -9 1118.83 127.223   2
  -3   8  -9 969.225 130.392   4
  -3   8 -10 363.387 82.8881   4
  -3   8 -11 2162.62 209.738   4
   3  -7 -13 58.7132 45.1568   4
   3  -7 -12 33.4523 50.2737   5
   3  -7 -12 121.243 56.2176   4
   3  -7 -11 572.025 105.490   5
   3  -7 -11 345.768 79.4897   4
   3  -7 -10 19.0958 38.3734   5
   3  -7 -10 54.4640 44.8968   4
  -3   7  10 89.8625 35.0928   2
  -3   7   9 2059.45 160.227   2
   3  -7  -9 1992.20 185.511   5
   3  -7  -9 1953.65 169.916   4
   3  -7  -8 244.548 67.2457   5
  -3   7   8 299.585 66.9477   2
   3  -7  -7 415.014 88.8082   5
  -3   7   7 453.125 73.8708   2
   3  -7  -6 1761.43 163.377   5
  -3   7   6 1720.06 148.368   2
   3  -7  -5 29.6828 43.0452   5
  -3   7   5 49.8344 40.7115   2
  -3   7   4 3247.62 206.277   2
   3  -7  -4 2791.45 200.983   5
  -3   7   3 333.356 66.7854   2
   3  -7  -3 388.566 82.8765   5
  -3   7   2 2322.63 169.024   2
  -3   7   2 1868.92 131.359   4
  -3   7   1 506.642 80.0446   2
  -3   7   1 543.947 68.5913   4
  -3   7   0 4543.90 253.039   2
  -3   7  -1 3141.78 205.547   2
  -3   7  -2 5320.44 277.700   2
  -3   7  -3 22821.6 762.421   2
  -3   7  -3 23648.7 638.852   3
  -3   7  -4 1412.73 131.719   2
  -3   7  -4 1311.52 87.1015   3
  -3   7  -5 711.755 93.8768   2
  -3   7  -6 1522.53 138.105   2
  -3   7  -7 2843.19 194.745   2
  -3   7  -8 10.8415 16.4527   2
  -3   7  -9 3038.05 200.630   2
  -3   7  -9 2532.06 212.015   4
  -3   7 -10 639.786 107.957   4
  -3   7 -11-3.87876 26.4416   4
   3  -6 -13 126.058 61.6379   4
   3  -6 -12-31.4789 38.0054   4
   3  -6 -11 69.2072 42.6095   4
   3  -6 -10 45.6991 27.3995   4
   3  -6 -10 59.2048 50.9693   5
  -3   6  10 99.8261 41.7361   2
   3  -6  -9 849.472 118.676   5
   3  -6  -9 702.596 98.9261   4
  -3   6   9 655.861 84.0817   2
   3  -6  -8 363.578 75.5315   5
   3  -6  -8 498.106 80.0112   4
  -3   6   8 380.374 63.7748   2
  -3   6   7 8090.64 344.013   2
   3  -6  -7 8099.08 378.230   5
   3  -6  -6 3274.46 216.512   5
  -3   6   6 3248.87 196.225   2
  -3   6   5 1617.01 134.110   2
   3  -6  -5 1572.13 140.520   5
   3  -6  -4 293.385 61.0950   5
  -3   6   4 279.709 58.1754   2
   3  -6  -3 884.507 99.3727   5
  -3   6   3 1034.50 106.366   2
  -3   6   3 915.275 87.9059   4
   3  -6  -2 32.3465 33.5079   5
  -3   6   2 22.2523 19.3076   4
  -3   6   2-6.35216 23.8068   2
  -3   6   1 5036.35 254.454   2
  -3   6   1 4970.64 226.032   4
  -3   6   0 2701.88 178.216   2
  -3   6  -1 2015.53 151.830   2
  -3   6  -2 55.0807 17.4811   3
  -3   6  -2 15.3360 23.0730   2
  -3   6  -3 3825.82 217.231   2
  -3   6  -3 3857.98 159.684   3
  -3   6  -4 307.038 40.4041   3
  -3   6  -4 362.898 62.9534   2
  -3   6  -5 3051.04 190.578   2
  -3   6  -6 562.032 78.2227   2
  -3   6  -7 158.722 42.1137   2
  -3   6  -8 1799.92 143.594   2
  -3   6  -9 1799.74 143.167   2
  -3   6 -10 844.936 125.536   4
  -3   6 -11 126.393 64.9305   4
  -3   6 -12 290.380 83.3238   4
   3  -5 -13 7.55283 26.8227   4
   3  -5 -12 1134.55 144.321   4
   3  -5 -11 3385.77 244.828   4
  -3   5  10 1237.41 108.237   2
   3  -5 -10 1352.46 145.261   4
  -3   5   9 4604.17 230.275   2
   3  -5  -9 4952.52 276.443   4
  -3   5   8 745.393 85.1579   2
   3  -5  -8 859.205 104.412   4
   3  -5  -7 98.0473 38.7740   4
  -3   5   7 73.4261 30.3656   2
   3  -5  -6 57.7906 34.6214   4
  -3   5   6 41.9523 28.8866   2
  -3   5   5 969.765 95.9850   2
   3  -5  -5 915.644 99.1002   5
   3  -5  -4 3132.76 193.698   5
  -3   5   4 3173.40 182.234   2
  -3   5   3 3691.09 188.152   4
  -3   5   3 3759.12 201.207   2
   3  -5  -3 3430.26 200.082   5
  -3   5   2 19533.0 590.512   4
   3  -5  -2 19077.4 610.567   5
  -3   5   2 19444.9 614.512   2
   3  -5  -2 18907.3 491.245   3
   3  -5  -1 2462.33 166.112   5
  -3   5   1 3020.86 173.554   2
  -3   5   0 569.814 73.1387   2
  -3   5  -1 6506.23 285.438   2
  -3   5  -2 13188.2 391.133   3
  -3   5  -2 13700.5 471.193   2
  -3   5  -3 680.722 59.4729   3
  -3   5  -3 676.985 81.2992   2
  -3   5  -4 26.9693 29.6554   2
  -3   5  -4 38.4218 18.3878   3
  -3   5  -5 1.55835 23.0502   2
  -3   5  -6 1058.77 100.051   2
  -3   5  -7 10719.1 403.222   2
  -3   5  -8 709.021 81.5842   2
  -3   5  -9 158.156 35.4944   2
  -3   5 -10 139.714 65.3565   4
  -3   5 -11 400.966 92.2084   4
  -3   5 -12 58.2397 46.9846   4
   3  -4 -14 130.217 54.6098   4
   3  -4 -13 709.875 120.056   4
   3  -4 -12 965.628 132.589   4
   3  -4 -11 1565.66 161.442   4
  -3   4  10 4029.73 195.675   2
   3  -4 -10 4044.41 257.355   4
   3  -4  -9 290.726 65.9667   4
  -3   4   9 212.999 42.4022   2
   3  -4  -8 383.319 71.6051   4
  -3   4   8 424.806 60.6069   2
   3  -4  -7 149.682 40.6906   4
  -3   4   7 156.343 41.9737   2
  -3   4   6 773.072 83.0293   2
   3  -4  -6 872.956 95.3460   4
  -3   4   5 528.514 65.2948   2
  -3   4   4 66.4122 29.9257   4
  -3   4   4 154.959 38.8461   2
   3  -4  -3 1671.48 125.952   5
  -3   4   3 1810.02 125.720   2
  -3   4   3 1850.59 124.215   4
  -3   4   2 2829.16 160.408   2
   3  -4  -2 2171.91 144.254   5
  -3   4   2 2923.13 155.592   4
   3  -4  -2 2641.80 154.875   2
   3  -4  -1 13.2960 10.5574   3
   3  -4  -1 58.8624 29.1307   5
  -3   4   1 35.6521 24.5950   2
  -3   4   0 2125.47 134.299   2
   3  -4   0 1584.25 119.732   5
  -3   4  -1 13034.9 432.063   5
  -3   4  -1 12564.9 436.312   2
   3  -4   1 12837.3 434.489   2
  -3   4  -2 849.201 63.9836   3
  -3   4  -2 872.323 81.8111   5
   3  -4   2 905.903 84.3336   2
  -3   4  -2 803.755 82.7576   2
  -3   4  -3 6165.34 236.923   3
   3  -4   3 7040.08 277.529   2
  -3   4  -3 6356.47 271.084   2
  -3   4  -3 7147.34 274.392   5
  -3   4  -4 408.534 57.5239   5
  -3   4  -4 322.148 52.1115   2
  -3   4  -4 301.607 44.8088   3
  -3   4  -5 94.4657 32.0734   2
  -3   4  -5 45.9089 19.3948   5
  -3   4  -6 949.914 88.6998   2
   3  -4   7 571.786 67.3901   2
  -3   4  -7 562.728 67.8308   2
  -3   4  -8 2649.61 153.512   1
  -3   4  -8 2527.57 153.167   2
  -3   4  -9 878.262 82.5918   2
  -3   4 -10 2045.06 189.798   4
  -3   4 -11 3.18504 26.0828   4
  -3   4 -12 684.796 120.369   4
   3  -3 -14 91.5465 62.5290   4
   3  -3 -13 37.1088 53.2315   4
   3  -3 -12 6539.58 362.757   4
   3  -3 -11-20.3192 30.6537   4
  -3   3  10 637.830 67.1581   2
   3  -3 -10 718.465 104.365   4
   3  -3  -9 62.3397 28.6862   2
   3  -3  -9-9.60203 28.1853   4
  -3   3   9 35.7384 23.6897   2
  -3   3   8 1780.27 117.254   2
   3  -3  -8 1855.67 151.256   4
   3  -3  -8 1670.51 113.856   2
   3  -3  -7 2869.05 155.184   2
  -3   3   7 2993.23 159.066   2
   3  -3  -7 3226.21 195.019   4
  -3   3   6 4246.23 198.301   2
   3  -3  -6 4431.73 224.107   4
   3  -3  -6 4237.24 197.653   2
   3  -3  -5 10.4301 19.0677   2
   3  -3  -5 28.0066 24.1959   4
  -3   3   5-2.68969 20.4222   2
   3  -3  -4 92.6416 30.2713   2
  -3   3   4 101.048 28.9053   4
  -3   3   4 78.2786 28.9809   2
   3  -3  -3 344.481 50.6915   2
  -3   3   3 313.011 49.9401   4
  -3   3   3 363.337 51.1204   2
  -3   3   2 950.761 84.8994   2
   3  -3  -2 795.698 78.6678   5
   3  -3  -2 900.696 81.5925   2
  -3   3   2 948.929 82.7072   4
   3  -3  -1 3039.10 119.159   3
  -3   3   1 2729.77 151.870   2
   3  -3  -1 2693.75 147.754   5
   3  -3   0 621.221 62.1092   5
   3  -3   0 592.838 47.2148   3
  -3   3   0 630.402 68.6497   2
  -3   3  -1 11727.9 374.029   3
  -3   3  -1 12888.3 424.224   2
   3  -3   1 13681.0 428.340   2
  -3   3  -1 13782.4 417.297   5
  -3   3  -2 1747.04 99.7377   3
  -3   3  -2 1806.91 119.398   2
  -3   3  -2 2010.48 116.484   5
   3  -3   2 1820.43 117.298   2
   3  -3   3 153.398 36.3318   2
  -3   3  -3 110.987 27.1796   3
  -3   3  -3 127.465 29.4962   5
  -3   3  -3 70.5206 22.4424   2
  -3   3  -4 426.133 54.1928   3
   3  -3   4 436.279 56.3766   2
  -3   3  -4 395.903 51.2556   5
  -3   3  -4 314.988 45.9075   2
   3  -3   5 14.7974 15.5724   2
  -3   3  -5 6.37025 18.3293   2
  -3   3  -6 7422.83 289.007   2
   3  -3   6 7866.89 288.609   2
   3  -3   7 473.922 57.6378   2
  -3   3  -7 429.967 54.1724   2
   3  -3   8 123.139 27.9530   2
  -3   3  -8 175.427 37.6176   2
  -3   3  -9 460.494 56.8416   2
  -3   3 -10 457.994 91.5538   4
  -3   3 -11 1545.70 167.708   4
  -3   3 -12 397.657 91.3994   4
   3  -2 -14 351.408 89.1972   4
   3  -2 -13 2996.23 244.062   4
   3  -2 -12 45.1965 50.4331   4
  -3   2  11 423.728 48.4575   2
   3  -2 -11 516.856 95.6594   4
   3  -2 -10 245.832 40.0342   2
  -3   2  10 286.241 43.2492   2
   3  -2 -10 343.646 73.8727   4
   3  -2  -9 45.7595 20.8561   2
  -3   2   9 49.9360 23.9459   2
   3  -2  -9 84.6024 40.7105   4
   3  -2  -8 99.1682 26.9934   2
  -3   2   8 134.622 33.8884   2
   3  -2  -8 324.460 61.7926   4
  -3   2   7 513.751 57.7262   2
   3  -2  -7 456.873 53.8215   2
   3  -2  -7 758.305 89.0943   4
  -3   2   6 875.052 76.8033   2
   3  -2  -6 900.020 77.8373   2
   3  -2  -6 1019.75 100.533   4
  -3   2   5 944.183 79.2458   2
   3  -2  -5 937.218 79.2330   2
  -3   2   5 1059.64 93.3628   4
   3  -2  -5 893.078 90.3484   4
  -3   2   4 3854.26 181.814   2
   3  -2  -4 4113.85 183.582   2
  -3   2   4 4284.31 199.513   4
  -3   2   3 52.4234 23.9490   4
  -3   2   3 16.2992 18.3453   2
   3  -2  -3 60.4353 23.1541   2
  -3   2   2 7521.58 280.473   2
   3  -2  -2 7861.65 280.313   2
  -3   2   2 7445.71 280.202   4
  -3   2   1 553.154 63.5914   2
   3  -2   0 13938.1 394.826   3
  -3   2   0 13737.1 429.242   2
   3  -2   0 12305.9 400.679   5
  -3   2  -1 4707.05 184.991   3
   3  -2   1 4987.92 188.659   3
  -3   2  -1 5166.95 212.892   2
   3  -2   1 4737.80 189.017   5
   3  -2   1 5326.67 210.875   2
  -3   2  -2 6129.62 233.953   3
  -3   2  -2 6444.52 252.123   2
  -3   2  -2 6870.72 235.313   5
   3  -2   2 6679.42 251.333   2
  -3   2  -3 18513.4 558.560   2
  -3   2  -3 18139.3 532.114   5
   3  -2   3 20252.9 564.550   2
  -3   2  -3 18215.6 552.786   3
  -3   2  -4 593.242 64.7620   3
  -3   2  -4 688.984 66.0487   2
  -3   2  -4 600.690 55.7485   5
   3  -2   4 609.685 61.2803   2
   3  -2   5 462.280 53.5481   2
  -3   2  -5 395.915 51.7307   2
  -3   2  -5 464.829 62.6554   3
  -3   2  -6 2182.62 125.716   2
   3  -2   6 2163.58 122.195   2
  -3   2  -7 1472.71 100.149   2
   3  -2   7 1284.06 90.6125   2
  -3   2  -8 2465.46 131.514   2
   3  -2   8 2294.55 123.933   2
  -3   2  -9 808.754 69.1148   2
  -3   2 -10 5624.78 326.384   4
  -3   2 -11 860.152 125.662   4
  -3   2 -12 78.3391 46.6785   4
   3  -1 -14 115.517 65.9104   4
   3  -1 -13 1919.12 190.189   4
   3  -1 -12 3486.01 251.047   4
  -3   1  11 617.820 55.9372   1
   3  -1 -11 641.740 99.6757   4
  -3   1  10 3831.94 164.429   1
   3  -1 -10 3707.22 163.398   2
   3  -1 -10 3733.29 240.149   4
  -3   1   9 2292.48 123.234   2
   3  -1  -9 2220.37 122.150   2
   3  -1  -9 2413.82 176.493   4
  -3   1   8 184.943 32.9525   2
   3  -1  -8 221.221 57.6399   4
   3  -1  -8 172.958 32.4917   2
  -3   1   7 1492.17 99.1215   2
   3  -1  -7 1499.22 97.9638   2
   3  -1  -7 1555.54 128.541   4
  -3   1   6 427.586 52.0616   2
   3  -1  -6 369.157 59.0766   4
   3  -1  -6 348.117 46.5433   2
  -3   1   5 1400.34 95.8809   2
   3  -1  -5 1518.28 97.7724   2
   3  -1  -5 1563.05 117.543   4
   3  -1  -4 529.722 63.1181   4
  -3   1   4 406.920 53.6197   2
   3  -1  -4 425.810 50.6308   2
  -3   1   3 2245.24 123.972   2
   3  -1  -3 2256.55 124.243   2
  -3   1   2 282.756 42.7266   2
  -3   1   1 2136.70 121.949   2
   3  -1   0 7525.02 252.160   3
  -3   1   0 7148.33 265.396   2
  -3   1  -1 467.483 50.4833   3
   3  -1   1 532.447 44.6624   5
  -3   1  -1 528.409 58.7994   2
   3  -1   1 556.423 55.7769   2
   3  -1   1 524.161 53.0523   3
  -3   1  -2 6508.52 244.134   3
  -3   1  -2 6455.28 248.639   2
   3  -1   2 7090.65 252.799   2
  -3   1  -3 705.171 65.9865   2
   3  -1   3 708.154 64.2749   2
  -3   1  -3 576.475 46.6539   5
  -3   1  -3 569.485 63.3301   3
   3  -1   4 1167.43 84.0156   2
  -3   1  -4 1102.37 83.3253   2
  -3   1  -4 1080.66 64.7733   5
  -3   1  -4 1113.72 91.6236   3
  -3   1  -5 1416.78 94.7897   2
   3  -1   5 1394.65 92.5975   2
  -3   1  -5 1295.59 107.599   3
  -3   1  -6 6065.47 231.312   2
   3  -1   6 5895.08 226.857   2
  -3   1  -7 2179.49 119.221   2
   3  -1   7 2167.31 116.566   2
  -3   1  -8 12551.9 374.210   1
   3  -1   8 11229.2 367.889   2
  -3   1  -9 1603.22 91.5269   1
  -3   1 -10 5377.17 315.877   4
  -3   1 -11 588.074 102.513   4
  -3   1 -12 2620.59 231.677   4
   3   0 -14 1016.00 146.790   4
   3   0 -13 99.0902 49.1793   4
   3   0 -12 97.9057 47.6551   4
   3   0 -11 464.822 85.5239   4
  -3   0  11 390.228 42.3482   1
   3   0 -10 66.1029 32.7318   4
  -3   0  10 27.0946 15.3983   1
   3   0 -10 37.4391 19.5863   2
  -3   0   9 6950.51 252.728   1
   3   0  -9 7098.67 254.624   2
   3   0  -9 6938.02 329.027   4
  -3   0   8 2052.76 113.657   1
   3   0  -8 2047.68 115.716   2
   3   0  -8 2120.14 156.553   4
  -3   0   7 76.1979 25.2412   2
   3   0  -7 31.4699 17.5251   2
   3   0  -7 62.8538 30.3236   4
  -3   0   6 981.976 77.0320   2
   3   0  -6 951.573 75.7338   2
   3   0  -6 956.929 92.7075   4
  -3   0   5 3807.10 169.681   2
   3   0  -5 3732.86 168.199   2
   3   0  -5 4045.69 195.172   4
  -3   0   4 1872.79 111.754   2
   3   0  -4 1933.03 111.805   2
   3   0  -4 1913.14 122.190   4
  -3   0   3 38.6665 21.8344   2
   3   0  -3 16.6785 16.1832   2
  -3   0   2 5361.13 214.293   2
  -3   0   1 2377.88 128.560   2
   3   0   0 103.495 25.5646   3
  -3   0   0 62.6761 27.3120   2
  -3   0  -1 14824.0 458.678   2
   3   0   1 16036.0 460.240   2
   3   0   1 14455.1 404.729   5
   3   0   1 15654.7 458.811   3
  -3   0  -2 2376.09 133.087   3
  -3   0  -2 2570.68 133.674   2
   3   0   2 2638.70 131.312   2
   3   0   2 2539.74 133.330   3
  -3   0  -3 639.818 68.1646   3
  -3   0  -3 633.295 61.6441   2
   3   0   3 815.641 67.9943   2
  -3   0  -4 215.226 44.2738   3
  -3   0  -4 245.230 22.3993   5
  -3   0  -4 179.759 35.7432   2
   3   0   4 212.702 33.6657   2
  -3   0  -5 125.762 32.5891   3
  -3   0  -5 145.655 30.4665   2
   3   0   5 137.055 29.3743   2
  -3   0  -5 107.740 16.2015   5
  -3   0  -6 124.759 42.5068   3
  -3   0  -6 119.602 28.2542   1
   3   0   6 109.809 26.6825   2
  -3   0  -7 8055.96 276.196   1
   3   0   7 8188.89 277.603   2
  -3   0  -7 7717.70 339.593   3
   3   0   8 2493.86 122.527   2
  -3   0  -8 2587.38 123.697   1
  -3   0  -9 282.225 34.5964   1
  -3   0  -9 337.512 72.7351   4
  -3   0 -10 77.0270 41.6542   4
  -3   0 -11 108.252 58.0335   4
  -3   0 -12 52.0509 49.6973   4
   3   1 -14 29.5650 37.7322   4
   3   1 -13 95.9796 57.6585   4
   3   1 -12 14056.5 575.022   4
   3   1 -11 4849.42 286.934   4
  -3  -1  11 4849.62 187.284   1
   3   1 -10 1898.81 111.182   2
   3   1 -10 2218.80 176.561   4
  -3  -1  10 2138.82 113.588   1
   3   1  -9 1465.82 97.2630   2
   3   1  -9 1580.85 138.543   4
  -3  -1   9 1766.03 102.462   1
   3   1  -8 78.4505 25.0519   2
  -3  -1   8 54.0812 22.5233   1
   3   1  -8 110.010 36.9960   4
  -3  -1   7 1060.11 79.4565   1
   3   1  -7 975.176 77.9555   2
   3   1  -7 933.294 98.4133   4
  -3  -1   6 3347.39 157.448   1
   3   1  -6 3478.38 161.645   2
  -3  -1   6 3648.23 187.747   4
   3   1  -6 3307.24 183.735   4
  -3  -1   5 63.4125 25.0145   1
   3   1  -5 100.899 33.2353   4
   3   1  -5 45.9125 19.8031   2
  -3  -1   5 78.3017 29.7827   4
  -3  -1   4 1455.79 98.1836   1
   3   1  -4 1668.61 102.776   2
   3   1  -4 1519.65 105.592   4
  -3  -1   4 1686.17 110.091   4
  -3  -1   3 3321.35 160.385   2
  -3  -1   3 3301.35 157.382   1
   3   1  -3 3522.63 162.962   2
  -3  -1   3 3697.73 167.618   4
  -3  -1   2 2020.48 118.549   2
  -3  -1   2 1945.13 113.079   1
  -3  -1   2 2104.20 116.503   4
  -3  -1   1 634.788 64.1507   2
  -3  -1   1 641.651 62.8320   1
   3   1   0 4912.23 199.727   3
  -3  -1   0 4970.78 205.560   2
   3   1   0 5190.82 206.373   2
  -3  -1   0 4826.55 199.706   1
   3   1   1 496.000 53.9543   3
  -3  -1  -1 403.174 49.6903   1
   3   1   1 426.077 50.9036   2
   3   1   2 99.7109 26.1974   3
  -3  -1  -2 98.1843 24.6144   1
   3   1   2 129.612 29.9275   2
  -3  -1  -3 2481.50 131.222   1
   3   1   3 2699.31 136.518   2
  -3  -1  -4 1991.88 114.246   1
   3   1   4 2172.13 120.592   2
  -3  -1  -5 5362.91 208.017   1
   3   1   5 5691.41 214.228   2
  -3  -1  -5 4317.51 227.342   3
   3   1   6 3147.53 145.853   2
  -3  -1  -6 2754.64 137.470   1
  -3  -1  -6 2853.38 177.757   3
   3   1   7 831.947 69.3854   2
  -3  -1  -7 881.001 69.2216   1
  -3  -1  -7 844.476 98.0180   3
   3   1   8 2848.61 134.924   2
  -3  -1  -8 2831.42 130.723   1
  -3  -1  -8 2656.51 187.729   3
  -3  -1  -9 4035.17 156.887   1
  -3  -1  -9 3941.15 250.419   4
  -3  -1  -9 3500.26 234.466   3
  -3  -1 -10 3450.65 245.885   4
  -3  -1 -10 3578.31 243.711   3
  -3  -1 -11 103.529 55.8142   4
  -3  -1 -11 32.0754 42.4506   3
  -3  -1 -12 448.310 99.1901   4
  -3  -1 -12 669.323 112.165   3
   3   2 -14 985.099 140.173   4
   3   2 -13 2207.06 202.389   4
   3   2 -12 974.092 125.874   4
  -3  -2  11 85.6750 24.7459   1
   3   2 -11 88.3780 43.8153   4
   3   2 -10 1587.42 103.082   2
   3   2 -10 1458.21 140.598   4
  -3  -2  10 1670.03 101.609   1
   3   2  -9 2492.49 136.777   2
   3   2  -9 2515.59 178.526   4
  -3  -2   9 2604.93 134.367   1
   3   2  -8 193.064 38.9049   2
   3   2  -8 202.458 48.3218   4
  -3  -2   8 154.870 35.5319   1
   3   2  -7 1019.47 83.1391   2
   3   2  -7 869.599 92.7589   4
  -3  -2   7 980.511 78.6737   1
  -3  -2   6-3.17910 16.1037   1
   3   2  -6 39.5288 23.7328   2
   3   2  -6 31.2510 20.0424   4
  -3  -2   6-3.24930 18.0543   4
   3   2  -5 4326.36 189.222   2
   3   2  -5 3852.90 193.311   4
  -3  -2   5 4345.80 198.105   4
  -3  -2   5 4178.50 186.012   1
   3   2  -4 93.9431 26.1470   2
   3   2  -4 147.265 37.2335   4
  -3  -2   4 151.096 32.9447   4
  -3  -2   4 96.0822 29.9286   1
  -3  -2   3 4283.01 191.130   1
   3   2  -3 4696.24 198.797   2
  -3  -2   3 4550.29 190.294   4
  -3  -2   2 1283.09 92.8447   1
  -3  -2   2 1289.29 86.3107   4
  -3  -2   1 1334.13 94.6177   1
  -3  -2   0 8722.88 307.144   1
   3   2   0 8692.48 305.654   3
   3   2   0 8792.34 308.581   2
   3   2   1 86.1994 30.1379   3
   3   2   1 103.979 31.0816   2
  -3  -2  -1 60.1805 25.3051   1
   3   2   2 56.7800 27.3927   3
  -3  -2  -2 29.8337 22.0482   1
   3   2   2 26.4489 20.6234   2
   3   2   3 2641.04 139.467   2
  -3  -2  -3 2432.79 132.277   1
  -3  -2  -4 476.358 64.7921   3
   3   2   4 647.169 65.0991   2
  -3  -2  -4 497.730 56.3337   1
   3   2   5 2529.10 135.683   2
  -3  -2  -5 2379.09 128.984   1
  -3  -2  -5 2320.89 154.978   3
   3   2   6 7412.05 275.757   2
  -3  -2  -6 7509.74 267.984   1
  -3  -2  -6 7267.78 318.935   3
  -3  -2  -7 502.295 78.1424   3
   3   2   7 595.367 60.9303   2
  -3  -2  -7 539.099 55.8103   1
  -3  -2  -8 5365.49 162.433   5
  -3  -2  -8 5920.66 216.278   1
  -3  -2  -8 6048.63 301.694   4
  -3  -2  -8 5458.73 286.982   3
  -3  -2  -9 1942.98 168.476   4
  -3  -2  -9 1693.46 157.274   3
  -3  -2 -10 448.111 86.1898   3
  -3  -2 -10 330.059 73.1043   4
  -3  -2 -11 378.824 84.4104   3
  -3  -2 -11 401.676 87.6945   4
  -3  -2 -12 1344.29 162.457   4
  -3  -2 -12 1146.78 145.801   3
   3   3 -14 115.558 53.7144   4
   3   3 -13 646.701 106.943   4
   3   3 -12 1681.06 167.792   4
   3   3 -11 1031.13 124.395   4
  -3  -3  11 1002.64 81.4698   1
  -3  -3  10 109.529 33.7001   1
   3   3 -10 147.079 35.7725   2
   3   3 -10 150.611 48.9045   4
   3   3  -9 2089.49 130.626   2
   3   3  -9 2135.49 163.728   4
  -3  -3   9 2373.74 131.528   1
   3   3  -8 7423.19 285.177   2
   3   3  -8 7374.04 320.941   4
  -3  -3   8 7134.53 273.892   1
   3   3  -7 15496.5 484.009   2
   3   3  -7 14577.6 507.185   4
  -3  -3   7 14894.7 472.830   1
   3   3  -6 987.326 84.4145   2
   3   3  -6 867.765 86.0903   4
  -3  -3   6 840.194 82.9254   4
  -3  -3   6 941.871 81.2813   1
   3   3  -5 530.083 62.8915   2
   3   3  -5 542.966 62.3048   1
   3   3  -5 494.285 60.3688   4
  -3  -3   5 372.106 51.1647   4
  -3  -3   5 386.974 53.6548   1
   3   3  -4 17004.7 508.386   1
   3   3  -4 14687.1 486.004   4
  -3  -3   4 16722.1 494.528   4
  -3  -3   4 16113.9 501.260   1
   3   3  -3 419.333 54.5410   1
  -3  -3   3 418.908 49.4777   4
  -3  -3   3 427.802 56.8740   1
  -3  -3   2 12253.6 381.173   4
  -3  -3   2 12340.9 405.152   1
  -3  -3   1 358.483 51.5459   1
   3   3   0 1872.69 117.456   3
   3   3   0 2114.15 127.076   1
  -3  -3   0 1965.74 121.284   1
   3   3   1 4781.25 208.633   3
   3   3   1 4870.15 210.248   1
  -3  -3  -1 4506.92 203.162   1
   3   3   2 365.327 52.0526   3
   3   3   2 341.480 47.8855   1
   3   3   2 473.249 57.7132   2
   3   3   2 376.882 26.5568   5
  -3  -3  -2 305.362 49.9485   1
  -3  -3  -3 1370.28 110.520   3
   3   3   3 1726.60 114.413   2
  -3  -3  -3 1546.79 105.334   1
  -3  -3  -4 1349.84 111.088   3
   3   3   4 1452.44 105.245   2
  -3  -3  -4 1350.40 98.5790   1
  -3  -3  -5 7421.57 320.722   3
   3   3   5 8084.70 296.494   2
  -3  -3  -5 7505.12 282.521   1
  -3  -3  -6 195.716 48.6445   3
  -3  -3  -6 208.401 38.4408   1
   3   3   6 263.391 43.9062   2
   3   3   7 2209.89 132.135   2
  -3  -3  -7 2306.50 129.827   1
  -3  -3  -7 2214.10 164.134   4
  -3  -3  -7 2157.13 164.276   3
  -3  -3  -8 1044.13 83.8320   1
  -3  -3  -8 1073.11 118.184   4
  -3  -3  -8 917.103 113.667   3
  -3  -3  -9 138.456 50.2565   3
  -3  -3  -9 152.743 50.1289   4
  -3  -3 -10 995.813 126.315   4
  -3  -3 -10 1198.82 135.932   3
  -3  -3 -11 572.987 105.589   3
  -3  -3 -11 346.202 85.1999   4
  -3  -3 -12 1056.17 142.497   3
  -3  -3 -12 921.556 134.980   4
   3   4 -14 437.780 96.2395   4
   3   4 -13-2.76074 28.6747   4
   3   4 -12 52.8235 37.3008   4
  -3  -4  11 2277.07 138.037   1
   3   4 -11 2091.56 179.495   4
   3   4 -10 5301.46 286.645   4
  -3  -4  10 5417.76 236.685   1
  -3  -4   9 576.818 66.6842   1
   3   4  -9 540.509 80.1395   4
  -3  -4   8 219.837 45.4258   1
   3   4  -8 219.409 47.1774   4
  -3  -4   7 23.8052 24.2038   1
   3   4  -7 54.5017 29.0381   4
  -3  -4   6 895.469 85.0473   4
  -3  -4   6 853.243 82.0634   1
   3   4  -6 918.296 87.4640   4
   3   4  -5 10681.2 373.440   4
  -3  -4   5 11414.8 379.401   4
  -3  -4   5 11219.1 387.925   1
  -3  -4   4 2001.88 115.392   4
  -3  -4   4 1997.61 127.486   1
  -3  -4   3 93.3186 29.7963   1
  -3  -4   3 97.4495 23.7119   4
  -3  -4   2 46.4793 26.3408   1
  -3  -4   2 31.2122 16.1299   4
  -3  -4   1 522.260 48.9893   4
  -3  -4   1 483.366 61.2394   1
   3   4   0 944.761 85.4014   3
  -3  -4   0 1080.46 90.2244   1
  -3  -4  -1 1780.95 120.552   1
  -3  -4  -2 552.167 66.3759   1
   3   4   2 654.277 46.2208   5
  -3  -4  -3 10.0715 24.1229   1
  -3  -4  -4 1191.49 107.673   3
  -3  -4  -4 1202.80 96.5755   1
  -3  -4  -5 258.768 46.0569   1
  -3  -4  -5 263.378 55.7730   3
  -3  -4  -6 36.3040 30.8452   3
  -3  -4  -6 9.79442 28.2871   4
  -3  -4  -6 36.0046 21.7012   1
  -3  -4  -7 2345.46 177.024   3
  -3  -4  -7 2319.33 139.865   1
  -3  -4  -7 2561.95 173.815   4
  -3  -4  -8 4917.59 219.654   1
  -3  -4  -8 5115.44 274.530   4
  -3  -4  -8 4909.18 279.009   3
  -3  -4  -9 1.79727 32.4228   3
  -3  -4  -9 34.6277 36.5783   4
  -3  -4 -10 44.3579 41.7168   3
  -3  -4 -10 16.5679 37.4872   4
  -3  -4 -11 218.026 69.9008   3
  -3  -4 -11 112.567 52.3916   4
  -3  -4 -12 65.8488 46.3924   4
   3   5 -14 1661.45 181.159   4
   3   5 -13 313.910 75.7347   4
   3   5 -12 1298.53 145.916   4
  -3  -5  11 5672.97 254.653   1
   3   5 -11 5280.00 300.258   4
   3   5 -10 34.4875 35.4121   4
  -3  -5  10-0.89061 20.1804   1
   3   5  -9 2835.02 191.687   4
  -3  -5   9 3216.34 181.196   1
  -3  -5   8 865.120 89.4532   1
   3   5  -8 676.667 84.8567   4
   3   5  -7 2670.37 164.365   4
  -3  -5   7 2758.04 165.256   1
  -3  -5   6 19.8590 25.3225   1
   3   5  -6 8.64817 15.8319   4
  -3  -5   6 11.2678 18.2394   4
  -3  -5   5 137.655 36.1201   1
   3   5  -5 111.710 31.9640   4
  -3  -5   5 121.194 30.6409   4
  -3  -5   4 3542.39 160.785   4
  -3  -5   4 3748.72 195.311   1
  -3  -5   3 2271.46 114.285   4
  -3  -5   3 2335.31 148.663   1
  -3  -5   2 18741.8 532.186   4
  -3  -5   2 19758.3 606.871   1
  -3  -5   1 372.721 60.8371   1
  -3  -5   1 404.201 41.1522   4
  -3  -5   0 656.872 75.9999   1
  -3  -5  -1 2621.46 159.197   1
   3   5   2 2539.34 116.747   5
  -3  -5  -2 2485.78 153.899   1
  -3  -5  -3 59.8146 25.5315   1
  -3  -5  -4 3278.55 182.970   1
  -3  -5  -5 1078.56 108.493   3
  -3  -5  -5 1026.38 96.2341   1
  -3  -5  -5 1135.61 98.8377   4
  -3  -5  -6 1402.00 131.559   3
  -3  -5  -6 1228.63 106.628   1
  -3  -5  -6 1481.47 120.130   4
  -3  -5  -7 530.448 85.4255   3
  -3  -5  -7 604.366 70.9233   1
  -3  -5  -7 530.908 74.5226   4
  -3  -5  -8 115.053 42.2064   3
  -3  -5  -8 56.2042 34.4123   1
  -3  -5  -8 66.1234 35.2068   4
  -3  -5  -9 139.089 54.3696   3
  -3  -5  -9 32.6661 36.3939   4
  -3  -5 -10 888.545 123.606   3
  -3  -5 -10 776.745 109.486   4
  -3  -5 -11 1322.04 157.164   4
  -3  -5 -11 1671.15 178.068   3
  -3  -5 -12 1046.49 146.106   4
   3   6 -14 92.3047 58.1596   4
   3   6 -13 434.995 88.6499   4
   3   6 -12 2109.16 186.093   4
  -3  -6  11 1027.05 104.066   1
   3   6 -11 789.774 109.644   4
  -3  -6  10 893.980 96.2717   1
   3   6 -10 958.431 111.079   4
  -3  -6   9 53.5974 27.8077   1
   3   6  -9 0.40998 19.7326   4
   3   6  -8 1298.64 117.349   4
  -3  -6   8 1237.07 112.384   1
   3   6  -7 106.197 32.9821   4
  -3  -6   7 65.6935 30.1823   1
   3   6  -6 4781.07 216.138   4
  -3  -6   6 4863.06 244.888   1
  -3  -6   6 4667.27 212.289   4
   3   6  -5 272.513 48.7375   4
  -3  -6   5 157.440 32.0179   4
  -3  -6   5 347.848 60.6154   1
  -3  -6   4 1133.47 80.3346   4
  -3  -6   4 1255.39 113.806   1
  -3  -6   3 6.68540 7.84770   4
  -3  -6   3 9.36880 21.7081   1
  -3  -6   2 134.218 39.6697   1
  -3  -6   2 63.6638 15.0851   4
  -3  -6   1 45.7167 13.4841   4
  -3  -6   1 41.7556 18.4147   1
  -3  -6   0 2773.51 114.521   4
  -3  -6   0 2830.27 176.640   1
   3   6   1 2540.37 144.694   5
  -3  -6  -1 2960.31 179.795   1
   3   6   2 590.673 57.9263   5
  -3  -6  -2 445.219 67.5438   1
  -3  -6  -3 916.442 96.6039   1
  -3  -6  -3 1083.18 80.0463   4
  -3  -6  -4 815.406 91.8655   1
  -3  -6  -4 963.285 82.0944   4
  -3  -6  -5 128.556 39.9106   1
  -3  -6  -5 158.629 38.4289   4
  -3  -6  -6 2004.01 161.596   3
  -3  -6  -6 2301.43 151.746   4
  -3  -6  -6 2023.16 149.519   1
  -3  -6  -7 1154.75 125.179   3
  -3  -6  -7 1376.33 123.401   4
  -3  -6  -7 1322.41 119.027   1
  -3  -6  -8-7.15699 26.3072   3
  -3  -6  -8 71.4048 26.0887   1
  -3  -6  -8 86.1231 45.8747   4
  -3  -6  -9 526.670 94.6814   3
  -3  -6  -9 480.995 86.7561   4
  -3  -6 -10 63.0743 42.8923   3
  -3  -6 -11 48.6705 33.4009   3
   3   7 -14 2357.83 219.038   4
   3   7 -13 689.975 113.606   4
   3   7 -12 226.086 68.4389   4
  -3  -7  11 454.521 75.5952   1
   3   7 -11 346.453 74.2132   4
  -3  -7  10 409.744 68.6651   1
   3   7 -10 288.222 60.6387   4
  -3  -7   9 575.740 84.4628   1
   3   7  -9 463.952 72.8361   4
  -3  -7   8 23.3163 28.6028   1
   3   7  -8 14.9314 24.1172   4
   3   7  -7 10071.5 370.550   4
  -3  -7   7 9657.46 403.231   1
   3   7  -6 751.598 75.1311   4
  -3  -7   6 735.356 94.2673   1
  -3  -7   6 617.270 65.0848   4
  -3  -7   5 222.949 56.1309   1
  -3  -7   5 284.482 39.4178   4
  -3  -7   4 332.747 67.9459   1
  -3  -7   4 289.419 35.8011   4
  -3  -7   3 5287.48 268.611   1
  -3  -7   3 5090.08 175.501   4
  -3  -7   2 217.805 22.4738   4
  -3  -7   2 272.898 61.4235   1
  -3  -7   1 33.2708 20.6734   1
  -3  -7   1 36.6763 8.31014   4
  -3  -7   0 11.3319 5.66510   4
  -3  -7   0 24.7033 29.3843   1
   3   7   1 1557.31 121.787   5
  -3  -7  -1 1732.95 76.8747   4
  -3  -7  -1 1766.03 77.3208   4
  -3  -7  -1 1734.96 142.275   1
  -3  -7  -2 2539.72 177.432   1
   3   7   2 2491.96 141.993   5
  -3  -7  -2 2408.44 108.268   4
  -3  -7  -3 4191.54 239.055   1
  -3  -7  -3 4583.81 180.309   4
  -3  -7  -4 845.117 72.8547   4
  -3  -7  -4 836.323 96.8935   1
  -3  -7  -5 28.9836 26.0681   1
  -3  -7  -5 17.4550 14.3893   4
  -3  -7  -6-25.8800 29.5161   1
  -3  -7  -7 9.43152 27.4511   3
  -3  -7  -7 17.7917 28.7702   1
  -3  -7  -8 4.74530 41.8128   3
  -3  -7  -9 473.046 92.0095   3
  -3  -7 -10 590.288 103.219   3
   3   8 -13 49.7699 40.1310   4
   3   8 -12 160.177 52.3250   4
  -3  -8  11 2112.58 174.353   1
   3   8 -11 2122.67 179.021   4
  -3  -8  10 100.751 44.7120   1
   3   8 -10 144.219 54.6923   4
  -3  -8   9 2050.52 171.839   1
   3   8  -9 1989.80 153.015   4
  -3  -8   8 1989.19 167.638   1
   3   8  -8 1910.29 139.884   4
  -3  -8   7 5318.71 288.917   1
   3   8  -7 5109.24 230.403   4
  -3  -8   6 325.937 72.3092   1
  -3  -8   5 6242.34 316.841   1
  -3  -8   4 7006.80 339.425   1
  -3  -8   3 3854.39 238.364   1
  -3  -8   2 2423.79 184.033   1
  -3  -8   1 460.174 79.7643   1
  -3  -8   0 2048.02 165.451   1
  -3  -8  -1 108.908 45.3592   1
  -3  -8  -2 269.513 60.3873   1
  -3  -8  -3 1221.31 130.401   1
  -3  -8  -4-7.91301 24.5397   1
  -3  -8  -5 1298.95 135.004   1
  -3  -8  -6 139.640 47.6989   1
  -3  -8  -7 554.299 86.8031   1
  -3  -9  11 353.369 79.0686   1
  -3  -9  10 49.6989 41.2013   1
  -3  -9   9 56.3675 36.7135   1
  -3  -9   8 1029.77 125.661   1
  -3  -9   7 1827.62 169.179   1
  -3  -9   6 198.967 59.1414   1
  -3  -9   5 873.401 118.078   1
  -3  -9   4 683.745 103.801   1
  -3  -9   3 6663.88 348.452   1
  -3  -9   2 1738.94 165.045   1
  -3  -9   1 1022.52 126.607   1
  -3  -9   0 60.0828 37.8846   1
  -3  -9  -1 1365.07 144.177   1
  -3  -9  -2 45.2767 42.4699   1
  -3  -9  -3 508.137 88.6235   1
  -3  -9  -4 706.296 106.125   1
  -3  -9  -5 447.187 84.5957   1
  -3  -9  -6 296.703 71.2402   1
  -3  -9  -7 41.5542 24.5070   1
  -3 -10  11 418.168 86.6911   1
  -3 -10  10 3.58265 31.5069   1
  -3 -10   9 239.677 72.4936   1
  -3 -10   8 171.047 58.4335   1
  -3 -10   7 349.205 82.1871   1
  -3 -10   6 547.714 101.612   1
  -3 -10   5 1870.54 181.072   1
  -3 -10   4 1075.39 135.484   1
  -3 -10   3 832.183 120.469   1
  -3 -10   2-11.3764 29.4847   1
  -3 -10   1 660.864 106.826   1
  -3 -10   0 303.465 74.1068   1
  -3 -10  -1 231.346 73.6226   1
  -3 -10  -2 161.810 60.9074   1
  -3 -10  -3 81.5468 52.7383   1
  -3 -10  -4 74.3202 51.4113   1
  -3 -10  -5 982.778 131.168   1
  -3 -10  -6 35.0282 37.1847   1
  -3 -11   8 802.360 127.092   1
  -3 -11   7 466.670 98.5301   1
  -3 -11   6-2.66072 32.2363   1
  -3 -11   5 672.699 116.844   1
  -3 -11   4 1186.23 153.162   1
  -3 -11   3 1638.73 180.056   1
  -3 -11   2 1546.63 173.904   1
  -3 -11   1 18.3238 42.3412   1
  -3 -11   0 104.247 53.2651   1
  -3 -11  -1 2182.12 206.320   1
  -3 -11  -2 308.944 83.1336   1
  -4  10   9-11.4520 37.6510   2
  -4  10   8 67.4639 48.2652   2
  -4  10   7 662.931 112.052   2
  -4  10   6 1178.75 150.418   2
  -4  10   5 479.645 97.6273   2
  -4  10   4 771.480 122.748   2
  -4  10   3 198.797 63.0282   2
  -4  10   2 2929.98 237.455   2
  -4  10   1 78.4462 43.8052   2
  -4  10   0 2492.27 219.731   2
  -4  10  -1 106.177 53.9811   2
  -4  10  -2 242.829 68.3092   2
  -4  10  -3 2289.18 213.520   2
  -4  10  -4 580.087 107.696   2
  -4  10  -5 1384.00 162.104   2
  -4  10  -6-35.7133 39.0947   2
  -4  10  -7 50.9829 49.4085   2
  -4  10  -8 750.286 117.843   2
  -4   9   9-20.1052 28.1598   2
  -4   9   8 5531.68 329.771   2
   4  -9  -8 6368.98 377.525   5
   4  -9  -7-44.4246 35.0438   5
  -4   9   7 12.4006 37.0630   2
   4  -9  -6 120.708 63.8782   5
  -4   9   6 37.5388 39.7717   2
   4  -9  -5 857.968 127.318   5
  -4   9   5 801.586 118.677   2
  -4   9   4 17.4162 24.7689   2
  -4   9   3 2033.99 186.521   2
  -4   9   2 154.947 62.1790   2
  -4   9   1 297.962 73.8612   2
  -4   9   0 1919.74 182.978   2
  -4   9  -1 2104.03 191.287   2
  -4   9  -2 1993.85 185.281   2
  -4   9  -3 28.0968 27.3696   2
  -4   9  -4-17.2396 25.3187   2
  -4   9  -5 215.945 62.9981   2
  -4   9  -6 2128.81 194.235   2
  -4   9  -7 19.1836 33.6551   2
  -4   9  -8 2503.67 213.761   2
  -4   9  -9 970.547 130.573   2
   4  -8 -10 200.110 74.3048   5
   4  -8  -9 671.928 123.639   5
  -4   8   9 763.039 108.379   2
   4  -8  -8 596.353 107.273   5
  -4   8   8 469.256 87.2405   2
  -4   8   7 3829.58 255.473   2
   4  -8  -7 4166.02 280.491   5
   4  -8  -6 620.717 105.218   5
  -4   8   6 486.234 90.2655   2
   4  -8  -5 674.671 112.001   5
  -4   8   5 911.006 116.173   2
   4  -8  -4 141.562 60.9574   5
  -4   8   4 243.180 68.0337   2
  -4   8   3 446.405 88.3238   2
  -4   8   2 7323.79 367.636   2
  -4   8   1 1721.67 163.112   2
  -4   8   0 4515.84 277.652   2
  -4   8  -1 63.9957 37.1167   2
  -4   8  -2 499.683 88.3207   2
  -4   8  -3 1231.93 135.948   2
  -4   8  -4 1591.61 157.060   2
  -4   8  -5 623.800 98.1528   2
  -4   8  -6 82.3943 46.4131   2
  -4   8  -7 151.387 54.5428   2
  -4   8  -8 1485.80 154.632   2
  -4   8  -9 3079.77 226.846   2
  -4   8 -10 92.3351 50.6674   4
   4  -7 -12 223.148 74.3912   4
   4  -7 -11 457.031 93.8730   5
  -4   7  10 1310.03 133.379   2
   4  -7 -10 1210.69 152.748   5
   4  -7  -9-33.2765 28.5797   5
  -4   7   9 46.4852 38.8617   2
   4  -7  -8 264.427 77.0055   5
  -4   7   8 171.380 59.6520   2
  -4   7   7 2789.76 201.941   2
   4  -7  -7 2654.83 214.861   5
   4  -7  -6 183.330 65.6083   5
  -4   7   6 276.635 63.9827   2
  -4   7   5 1399.39 138.212   2
   4  -7  -5 1498.91 153.540   5
   4  -7  -4 63.3780 43.5150   5
  -4   7   4 96.7105 42.1568   2
   4  -7  -3 189.954 66.9700   5
  -4   7   3 185.649 51.8220   2
   4  -7  -2 344.296 73.9921   5
  -4   7   2 477.299 81.9524   2
  -4   7   1 59.1399 38.8673   2
  -4   7   0 2360.87 182.596   2
  -4   7  -1 8171.08 377.524   2
  -4   7  -2 1428.77 142.789   2
  -4   7  -3 7338.88 355.495   2
  -4   7  -4 561.937 62.4027   3
  -4   7  -4 468.415 79.2698   2
  -4   7  -5 1760.93 160.305   2
  -4   7  -5 1996.17 130.757   3
  -4   7  -6 3609.36 235.403   2
  -4   7  -6 3491.01 193.973   3
  -4   7  -7 1261.12 134.544   2
  -4   7  -7 1252.79 114.326   3
  -4   7  -8 604.404 83.4512   3
  -4   7  -8 420.832 76.1183   2
  -4   7  -9 136.389 52.3480   3
  -4   7  -9 54.0830 22.1013   2
  -4   7 -10 548.947 93.0083   3
  -4   7 -11 328.605 73.0308   3
   4  -6 -13 370.976 84.9295   4
   4  -6 -12 1306.91 159.240   4
   4  -6 -11 56.7471 45.8725   4
   4  -6 -10 246.753 70.9847   4
  -4   6  10 191.630 51.1805   2
   4  -6  -9 291.857 85.7894   5
  -4   6   9 130.582 39.6710   2
  -4   6   8 1509.74 137.183   2
   4  -6  -8 1463.96 158.541   5
  -4   6   7 6748.22 319.284   2
   4  -6  -7 6079.99 333.958   5
  -4   6   6 1293.00 128.874   2
   4  -6  -6 1342.43 139.506   5
   4  -6  -5 16.9571 29.9885   5
  -4   6   5 89.8871 46.2571   2
   4  -6  -4 14.9314 35.5330   5
  -4   6   4 128.245 42.2315   2
  -4   6   3 1058.01 111.481   2
   4  -6  -3 844.877 100.606   5
   4  -6  -3 945.647 52.7942   3
   4  -6  -2 2341.19 172.967   5
  -4   6   2 2355.03 172.702   2
   4  -6  -1 1745.81 149.741   5
  -4   6   1 1786.28 150.045   2
  -4   6   0 8035.49 359.043   2
  -4   6  -1 343.736 64.3459   2
  -4   6  -2 3493.81 217.984   2
  -4   6  -3 4794.95 203.116   3
  -4   6  -3 5169.84 271.062   2
  -4   6  -4 12468.7 412.359   3
  -4   6  -4 11750.3 471.985   2
  -4   6  -5 301.458 51.9771   3
  -4   6  -5 447.020 75.4813   2
  -4   6  -6 102.458 35.7971   3
  -4   6  -6 100.048 41.2894   2
  -4   6  -7 34.9402 28.3518   3
  -4   6  -7-18.4701 37.6986   2
  -4   6  -8 1953.28 157.528   2
  -4   6  -8 2045.64 163.218   3
  -4   6  -9 2776.69 191.367   2
  -4   6  -9 2557.03 195.878   3
  -4   6 -10 354.203 77.9040   3
   4  -5 -13 585.513 116.176   4
   4  -5 -12 104.351 46.9736   4
   4  -5 -11 1730.09 174.936   4
   4  -5 -10 344.029 78.8710   4
  -4   5  10 335.897 61.2416   2
   4  -5  -9 358.081 77.3607   4
  -4   5   9 257.729 54.0142   2
  -4   5   8 4219.56 232.063   2
  -4   5   7 113.160 41.5500   2
  -4   5   6 867.604 100.959   2
   4  -5  -5 134.265 51.9589   5
  -4   5   5 174.886 45.3694   2
  -4   5   4 1075.38 110.153   2
   4  -5  -4 1232.13 121.270   5
   4  -5  -3 74.0987 39.0633   5
  -4   5   3 40.7043 34.4200   2
   4  -5  -2 235.446 29.4080   3
   4  -5  -2 183.455 44.7459   5
  -4   5   2 253.149 58.3085   2
  -4   5   1 2828.86 184.281   2
   4  -5  -1 2469.68 168.344   5
  -4   5   0 12622.1 471.787   2
  -4   5  -1 3270.85 200.463   2
  -4   5  -2 5070.25 258.288   2
  -4   5  -3 215.582 40.8199   3
  -4   5  -3 250.489 58.4941   2
  -4   5  -4 1290.55 100.978   3
  -4   5  -4 1468.75 128.689   2
  -4   5  -5 9132.08 375.272   2
  -4   5  -5 8749.90 342.581   3
  -4   5  -6 3524.08 207.152   2
  -4   5  -6 3197.12 189.585   3
  -4   5  -7 2953.52 191.231   2
  -4   5  -7 3100.06 194.804   3
  -4   5  -8 1224.61 117.083   2
  -4   5  -8 1041.93 113.568   3
  -4   5  -9 77.7717 37.2726   2
  -4   5  -9-24.8796 34.5618   3
  -4   5 -10 238.256 58.1223   3
  -4   5 -11 656.058 122.673   4
   4  -4 -13 687.516 118.072   4
   4  -4 -12 892.717 133.376   4
  -4   4  11 694.209 83.0814   2
   4  -4 -11 733.655 110.154   4
  -4   4  10 1294.32 112.865   2
   4  -4 -10 1292.02 144.757   4
  -4   4   9 2782.57 174.306   2
   4  -4  -9 2874.96 210.579   4
  -4   4   8 6353.16 283.581   2
   4  -4  -8 5881.06 310.131   4
  -4   4   7 2815.17 175.630   2
  -4   4   6 192.984 49.3072   2
  -4   4   5 21.5606 30.8485   2
  -4   4   4 16.2051 24.7686   2
  -4   4   3 13027.2 459.087   2
   4  -4  -3 11990.5 451.331   5
   4  -4  -2 2466.61 117.166   3
  -4   4   2 2702.11 170.028   2
   4  -4  -2 2422.21 159.148   5
  -4   4   1 16599.0 559.118   2
   4  -4  -1 16515.9 540.022   5
   4  -4  -1 16521.8 476.185   3
  -4   4   0 1102.42 105.982   2
   4  -4   0 887.319 92.6491   5
  -4   4  -1 431.002 65.5897   2
  -4   4  -2 4156.37 185.636   3
  -4   4  -2 4691.41 233.340   2
  -4   4  -3 3136.10 162.948   3
  -4   4  -3 3644.84 201.549   2
  -4   4  -4 6253.44 283.113   2
  -4   4  -4 5944.51 256.659   3
  -4   4  -5 631.025 76.8802   3
  -4   4  -5 840.400 89.8652   2
  -4   4  -6 185.872 46.0371   3
  -4   4  -6 168.640 37.0114   2
  -4   4  -7 256.779 56.6217   3
  -4   4  -7 312.237 58.0663   2
  -4   4  -8 1882.77 140.391   2
  -4   4  -8 1591.37 146.088   3
  -4   4  -9 171.635 48.4423   2
  -4   4  -9 140.001 42.4103   3
  -4   4 -10 1308.07 143.179   3
  -4   4 -11 663.195 118.434   4
  -4   4 -11 735.540 115.012   3
  -4   4 -12 147.305 55.1173   3
   4  -3 -13 3287.16 263.754   4
   4  -3 -12 244.122 76.7923   4
  -4   3  11 3446.00 188.135   2
   4  -3 -11 3654.48 258.493   4
  -4   3  10 63.5908 31.0665   2
   4  -3 -10 39.6673 37.1050   4
   4  -3  -9 147.556 51.5871   4
  -4   3   9 135.217 40.6738   2
   4  -3  -8 417.057 74.1015   4
  -4   3   8 399.919 63.3315   2
   4  -3  -7 146.914 44.5629   4
  -4   3   7 171.384 44.0251   2
  -4   3   6 114.653 37.4810   2
  -4   3   5 1705.04 128.691   2
  -4   3   4 492.003 68.3828   2
  -4   3   3 185.210 42.0499   2
   4  -3  -2 424.669 60.1313   5
  -4   3   2 558.425 73.0763   2
   4  -3  -1 1377.35 87.4017   3
  -4   3   1 1333.76 112.495   2
   4  -3  -1 1138.24 97.9163   5
   4  -3   0 3969.69 189.459   5
  -4   3   0 4206.83 213.127   2
   4  -3   0 4222.15 175.361   3
  -4   3  -1 4511.81 223.027   2
   4  -3   1 4426.15 203.072   5
  -4   3  -2 2964.88 153.278   3
  -4   3  -2 3261.04 180.470   2
  -4   3  -3 4030.91 195.316   3
  -4   3  -3 4322.21 216.452   2
  -4   3  -3 4454.99 199.822   5
  -4   3  -4 229.393 47.2273   3
  -4   3  -4 222.297 41.3432   5
  -4   3  -4 220.586 44.7316   2
  -4   3  -5 3078.13 174.940   2
  -4   3  -5 2639.11 148.616   5
  -4   3  -5 2514.66 162.124   3
  -4   3  -6 1452.44 116.571   2
  -4   3  -6 1184.31 97.0214   5
  -4   3  -6 1335.61 117.064   3
  -4   3  -7 4636.73 227.270   2
  -4   3  -7 4458.68 210.333   5
  -4   3  -7 4471.57 245.678   3
  -4   3  -8 386.539 72.2881   3
  -4   3  -8 312.072 53.7477   2
  -4   3  -9 110.864 46.3097   3
  -4   3  -9 88.9939 30.7287   2
  -4   3 -10 119.914 45.7658   3
  -4   3 -11 1956.06 200.866   4
  -4   3 -11 1698.48 175.675   3
  -4   3 -12 782.566 122.788   3
   4  -2 -14 1054.26 148.782   4
   4  -2 -13 84.1232 62.3366   4
   4  -2 -12 64.5093 50.0854   4
  -4   2  11 1566.52 113.682   2
   4  -2 -11 1481.11 158.971   4
  -4   2  10 15340.0 501.927   2
   4  -2 -10 14945.5 590.690   4
  -4   2   9 185.920 45.9857   2
   4  -2  -9 188.745 50.2633   4
   4  -2  -8 291.143 64.4831   4
  -4   2   8 205.004 46.8432   2
  -4   2   7 4692.68 226.546   2
   4  -2  -7 5231.32 265.239   4
  -4   2   6 457.724 63.2604   2
   4  -2  -6 374.544 68.3786   4
  -4   2   5 1382.84 111.822   2
  -4   2   4 19003.5 596.734   2
  -4   2   3 445.344 63.2973   2
  -4   2   2 23.1860 18.6183   2
   4  -2  -1 7547.97 268.822   3
  -4   2   1 7471.43 299.706   2
   4  -2  -1 7404.98 280.329   5
   4  -2   0 75.4219 22.9603   3
   4  -2   0 52.0916 22.9215   5
  -4   2   0 54.0528 26.6043   2
   4  -2   1-6.61326 13.2325   3
   4  -2   1-9.08456 14.9042   5
  -4   2  -1-5.41586 18.9464   2
  -4   2  -2 1920.21 123.347   3
  -4   2  -2 2096.37 137.314   2
  -4   2  -3 7710.79 299.997   3
  -4   2  -3 7819.97 310.529   2
  -4   2  -4 1167.65 104.146   3
  -4   2  -4 1300.27 107.032   2
  -4   2  -4 1421.70 91.9871   5
  -4   2  -5 3489.12 189.366   2
  -4   2  -5 3768.49 163.532   5
  -4   2  -5 3390.39 196.369   3
  -4   2  -6 429.801 68.1083   3
  -4   2  -6 455.178 52.4671   5
  -4   2  -6 455.546 64.2222   2
  -4   2  -7 1525.74 116.172   2
  -4   2  -7 1312.08 93.0015   5
  -4   2  -7 1404.38 130.895   3
  -4   2  -8 2941.66 166.318   2
  -4   2  -8 2785.44 198.348   3
  -4   2  -9 1436.55 109.802   2
  -4   2  -9 1519.06 150.209   3
  -4   2 -10 399.928 85.1872   3
  -4   2 -11 817.641 124.150   3
  -4   2 -11 699.607 119.779   4
   4  -1 -14 1505.40 178.853   4
   4  -1 -13 586.549 107.210   4
   4  -1 -12 945.713 130.326   4
  -4   1  11 2853.34 156.131   1
   4  -1 -11 2772.87 219.354   4
  -4   1  10 647.834 72.9469   2
   4  -1 -10 657.106 71.8499   2
   4  -1 -10 653.249 101.707   4
  -4   1   9 2125.54 136.434   2
   4  -1  -9 1932.84 128.898   2
   4  -1  -9 2126.55 174.930   4
  -4   1   8 83.0801 32.1473   2
   4  -1  -8 99.8399 42.4957   4
   4  -1  -8 121.825 33.6464   2
  -4   1   7 8601.04 326.777   2
   4  -1  -7 8376.08 322.216   2
   4  -1  -7 8388.53 364.393   4
  -4   1   6 497.815 67.3489   2
   4  -1  -6 439.420 69.9932   4
   4  -1  -6 529.917 64.7763   2
  -4   1   5 942.385 90.4718   2
   4  -1  -5 1123.07 95.3723   2
  -4   1   4 2299.01 144.418   2
   4  -1  -4 2223.19 138.648   2
  -4   1   3 1015.75 92.9985   2
   4  -1  -3 1090.34 92.2109   2
  -4   1   2 607.500 72.5486   2
   4  -1  -1 38.9439 27.2454   3
  -4   1   1 41.6780 31.1821   2
   4  -1   0 1651.63 107.726   3
  -4   1   0 1424.08 112.362   2
   4  -1   0 1762.56 119.682   2
   4  -1   0 1464.09 93.1162   5
   4  -1   1 290.198 47.0549   3
   4  -1   1 295.005 36.9035   5
  -4   1  -1 363.979 56.4638   2
   4  -1   1 307.839 49.7587   2
  -4   1  -2-11.5455 21.4835   3
  -4   1  -2 6.60454 17.4914   2
   4  -1   2-6.04005 18.9926   2
  -4   1  -3 1924.16 131.001   3
  -4   1  -3 1996.55 132.586   2
   4  -1   3 2042.72 131.051   2
  -4   1  -4 1168.81 105.175   3
  -4   1  -4 1282.23 103.602   2
   4  -1   4 1385.30 105.268   2
  -4   1  -5 177.383 46.5490   3
  -4   1  -5 229.118 45.6159   2
   4  -1   5 184.506 38.2461   2
  -4   1  -6 3679.83 184.056   2
   4  -1   6 3201.97 170.997   2
  -4   1  -6 3313.20 136.427   5
  -4   1  -6 3199.57 200.203   3
  -4   1  -7 220.999 58.3475   3
  -4   1  -7 192.355 29.6859   5
  -4   1  -7 157.175 36.4109   2
   4  -1   7 143.391 33.0369   2
  -4   1  -8 61.9265 34.4088   3
  -4   1  -8 154.340 36.5278   1
  -4   1  -9 4103.01 259.558   3
  -4   1 -10 538.132 97.4018   3
  -4   1 -11 3646.15 278.907   4
  -4   1 -11 3846.54 270.386   3
   4   0 -14 350.781 88.0741   4
   4   0 -13 193.638 67.1942   4
   4   0 -12 2380.88 208.160   4
  -4   0  11 952.460 84.2293   1
   4   0 -11 877.795 117.391   4
   4   0 -10 377.338 82.8145   4
  -4   0  10 397.613 58.2957   1
   4   0 -10 311.055 48.6587   2
  -4   0   9 59.7958 26.1623   1
   4   0  -9 109.332 49.4228   4
   4   0  -9 127.282 32.4621   2
  -4   0   8 2255.53 140.987   2
   4   0  -8 2111.18 135.216   2
   4   0  -8 2373.15 175.037   4
  -4   0   7 768.514 79.5029   2
   4   0  -7 807.876 80.2563   2
   4   0  -7 811.560 95.6637   4
  -4   0   6 772.113 79.5577   2
   4   0  -6 792.477 79.1701   2
   4   0  -6 839.635 95.8822   4
  -4   0   5 1910.51 128.076   2
   4   0  -5 2054.39 130.293   2
  -4   0   4 4822.93 220.503   2
   4   0  -4 4643.23 215.318   2
  -4   0   3 23653.0 723.631   2
   4   0  -3 24775.4 723.937   2
  -4   0   3 25272.5 734.383   4
  -4   0   2 8075.37 311.889   2
  -4   0   1 6431.70 267.182   2
   4   0   0 1514.70 107.921   3
  -4   0   0 1694.29 121.497   2
   4   0   0 1809.31 120.880   2
   4   0   1 117.233 32.2524   3
   4   0   1 109.024 20.6990   5
  -4   0  -1 128.703 34.6865   2
   4   0   1 49.8754 20.1207   2
  -4   0  -2 1072.62 93.2257   2
   4   0   2 1191.16 96.3358   2
  -4   0  -3 3705.00 198.639   3
  -4   0  -3 4036.93 196.514   2
   4   0   3 4329.16 200.063   2
  -4   0  -4 1470.16 121.285   3
  -4   0  -4 1462.91 110.136   2
   4   0   4 1595.30 112.216   2
  -4   0  -5 412.418 67.8009   3
  -4   0  -5 571.687 68.6490   2
   4   0   5 519.723 62.9992   2
  -4   0  -6 146.477 43.7075   3
  -4   0  -6 185.882 38.6628   1
   4   0   6 170.298 35.1265   2
  -4   0  -7 18866.9 558.428   1
   4   0   7 16904.0 546.965   2
  -4   0  -7 17348.5 622.177   3
  -4   0  -8 305.638 67.7512   3
  -4   0  -8 392.989 54.1685   1
  -4   0  -9 715.015 104.138   3
  -4   0 -10 175.339 47.4962   3
  -4   0 -10 143.902 58.6956   4
  -4   0 -11 1939.37 196.873   4
  -4   0 -11 1594.51 172.046   3
  -4   0 -12 2765.94 247.988   4
   4   1 -14 30.4696 32.4273   4
   4   1 -13 40.8956 54.2905   4
   4   1 -12 7596.91 399.398   4
  -4  -1  11 264.498 45.8172   1
   4   1 -11 184.119 56.2346   4
  -4  -1  10 7.07916 18.5555   1
   4   1 -10 28.9279 23.9134   2
   4   1 -10 41.0294 34.7296   4
   4   1  -9 192.639 53.5743   4
   4   1  -9 220.224 44.1840   2
  -4  -1   9 293.183 48.6164   1
  -4  -1   8 6139.09 255.616   1
   4   1  -8 5571.22 247.715   2
   4   1  -8 6036.91 296.903   4
  -4  -1   7 2998.44 165.359   1
   4   1  -7 2960.51 164.449   2
   4   1  -7 3121.70 192.330   4
   4   1  -6 935.062 97.3861   4
  -4  -1   6 837.031 83.2986   1
   4   1  -6 907.029 85.7599   2
  -4  -1   5 3636.26 182.718   1
   4   1  -5 3582.55 184.130   2
  -4  -1   4 7.66261 18.6179   2
  -4  -1   4 9.00797 24.4501   1
  -4  -1   4 29.7899 26.1764   4
   4   1  -4 0.64711 24.5164   2
  -4  -1   3 51012.2 1402.07   2
   4   1  -3 51772.2 1401.42   2
  -4  -1   3 54359.1 1409.53   4
  -4  -1   2 1323.61 106.443   2
  -4  -1   1 1373.84 107.147   2
   4   1   0 1657.93 115.073   3
  -4  -1   0 1706.80 123.207   2
  -4  -1   0 1642.90 116.946   1
   4   1   0 1920.50 126.469   2
  -4  -1  -1 827.492 79.1139   1
   4   1   1 888.698 82.8512   2
  -4  -1  -2 1569.25 111.055   1
   4   1   2 1805.34 118.143   2
   4   1   2 1035.73 56.2086   5
  -4  -1  -3 793.034 85.6818   3
  -4  -1  -3 797.397 80.0342   1
   4   1   3 894.075 84.0407   2
  -4  -1  -4 2113.03 150.925   3
  -4  -1  -4 2293.18 140.544   1
   4   1   4 2455.36 143.704   2
  -4  -1  -5 343.852 60.9182   3
  -4  -1  -5 340.524 54.4180   1
   4   1   5 346.365 50.7033   2
  -4  -1  -6 6037.03 302.277   3
  -4  -1  -6 6725.29 264.902   1
   4   1   6 6170.47 260.402   2
  -4  -1  -7 251.818 57.5215   3
  -4  -1  -7 288.391 45.8039   1
   4   1   7 177.777 36.2446   2
  -4  -1  -8 105.548 45.6566   3
  -4  -1  -8 212.429 41.9817   1
  -4  -1  -9 3291.52 234.619   3
  -4  -1 -10 1093.30 133.340   3
  -4  -1 -10 980.569 129.393   4
  -4  -1 -11 258.012 73.3800   3
  -4  -1 -11 360.229 93.3552   4
  -4  -1 -12-15.7338 28.6048   4
   4   2 -14 291.972 83.0431   4
   4   2 -13 194.689 65.2295   4
   4   2 -12 242.834 71.5253   4
   4   2 -11 4716.53 287.370   4
  -4  -2  11 4399.17 207.544   1
   4   2 -10 2.62608 26.2640   4
  -4  -2  10 24.4137 21.4669   1
   4   2  -9 10014.0 431.432   4
  -4  -2   9 10667.9 376.779   1
   4   2  -8 2624.28 183.894   4
  -4  -2   8 2779.81 160.568   1
  -4  -2   7 173.350 37.6693   1
   4   2  -7 144.713 42.8369   4
  -4  -2   6 3246.62 174.515   1
   4   2  -6 3009.00 181.841   4
  -4  -2   5 477.519 61.0573   1
  -4  -2   4 2748.14 161.596   1
  -4  -2   4 2752.93 159.717   4
  -4  -2   3-6.13158 20.3120   1
  -4  -2   3 9.96364 21.1980   4
  -4  -2   2 134.639 33.3414   4
  -4  -2   2 202.745 44.4583   1
  -4  -2   1 2778.37 161.967   1
  -4  -2   0 16.3146 27.9995   1
  -4  -2  -1 2431.44 147.511   1
  -4  -2  -2 1285.43 102.660   1
  -4  -2  -3 1387.98 107.893   1
  -4  -2  -3 1371.38 115.693   3
  -4  -2  -4 1501.61 127.921   3
  -4  -2  -4 1722.76 121.353   1
  -4  -2  -5 96.6858 41.0397   3
  -4  -2  -5-11.3795 15.1683   1
  -4  -2  -6 37.4537 38.7891   3
  -4  -2  -6 16.1477 22.6554   1
  -4  -2  -7 6287.85 323.604   3
  -4  -2  -7 6485.17 263.412   1
  -4  -2  -8 1738.26 116.704   1
  -4  -2  -8 1597.46 158.709   3
  -4  -2  -9 1564.89 161.497   4
  -4  -2  -9 1467.39 155.557   3
  -4  -2 -10 680.384 110.081   3
  -4  -2 -10 608.297 107.035   4
  -4  -2 -11 1497.21 171.776   4
  -4  -2 -11 2039.09 198.493   3
  -4  -2 -12 47.8565 41.4870   4
   4   3 -14 83.1949 53.9468   4
   4   3 -13 2308.05 211.466   4
   4   3 -12 1658.00 173.336   4
  -4  -3  12 1959.22 129.305   1
  -4  -3  11 17.7426 18.0958   1
   4   3 -11 29.5869 37.7802   4
  -4  -3  10 80.1953 30.5128   1
   4   3 -10 55.3952 34.8675   4
  -4  -3   9 323.342 54.7909   1
   4   3  -9 376.517 71.6501   4
   4   3  -8 3664.47 222.468   4
  -4  -3   8 4225.44 207.416   1
   4   3  -7-6.52795 17.6664   4
  -4  -3   7 50.0081 29.4559   1
  -4  -3   6 201.127 44.4626   1
   4   3  -6 154.074 40.5694   4
  -4  -3   5 928.761 88.6691   4
  -4  -3   5 902.571 87.8768   1
  -4  -3   4 2541.59 149.638   4
  -4  -3   4 2528.03 155.870   1
  -4  -3   3 8865.01 325.062   4
  -4  -3   3 8544.42 336.799   1
  -4  -3   2 10183.1 356.722   4
  -4  -3   2 10164.1 374.944   1
  -4  -3   1 274.843 54.4381   1
  -4  -3   0 1665.71 124.576   1
  -4  -3  -1 1300.68 108.155   1
   4   3   2 1221.09 50.0373   5
  -4  -3  -2 2121.63 134.679   1
  -4  -3  -3 928.224 90.7805   1
  -4  -3  -4 8030.62 348.240   3
  -4  -3  -4 8639.52 330.423   1
  -4  -3  -5 1207.84 118.741   3
  -4  -3  -5 1163.38 100.143   1
  -4  -3  -6 2.57682 26.1656   3
  -4  -3  -6 4.07638 15.6241   1
  -4  -3  -7 137.464 46.7229   3
  -4  -3  -7 95.5931 27.0278   1
  -4  -3  -8 1220.21 135.621   3
  -4  -3  -8 1062.97 92.7633   1
  -4  -3  -8 1033.38 122.589   4
  -4  -3  -9 235.591 68.2802   3
  -4  -3  -9 117.428 50.9094   4
  -4  -3 -10 2021.87 194.594   4
  -4  -3 -10 2526.55 217.636   3
  -4  -3 -11 485.699 101.175   4
   4   4 -14 22.6326 37.5029   4
   4   4 -13 366.493 85.2081   4
   4   4 -12 2678.61 218.792   4
  -4  -4  12 2887.22 170.609   1
  -4  -4  11 469.138 66.6667   1
   4   4 -11 474.494 87.8150   4
  -4  -4  10 38.6735 32.6649   1
   4   4 -10 50.1688 39.1257   4
   4   4  -9 904.079 109.048   4
  -4  -4   9 945.424 95.1693   1
   4   4  -8 2620.51 181.822   4
  -4  -4   8 2931.56 173.739   1
   4   4  -7 2531.74 168.408   4
  -4  -4   7 2618.21 162.942   1
  -4  -4   6 81.4994 34.9133   1
   4   4  -6 44.8778 24.5519   4
  -4  -4   5 4994.87 229.256   4
  -4  -4   5 4969.35 239.992   1
  -4  -4   4 1366.31 103.068   4
  -4  -4   4 1303.64 112.855   1
  -4  -4   3 15.2971 15.0053   4
  -4  -4   3 47.4218 25.5880   1
  -4  -4   2 1102.95 87.5963   4
  -4  -4   2 1110.64 102.785   1
  -4  -4   1 3259.87 186.256   1
  -4  -4   0 15177.1 512.223   1
  -4  -4  -1 415.787 62.7014   1
   4   4   2 1951.35 79.4340   5
  -4  -4  -2 1611.48 126.182   1
  -4  -4  -3 945.987 93.7590   1
  -4  -4  -4 872.918 89.3657   1
  -4  -4  -5 2301.21 173.104   3
  -4  -4  -5 2422.18 155.737   1
  -4  -4  -6 6266.70 316.455   3
  -4  -4  -6 6042.19 270.857   1
  -4  -4  -7 4987.40 292.237   3
  -4  -4  -7 5466.93 251.024   1
  -4  -4  -7 5470.66 288.901   4
  -4  -4  -8 1615.22 161.334   3
  -4  -4  -8 1841.54 132.860   1
  -4  -4  -8 1968.52 169.884   4
  -4  -4  -9 307.353 81.1968   3
  -4  -4  -9 262.607 67.1975   4
  -4  -4 -10 8.27080 33.6040   3
  -4  -4 -10-8.54172 29.0848   4
  -4  -4 -11 1817.82 187.180   4
   4   5 -14 86.8925 52.5489   4
   4   5 -13 33.1346 41.5960   4
   4   5 -12 469.955 92.1097   4
  -4  -5  12 434.895 66.5792   1
   4   5 -11 309.650 74.8564   4
  -4  -5  11 412.899 72.3127   1
  -4  -5  10 161.634 46.5001   1
   4   5 -10 188.508 53.4747   4
  -4  -5   9 187.188 52.0913   1
   4   5  -9 138.927 45.9050   4
   4   5  -8 1243.61 119.638   4
  -4  -5   8 1392.35 121.503   1
  -4  -5   7 542.413 76.4342   1
   4   5  -7 682.809 82.4268   4
  -4  -5   6 131.727 46.5688   1
  -4  -5   5 27.7210 31.8807   1
  -4  -5   5-16.8987 20.1979   4
  -4  -5   4 1370.18 101.601   4
  -4  -5   4 1422.74 120.698   1
  -4  -5   3 1500.94 102.501   4
  -4  -5   3 1481.07 123.920   1
  -4  -5   2 4355.88 192.908   4
  -4  -5   2 4463.17 230.788   1
  -4  -5   1 223.262 52.1107   1
  -4  -5   1 219.683 36.4174   4
  -4  -5   0 1268.29 115.126   1
  -4  -5  -1 93.4344 41.4319   1
  -4  -5  -2 530.380 74.8499   1
   4   5   2 435.839 40.5201   5
  -4  -5  -3 2379.90 162.118   1
  -4  -5  -4 367.233 61.0270   1
  -4  -5  -5 426.368 67.9076   1
  -4  -5  -6 39.8544 38.9815   3
  -4  -5  -6 27.7205 37.6435   4
  -4  -5  -6 2.63846 22.5846   1
  -4  -5  -7 146.773 49.7361   3
  -4  -5  -7 183.030 46.6332   1
  -4  -5  -7 147.855 45.0191   4
  -4  -5  -8 175.648 51.8822   3
  -4  -5  -8 213.675 63.5013   4
  -4  -5  -9 1193.46 143.548   3
  -4  -5  -9 1232.57 140.902   4
  -4  -5 -10 1053.88 140.895   3
  -4  -5 -10 729.285 115.099   4
  -4  -5 -11-27.7170 34.6611   4
   4   6 -14 80.6191 48.3523   4
   4   6 -13 104.616 52.3668   4
  -4  -6  12 2003.15 156.401   1
   4   6 -12 1961.47 184.391   4
   4   6 -11 1409.32 147.661   4
  -4  -6  11 1314.72 124.623   1
   4   6 -10 563.288 90.3463   4
  -4  -6  10 521.995 78.9954   1
   4   6  -9 3.87220 20.9785   4
  -4  -6   9 22.3053 29.7188   1
   4   6  -8 717.317 89.5511   4
  -4  -6   8 838.571 101.274   1
   4   6  -7 1367.44 118.354   4
  -4  -6   7 1481.79 131.567   1
  -4  -6   6 2762.58 184.527   1
  -4  -6   5 7826.14 305.219   4
  -4  -6   5 8752.51 363.498   1
  -4  -6   4 389.723 68.2551   1
  -4  -6   4 510.560 58.0115   4
  -4  -6   3 3724.60 168.904   4
  -4  -6   3 3650.90 217.646   1
  -4  -6   2 336.022 64.8746   1
  -4  -6   2 289.059 39.7650   4
  -4  -6   1 9804.88 328.749   4
  -4  -6   1 10132.6 405.741   1
  -4  -6   0 2002.03 112.486   4
  -4  -6   0 1795.63 147.100   1
  -4  -6  -1 406.308 69.2682   1
  -4  -6  -2 467.187 75.9600   1
  -4  -6  -3 261.231 60.4127   1
  -4  -6  -4 4530.41 247.126   1
  -4  -6  -5 264.508 60.7960   1
  -4  -6  -5 310.723 56.1059   4
  -4  -6  -6 2238.21 167.433   1
  -4  -6  -6 2643.84 177.582   4
  -4  -6  -7 1110.41 131.652   3
  -4  -6  -7 953.113 106.266   1
  -4  -6  -7 980.952 110.170   4
  -4  -6  -8 966.137 131.391   3
  -4  -6  -8 934.641 113.134   4
  -4  -6  -9-3.06995 39.0807   3
   4   7 -14 609.960 108.498   4
   4   7 -13 413.409 88.3561   4
  -4  -7  12 766.952 100.540   1
   4   7 -12 820.933 116.190   4
  -4  -7  11 1114.71 121.554   1
   4   7 -11 1073.04 128.292   4
   4   7 -10 1234.50 129.235   4
  -4  -7  10 1204.10 127.928   1
   4   7  -9 951.682 106.897   4
  -4  -7   9 791.407 102.378   1
   4   7  -8 1845.36 143.278   4
  -4  -7   8 1720.54 154.300   1
  -4  -7   7 1977.93 163.603   1
  -4  -7   6 753.999 104.217   1
  -4  -7   5 273.940 65.0299   1
  -4  -7   4 6448.04 318.859   1
  -4  -7   3 853.228 105.790   1
  -4  -7   2 8614.73 381.079   1
  -4  -7   1 1059.35 117.869   1
  -4  -7   0 1832.59 155.105   1
  -4  -7  -1 447.037 77.2815   1
  -4  -7  -2 6395.31 319.634   1
  -4  -7  -3 109.628 46.0576   1
  -4  -7  -4 242.169 56.0899   1
  -4  -7  -5 140.557 50.3249   1
  -4  -7  -6 131.292 40.1871   1
  -4  -7  -7 780.368 102.956   1
  -4  -8  11 52.3910 38.8940   1
  -4  -8  10 134.477 43.7962   1
  -4  -8   9-17.0721 20.8015   1
  -4  -8   8 4952.05 287.402   1
  -4  -8   7 510.296 87.4007   1
  -4  -8   6 1802.97 163.831   1
  -4  -8   5 1325.35 140.240   1
  -4  -8   4 1254.45 137.217   1
  -4  -8   3 436.953 78.2320   1
  -4  -8   2 5.60445 21.2973   1
  -4  -8   1 1414.88 143.714   1
  -4  -8   0 331.423 70.8418   1
  -4  -8  -1 145.179 50.1853   1
  -4  -8  -2 4543.09 271.825   1
  -4  -8  -3 28.2912 25.6004   1
  -4  -8  -4 317.333 73.3272   1
  -4  -8  -5 62.0167 39.5112   1
  -4  -8  -6 51.3952 34.4423   1
  -4  -9  11 71.4539 45.4104   1
  -4  -9  10 177.530 53.5551   1
  -4  -9   9 22.1863 35.8160   1
  -4  -9   8 221.528 65.8153   1
  -4  -9   7 89.3920 54.9445   1
  -4  -9   6 27.1380 29.4358   1
  -4  -9   5 1671.23 164.634   1
  -4  -9   4 1055.51 129.451   1
  -4  -9   3 1190.30 136.671   1
  -4  -9   2-15.2575 23.5749   1
  -4  -9   1 92.7883 53.9344   1
  -4  -9   0 2170.51 190.399   1
  -4  -9  -1 104.738 52.6499   1
  -4  -9  -2 2618.08 212.609   1
  -4  -9  -3 45.9410 44.4568   1
  -4  -9  -4 93.5124 73.7832   1
  -4  -9  -5 1.43152 27.3743   1
  -4  -9  -6 497.891 95.4755   1
  -4 -10  11 83.0755 39.2840   1
  -4 -10  10 37.4447 41.5846   1
  -4 -10   9 239.165 61.5069   1
  -4 -10   8 552.741 103.304   1
  -4 -10   7 39.1935 41.3981   1
  -4 -10   6 1002.11 133.744   1
  -4 -10   5 0.43827 33.5923   1
  -4 -10   4 73.1122 49.7826   1
  -4 -10   3 338.787 79.8932   1
  -4 -10   2 1006.97 137.324   1
  -4 -10   1 655.068 107.389   1
  -4 -10   0 428.123 92.9175   1
  -4 -10  -1-21.6978 37.2775   1
  -4 -10  -2 96.2366 56.8750   1
  -4 -10  -3 3469.50 261.445   1
  -4 -10  -4 795.112 121.752   1
  -5  10   4 487.684 105.831   2
  -5  10   3 3134.22 256.862   2
  -5  10   2 1505.79 174.514   2
  -5  10   1 1309.71 162.925   2
  -5  10   0 484.636 96.1594   2
  -5  10  -1 86.3495 56.9981   2
  -5  10  -2 68.6524 43.4435   2
  -5  10  -3 1379.86 166.072   2
  -5   9   9 441.818 88.1731   2
  -5   9   8 2.99599 38.5117   2
  -5   9   7 50.4009 40.7232   2
   5  -9  -6 11.8574 33.9007   5
  -5   9   6 14.0642 45.5159   2
   5  -9  -5 712.143 122.071   5
  -5   9   5 785.674 126.916   2
  -5   9   4 53.7263 37.1228   2
  -5   9   3 262.548 81.5269   2
  -5   9   2 357.014 83.4713   2
  -5   9   1 46.1718 31.8513   2
  -5   9   0 2071.07 196.130   2
  -5   9  -1 233.650 74.3577   2
  -5   9  -2 510.769 100.662   2
  -5   9  -3 51.4242 51.5931   2
  -5   9  -4 147.391 54.6777   2
  -5   9  -5 279.216 79.7043   2
  -5   9  -6 3353.99 260.447   2
  -5   9  -7 3020.56 246.278   2
  -5   9  -8 49.8718 31.6428   2
  -5   8   9 288.975 73.3770   2
   5  -8  -8 763.604 130.806   5
  -5   8   8 700.266 111.174   2
   5  -8  -7 148.492 58.1057   5
  -5   8   7 34.6137 31.1860   2
   5  -8  -6 31.8138 45.9468   5
  -5   8   6 64.1354 44.9925   2
   5  -8  -5 656.534 109.778   5
  -5   8   5 468.453 91.4596   2
   5  -8  -4 150.442 66.4623   5
  -5   8   4 139.210 59.6021   2
   5  -8  -3 2019.96 187.675   5
  -5   8   3 2009.27 187.607   2
  -5   8   2 184.434 57.7211   2
  -5   8   1 1287.57 148.891   2
  -5   8   0 21.8590 45.3862   2
  -5   8  -1 508.091 94.4627   2
  -5   8  -2 560.718 99.3076   2
  -5   8  -3 588.876 101.823   2
  -5   8  -4 988.694 131.502   2
  -5   8  -5 111.531 51.1909   2
  -5   8  -6 52.1752 41.1503   2
  -5   8  -7 1952.99 187.790   2
  -5   8  -8 896.139 125.251   2
  -5   7  10 377.118 81.9620   2
   5  -7  -9 124.523 60.3208   5
  -5   7   9 113.299 45.1655   2
   5  -7  -8 717.316 117.682   5
  -5   7   8 453.139 83.3795   2
   5  -7  -7 143.288 58.2370   5
  -5   7   7 165.936 62.5109   2
   5  -7  -6 332.846 84.0342   5
  -5   7   6 422.906 82.4649   2
   5  -7  -5 515.933 95.9419   5
  -5   7   5 544.759 92.3407   2
   5  -7  -4 144.229 49.6943   5
  -5   7   4 234.816 60.1509   2
   5  -7  -3 233.606 63.7977   5
  -5   7   3 230.948 67.8578   2
  -5   7   2 3415.74 237.798   2
   5  -7  -2 3272.34 233.212   5
  -5   7   1 3473.41 240.970   2
  -5   7   0 312.904 77.1729   2
  -5   7  -1 2553.38 204.580   2
  -5   7  -2 7184.07 368.410   2
  -5   7  -3 577.244 95.4220   2
  -5   7  -4 5875.40 327.447   2
  -5   7  -5 1036.56 98.3380   3
  -5   7  -5 993.570 125.839   2
  -5   7  -6 3677.26 210.793   3
  -5   7  -6 3427.63 243.662   2
  -5   7  -7 507.019 80.5969   3
  -5   7  -7 330.710 70.5754   2
  -5   7  -8-2.73388 33.7272   2
  -5   6  10 1386.04 142.100   2
   5  -6  -9 667.111 114.283   5
  -5   6   9 661.026 99.1643   2
  -5   6   8 6501.54 337.242   2
   5  -6  -8 7222.68 383.697   5
  -5   6   7 2562.10 194.462   2
   5  -6  -7 2574.12 211.462   5
  -5   6   6 1896.99 166.257   2
   5  -6  -6 1792.75 170.697   5
  -5   6   5 929.201 115.807   2
   5  -6  -5 1146.84 131.893   5
  -5   6   4 1117.17 124.970   2
   5  -6  -4 1173.62 133.580   5
   5  -6  -3 178.259 52.9760   5
  -5   6   3 143.554 52.1299   2
  -5   6   2 1192.44 128.856   2
   5  -6  -2 1162.43 126.989   5
  -5   6   1 2299.50 181.669   2
   5  -6  -1 1988.81 167.371   5
  -5   6   0 457.732 81.4134   2
  -5   6  -1 6733.54 341.830   2
  -5   6  -2 2225.91 182.256   2
  -5   6  -3 1289.74 135.831   2
  -5   6  -4 114.395 39.5091   3
  -5   6  -4 209.465 61.8283   2
  -5   6  -5 34.3503 25.2498   3
  -5   6  -5 53.6535 36.3394   2
  -5   6  -6 243.523 56.0535   3
  -5   6  -6 249.565 62.4498   2
  -5   6  -7 4620.65 256.041   3
  -5   6  -7 4214.53 262.887   2
  -5   6  -8 1269.12 135.759   2
  -5   6  -8 1337.78 136.918   3
  -5   6  -9 1154.43 135.504   3
  -5   6 -10 712.128 110.003   3
   5  -5 -12 2507.64 229.002   4
  -5   5  10 581.975 89.5945   2
  -5   5   9 833.639 106.126   2
  -5   5   8 718.159 97.9895   2
  -5   5   7 3089.95 207.092   2
   5  -5  -6 384.335 76.6880   5
  -5   5   6 353.542 73.7917   2
  -5   5   5 934.053 110.082   2
   5  -5  -5 1147.51 127.636   5
   5  -5  -4-32.2973 28.7930   5
  -5   5   4 30.6006 33.1683   2
   5  -5  -3 233.186 35.5380   3
   5  -5  -3 165.537 53.4068   5
  -5   5   3 184.990 56.8092   2
   5  -5  -2 396.060 46.6722   3
   5  -5  -2 346.965 72.6834   5
  -5   5   2 504.280 83.4120   2
  -5   5   1 2407.91 179.568   2
   5  -5  -1 2163.15 161.732   5
   5  -5  -1 2172.29 118.825   3
  -5   5   0 4823.89 267.675   2
   5  -5   0 4710.37 252.099   5
  -5   5  -1 4609.90 261.540   2
  -5   5  -2 2484.71 185.911   2
  -5   5  -3 3550.15 223.795   2
  -5   5  -4 734.761 82.8316   3
  -5   5  -4 764.303 101.341   2
  -5   5  -5 341.627 60.8735   3
  -5   5  -5 504.450 81.6018   2
  -5   5  -6 4256.81 238.257   3
  -5   5  -6 4222.03 249.394   2
  -5   5  -7 872.125 108.184   2
  -5   5  -7 890.362 108.332   3
  -5   5  -8 119.430 42.3632   3
  -5   5  -8 237.981 59.0997   2
  -5   5  -9 1619.03 161.180   3
  -5   5 -10 1603.23 166.291   3
   5  -4 -12 705.624 122.095   4
  -5   4  11 6003.80 299.264   2
   5  -4 -11 6435.63 368.261   4
   5  -4 -10 654.200 106.747   4
  -5   4  10 676.998 92.1005   2
  -5   4   9 1940.15 156.620   2
  -5   4   8 54.4258 38.2325   2
  -5   4   7 1013.34 110.233   2
  -5   4   6 1113.92 116.809   2
  -5   4   5 5102.07 268.868   2
  -5   4   4 2381.04 172.442   2
   5  -4  -4 2369.58 172.306   5
  -5   4   3 3691.17 220.360   2
   5  -4  -3 3429.82 210.227   5
   5  -4  -2 187.356 34.7232   3
   5  -4  -2 66.4315 35.5892   5
  -5   4   2 151.198 44.4009   2
   5  -4  -1 20.1664 14.1493   3
   5  -4  -1 24.3864 29.2643   5
  -5   4   1 56.8780 34.0809   2
   5  -4   0 99.4943 39.7897   5
  -5   4   0 128.475 46.4478   2
   5  -4   0 66.0756 23.3691   3
  -5   4  -1-6.99833 23.7155   2
  -5   4  -2 1791.60 150.744   2
  -5   4  -3 0.90997 24.1058   2
  -5   4  -4 146.253 42.3011   3
  -5   4  -4 212.396 55.6397   2
  -5   4  -5 1074.89 111.984   3
  -5   4  -5 1270.46 124.852   2
  -5   4  -6 1099.14 114.456   3
  -5   4  -6 975.744 109.824   2
  -5   4  -7 1286.56 125.495   2
  -5   4  -7 1093.90 121.117   3
  -5   4  -8 547.327 95.2928   3
  -5   4  -8 723.207 95.5860   2
  -5   4  -9 478.541 91.6345   3
  -5   4 -10-14.8884 27.8960   3
   5  -3 -13 2782.29 246.998   4
   5  -3 -12 780.467 127.496   4
  -5   3  11 45.0745 21.9833   2
   5  -3 -11 30.1760 39.5890   4
  -5   3  10 640.381 84.4322   2
   5  -3 -10 560.909 98.9492   4
  -5   3   9 76.8365 42.3414   2
  -5   3   8 5229.86 266.406   2
  -5   3   7 52.0477 44.0581   2
  -5   3   6 1870.14 149.036   2
  -5   3   5 646.465 86.5957   2
  -5   3   4 392.417 69.7155   2
  -5   3   3 397.951 67.6466   2
   5  -3  -2 6432.40 253.511   3
  -5   3   2 6271.06 294.253   2
   5  -3  -2 6064.13 277.748   5
   5  -3  -1 7904.18 291.942   3
  -5   3   1 8295.78 343.851   2
   5  -3  -1 6876.47 302.108   5
   5  -3   0 87.4896 28.5417   3
   5  -3   0 74.3953 31.4525   5
  -5   3   0 66.0196 38.2952   2
   5  -3   1 63.1625 24.7966   5
  -5   3  -1 210.603 48.9134   2
  -5   3  -2 136.449 43.5038   2
  -5   3  -3 77.2475 32.2874   3
  -5   3  -3 60.8523 37.2128   2
  -5   3  -4 26.9860 24.6845   3
  -5   3  -4-11.4765 21.6351   2
  -5   3  -5 3395.63 207.400   3
  -5   3  -5 3527.33 211.394   2
  -5   3  -6 491.938 78.0443   3
  -5   3  -6 586.902 85.8357   2
  -5   3  -7 109.646 48.3256   3
  -5   3  -7 73.6068 33.4732   2
  -5   3  -8-13.8177 25.7653   3
  -5   3  -8-24.0047 18.6255   2
  -5   3  -9 400.310 85.9548   3
  -5   3 -10 1376.82 156.098   3
   5  -2 -13 171.736 64.0225   4
   5  -2 -12 134.915 69.9587   4
  -5   2  11 92.9021 35.5620   2
   5  -2 -11 163.478 63.0935   4
  -5   2  10 628.182 82.5363   2
   5  -2 -10 599.349 104.743   4
  -5   2   9 914.744 99.2838   2
   5  -2  -9 977.223 125.386   4
  -5   2   8 192.100 50.3739   2
  -5   2   7 283.445 60.3579   2
  -5   2   6 38.0453 29.6851   2
  -5   2   5 2379.27 166.459   2
  -5   2   4 1474.89 127.504   2
  -5   2   3 476.195 76.0485   2
   5  -2  -2-35.9246 24.0633   3
  -5   2   2 1.72100 23.5364   2
   5  -2  -1 6.67049 16.6056   3
   5  -2  -1-26.3505 26.6748   5
  -5   2   1 12.3101 23.2017   2
  -5   2   0 2078.17 151.794   2
   5  -2   0 1796.41 120.355   5
   5  -2   1 78.9761 31.4346   5
  -5   2  -1 53.2420 31.1773   2
  -5   2  -2 6045.82 285.716   2
  -5   2  -3 1365.61 116.773   3
  -5   2  -3 1458.81 125.830   2
  -5   2  -4 25.1758 25.8620   3
  -5   2  -4 57.9341 30.0476   2
  -5   2  -5 625.491 85.0778   3
  -5   2  -5 698.632 88.3892   2
  -5   2  -6 563.266 87.1204   3
  -5   2  -6 619.028 80.9179   2
  -5   2  -7-0.82489 27.7912   3
  -5   2  -7 99.0694 38.1976   2
  -5   2  -8 2356.11 164.622   2
  -5   2  -8 2256.97 190.691   3
  -5   2  -9 176.935 55.5925   3
  -5   2 -10 1008.72 137.990   3
   5  -1 -13 1076.05 151.236   4
   5  -1 -12 71.6912 50.8827   4
  -5   1  11 1239.40 111.265   1
   5  -1 -11 1220.76 147.819   4
  -5   1  10 40.8910 30.8418   2
   5  -1 -10 123.619 57.5605   4
  -5   1   9 1395.75 123.723   2
   5  -1  -9 1769.72 162.455   4
  -5   1   8 7155.34 313.031   2
   5  -1  -8 7018.47 349.868   4
  -5   1   7 3280.02 195.023   2
  -5   1   6 3887.78 216.026   2
  -5   1   5-10.5093 24.3861   2
  -5   1   4 10109.4 396.395   2
  -5   1   3 183.210 45.8665   2
  -5   1   2 6485.68 295.754   2
  -5   1   1 837.369 93.9830   2
   5  -1   0 598.862 62.2332   5
  -5   1   0 613.735 80.5175   2
  -5   1  -1 1095.25 107.394   2
   5  -1   1 1008.14 76.3577   5
  -5   1  -2 18.3235 25.2774   2
  -5   1  -3 452.869 69.7093   2
  -5   1  -4 2184.62 159.155   3
  -5   1  -4 2343.80 161.112   2
  -5   1  -5 3609.32 219.911   3
  -5   1  -5 3943.04 215.003   2
  -5   1  -6 1609.95 147.478   3
  -5   1  -6 1670.61 134.090   2
  -5   1  -7 3168.38 222.010   3
  -5   1  -7 3384.32 198.417   2
  -5   1  -8 7392.88 307.094   1
  -5   1  -8 6607.42 354.259   3
  -5   1  -9 1724.64 174.359   3
  -5   1 -10 476.232 97.4809   3
   5   0 -13 328.513 90.1430   4
   5   0 -12 446.361 98.9928   4
  -5   0  11 143.828 41.6880   1
   5   0 -11 126.399 47.9525   4
  -5   0  10 7892.20 328.305   1
   5   0 -10 7448.74 383.420   4
  -5   0   9 19.1754 28.9099   1
   5   0  -9 63.4420 46.3992   4
  -5   0   8 1770.06 138.183   2
   5   0  -8 1755.13 157.430   4
  -5   0   7 15.8481 20.5617   2
  -5   0   6 1698.13 134.566   2
  -5   0   5 6524.02 292.964   2
  -5   0   4 1026.44 104.620   2
  -5   0   3 5472.43 263.453   2
  -5   0   2 6092.39 280.829   2
  -5   0   1 243.823 54.1241   2
  -5   0   0 5281.61 257.112   2
   5   0   1 257.736 34.4113   5
  -5   0  -1 333.761 60.0336   2
  -5   0  -2 28.4482 23.7692   2
  -5   0  -3-7.82636 25.3569   2
  -5   0  -4 438.079 71.4998   3
  -5   0  -4 455.049 70.0941   2
  -5   0  -5 7.20599 32.0814   3
  -5   0  -5 52.5336 31.1889   1
  -5   0  -6 5446.61 298.310   3
  -5   0  -6 5975.77 271.134   1
  -5   0  -7 1093.58 128.320   3
  -5   0  -7 1146.89 106.307   1
  -5   0  -8 78.2306 43.8446   3
  -5   0  -8 272.507 52.6949   1
  -5   0  -9 238.027 69.9144   3
  -5   0 -10 1745.39 184.595   3
   5   1 -13 5270.31 346.719   4
   5   1 -12 537.331 102.340   4
  -5  -1  12 625.279 78.1480   1
   5   1 -11 1972.13 187.394   4
  -5  -1  11 2100.26 146.309   1
   5   1 -10 163.696 62.2209   4
  -5  -1  10 173.069 44.7619   1
  -5  -1   9 68.5453 32.0277   1
   5   1  -9 72.3611 42.9032   4
   5   1  -8 499.953 81.3673   4
  -5  -1   8 606.022 80.6451   1
  -5  -1   7 2434.76 162.579   1
  -5  -1   6 401.750 67.4199   1
  -5  -1   5 86.4390 39.4832   1
  -5  -1   4 7051.19 309.321   2
  -5  -1   4 6825.48 301.881   1
  -5  -1   3 1946.57 148.749   2
  -5  -1   3 2340.24 155.399   1
  -5  -1   2 249.486 56.5674   2
  -5  -1   2 204.410 48.6568   1
  -5  -1   1 239.116 52.8101   2
  -5  -1   1 180.149 48.4157   1
  -5  -1   0 18.9653 25.3060   2
  -5  -1   0 11.8675 29.1901   1
  -5  -1  -1 51.3051 28.9767   1
  -5  -1  -2 397.640 63.3416   1
  -5  -1  -3 996.366 99.9683   1
  -5  -1  -4 902.863 94.4051   1
  -5  -1  -4 859.509 99.4561   3
  -5  -1  -5 46.7049 32.3867   3
  -5  -1  -5 0.81534 21.8255   1
  -5  -1  -6 271.419 62.3265   3
  -5  -1  -6 241.688 48.8319   1
  -5  -1  -7-29.8919 25.8225   3
  -5  -1  -7 31.3454 23.7616   1
  -5  -1  -8 854.414 121.527   3
  -5  -1  -8 1039.80 98.3259   1
  -5  -1  -9 960.248 133.677   3
  -5  -1 -10 77.7081 43.3374   3
   5   2 -14 2612.23 242.042   4
   5   2 -13 2253.41 215.372   4
  -5  -2  12 111.018 40.9031   1
   5   2 -12 77.6775 47.1510   4
   5   2 -11 817.551 120.466   4
  -5  -2  11 873.002 92.8601   1
   5   2 -10 2957.45 221.061   4
  -5  -2  10 3247.76 191.537   1
  -5  -2   9 416.642 70.6850   1
   5   2  -9 424.041 81.7736   4
   5   2  -8 338.692 74.7166   4
  -5  -2   8 335.293 60.7743   1
  -5  -2   7 29.6772 34.8948   1
  -5  -2   6 2205.82 156.152   1
  -5  -2   5 523.682 76.3193   1
  -5  -2   4 1380.30 121.473   1
  -5  -2   3 12.3470 22.5282   1
  -5  -2   2 387.537 65.6397   1
  -5  -2   1 5788.02 274.566   1
  -5  -2   0 369.991 63.7110   1
  -5  -2  -1 396.912 64.4951   1
  -5  -2  -2 3059.53 186.722   1
  -5  -2  -3 2086.10 150.210   1
  -5  -2  -4 4268.49 225.391   1
  -5  -2  -5 3930.45 245.523   3
  -5  -2  -5 4533.95 231.189   1
  -5  -2  -6 3240.79 226.069   3
  -5  -2  -6 3474.05 197.866   1
  -5  -2  -7-0.46027 27.1580   3
  -5  -2  -7 20.9681 21.3558   1
  -5  -2  -8 255.619 70.1035   3
  -5  -2  -8 257.219 50.1734   1
  -5  -2  -9 727.296 117.182   3
  -5  -2 -10 1813.73 190.545   4
   5   3 -14 405.840 94.9726   4
   5   3 -13 53.3899 52.2164   4
  -5  -3  12 16.0869 24.8503   1
   5   3 -12 19.0135 26.3286   4
  -5  -3  11 32.9959 27.4713   1
   5   3 -11 29.8426 37.2993   4
   5   3 -10 271.556 67.7067   4
  -5  -3  10 299.157 62.1387   1
   5   3  -9 861.026 111.210   4
  -5  -3   9 847.620 98.5144   1
   5   3  -8 2405.26 181.973   4
  -5  -3   8 2411.48 167.222   1
  -5  -3   7 903.471 100.838   1
  -5  -3   6 55.3763 29.5799   1
  -5  -3   5 202.128 49.7353   1
  -5  -3   4 6.66316 30.0353   1
  -5  -3   3 2798.82 181.099   1
  -5  -3   2 47.3507 28.1926   1
  -5  -3   1 649.990 83.9127   1
  -5  -3   0 110.481 40.7391   1
  -5  -3  -1 1645.48 135.464   1
  -5  -3  -2 801.499 90.7171   1
  -5  -3  -3 96.5244 36.4103   1
  -5  -3  -4-37.3871 28.8598   1
  -5  -3  -5 234.736 51.9010   1
  -5  -3  -6 364.936 77.3513   3
  -5  -3  -6 258.106 53.3621   1
  -5  -3  -7 2403.84 200.052   3
  -5  -3  -7 2518.00 165.663   1
  -5  -3  -8 640.348 110.888   3
  -5  -3  -9 1582.71 173.378   3
  -5  -3  -9 1648.78 172.642   4
  -5  -3 -10 37.5543 30.7739   4
   5   4 -14 348.546 84.7719   4
   5   4 -13 91.9493 54.0004   4
  -5  -4  12 115.582 40.4157   1
   5   4 -12-55.9691 33.2289   4
  -5  -4  11 369.525 66.6367   1
   5   4 -11 354.088 80.0675   4
  -5  -4  10 51.1984 23.5450   1
   5   4 -10 13.5101 27.3839   4
  -5  -4   9 489.117 76.5883   1
   5   4  -9 463.437 82.3495   4
   5   4  -8 1.50181 26.5933   4
  -5  -4   8 25.9214 29.0992   1
  -5  -4   7 497.727 78.0442   1
  -5  -4   6 1006.98 110.218   1
  -5  -4   5 813.681 95.9212   1
  -5  -4   4-16.6466 21.7963   1
  -5  -4   3 595.456 83.7233   1
  -5  -4   2 2006.01 153.922   1
  -5  -4   1 838.377 97.4999   1
  -5  -4   0 362.110 66.3386   1
  -5  -4  -1 713.279 90.4033   1
  -5  -4  -2 553.970 79.8709   1
  -5  -4  -3 2402.90 168.582   1
  -5  -4  -4 28.9278 20.0628   1
  -5  -4  -5 688.915 87.1040   1
  -5  -4  -6 1453.79 126.621   1
  -5  -4  -7 1220.75 146.977   3
  -5  -4  -7 1383.18 123.270   1
  -5  -4  -8 860.773 126.596   3
  -5  -4  -8 796.962 115.348   4
  -5  -4  -9 47.3240 38.6752   3
  -5  -4  -9 8.94623 32.8953   4
  -5  -4 -10 319.348 79.8528   4
   5   5 -13 539.245 101.642   4
  -5  -5  12-7.79662 23.1250   1
   5   5 -12 39.6445 27.1692   4
  -5  -5  11 312.798 64.3756   1
   5   5 -11 253.982 68.1508   4
  -5  -5  10 430.918 74.1917   1
   5   5 -10 379.956 81.2554   4
  -5  -5   9 82.0596 34.6401   1
   5   5  -9 130.088 48.1171   4
  -5  -5   8 543.101 82.5945   1
  -5  -5   7 32.7361 29.1978   1
  -5  -5   6 347.478 69.4503   1
  -5  -5   5 1982.38 156.193   1
  -5  -5   4 76.2517 42.5271   1
  -5  -5   3 21263.5 705.023   1
  -5  -5   2 61.0562 38.6022   1
  -5  -5   2 20.3901 19.4940   4
  -5  -5   1 1490.10 113.633   4
  -5  -5   1 1442.20 131.717   1
  -5  -5   0 21.0936 24.4118   1
  -5  -5  -1 4070.00 234.102   1
  -5  -5  -2 4349.32 244.724   1
  -5  -5  -3 2052.21 159.645   1
  -5  -5  -4 879.616 101.380   1
  -5  -5  -5 627.468 88.9361   1
  -5  -5  -6 2603.59 183.096   1
  -5  -5  -7 21.9841 23.6505   4
  -5  -5  -7 13.3591 18.8802   1
  -5  -5  -8 415.524 95.0425   3
  -5  -5  -8 369.616 78.2774   4
  -5  -5  -9-20.4478 27.5418   4
   5   6 -13 3307.95 259.733   4
   5   6 -12 230.286 70.7652   4
  -5  -6  12 323.207 72.6341   1
   5   6 -11 184.874 63.8642   4
  -5  -6  11 184.751 55.9558   1
  -5  -6  10 35.6525 29.7752   1
   5   6 -10 16.9504 24.6161   4
  -5  -6   9 337.647 66.2585   1
   5   6  -9 346.578 67.8516   4
  -5  -6   8-12.1574 26.1493   1
  -5  -6   7 168.510 56.9690   1
  -5  -6   6 34.9144 22.1124   1
  -5  -6   5-40.4591 28.6544   1
  -5  -6   4 155.529 48.8364   1
  -5  -6   3 90.5443 42.9221   1
  -5  -6   3 6.55590 13.1751   4
  -5  -6   2 708.835 95.9245   1
  -5  -6   1 166.080 52.5282   1
  -5  -6   0 1226.54 126.444   1
  -5  -6  -1 472.076 81.9411   1
  -5  -6  -2 80.4391 41.7365   1
  -5  -6  -3 991.430 114.590   1
  -5  -6  -4 492.306 82.1814   1
  -5  -6  -5 1192.01 127.214   1
  -5  -6  -6 344.416 64.8780   1
  -5  -6  -7 140.838 45.3676   1
   5   7 -13 40.8930 30.7223   4
   5   7 -12 31.9084 28.5508   4
  -5  -7  12 61.4401 45.2190   1
   5   7 -11 380.307 79.5656   4
  -5  -7  11 427.967 83.6163   1
   5   7 -10 182.748 57.5095   4
  -5  -7  10 142.110 51.0988   1
  -5  -7   9 210.778 61.6174   1
  -5  -7   8 680.554 101.274   1
  -5  -7   7 30.5904 29.4002   1
  -5  -7   6 75.9416 52.9021   1
  -5  -7   5 83.4070 47.9508   1
  -5  -7   4 1072.09 125.168   1
  -5  -7   3 1877.54 165.943   1
  -5  -7   2 526.446 88.6430   1
  -5  -7   1 622.411 95.4924   1
  -5  -7   0 460.168 81.8005   1
  -5  -7  -1 7437.62 364.577   1
  -5  -7  -2 2805.50 207.869   1
  -5  -7  -3 44.2556 41.5527   1
  -5  -7  -4-27.7683 29.0325   1
  -5  -7  -5 1048.06 125.505   1
  -5  -7  -6 100.677 41.5442   1
  -5  -8  12 95.2170 42.4187   1
  -5  -8  11 77.9568 37.6361   1
  -5  -8  10 79.0422 37.4753   1
  -5  -8   9 2703.68 212.922   1
  -5  -8   8 3125.32 233.355   1
  -5  -8   7 405.352 85.1354   1
  -5  -8   6 65.0889 34.4564   1
  -5  -8   5 1680.48 165.144   1
  -5  -8   4 811.114 114.694   1
  -5  -8   3 784.837 110.630   1
  -5  -8   2 591.100 97.0640   1
  -5  -8   1 1019.74 128.198   1
  -5  -8   0 386.556 84.3355   1
  -5  -8  -1 91.6734 48.2902   1
  -5  -8  -2 67.4655 50.3208   1
  -5  -8  -3 41.4181 28.1235   1
  -5  -8  -4 2340.77 197.908   1
  -5  -8  -5-11.5071 31.5692   1
  -5  -8  -6 467.392 89.3058   1
  -5  -9  11 744.887 114.603   1
  -5  -9  10 34.4459 36.6707   1
  -5  -9   9 738.186 116.658   1
  -5  -9   8 482.775 93.1252   1
  -5  -9   7 1008.34 133.655   1
  -5  -9   6 850.016 124.476   1
  -5  -9   5 397.079 84.1886   1
  -5  -9   4 1460.97 161.028   1
  -5  -9   3 47.2445 54.5615   1
  -5  -9   2 175.528 62.9890   1
  -5  -9   1 260.139 77.6831   1
  -5  -9   0 398.374 87.9507   1
  -5  -9  -1 40.6107 38.0740   1
  -5  -9  -2 754.326 117.544   1
  -5  -9  -3 349.842 84.6498   1
  -5  -9  -4 185.449 61.0477   1
  -5  -9  -5 262.595 66.3527   1
  -6   9   4 78.6241 53.3671   2
  -6   9   3-43.4256 42.5233   2
  -6   9   2 441.053 99.2945   2
  -6   9   1 130.798 59.5354   2
  -6   9   0 1335.67 167.010   2
  -6   9  -1 52.3883 36.2329   2
  -6   9  -2 52.0115 55.6829   2
  -6   8   9 610.590 108.079   2
  -6   8   8 2997.31 244.525   2
  -6   8   7-4.73093 45.2027   2
   6  -8  -6 193.715 66.3881   5
  -6   8   6 68.7243 49.0702   2
   6  -8  -5 579.254 110.318   5
  -6   8   5 661.320 112.421   2
   6  -8  -4 371.615 101.512   5
  -6   8   4 456.106 99.0082   2
  -6   8   3 1873.26 190.703   2
   6  -8  -3 1627.48 176.054   5
  -6   8   2 1367.52 163.559   2
  -6   8   1 888.815 138.998   2
  -6   8   0 283.737 78.7321   2
  -6   8  -1 108.330 51.3910   2
  -6   8  -2 143.623 59.9666   2
  -6   8  -3 169.863 68.3777   2
  -6   8  -4 694.770 115.520   2
  -6   8  -5 126.435 62.0038   2
  -6   8  -6 1063.54 144.691   2
  -6   8  -7-29.7480 44.8875   2
  -6   7  10 193.806 68.9267   2
  -6   7   9 901.535 125.240   2
   6  -7  -8 324.942 83.3740   5
  -6   7   8 312.613 74.2680   2
   6  -7  -7 189.827 73.8576   5
  -6   7   7 201.357 68.6200   2
   6  -7  -6 497.341 105.907   5
  -6   7   6 600.575 103.363   2
   6  -7  -5-8.45720 33.1603   5
  -6   7   5-26.7214 28.9088   2
   6  -7  -4 364.340 78.9330   5
  -6   7   4 378.530 80.9974   2
   6  -7  -3 355.853 81.5056   5
  -6   7   3 265.679 70.4644   2
   6  -7  -2-2.29337 34.6798   5
  -6   7   2 79.1146 50.7571   2
  -6   7   1 946.773 132.332   2
  -6   7   0 1631.59 169.961   2
  -6   7  -1 3797.65 266.969   2
  -6   7  -2 2205.03 201.365   2
  -6   7  -3 461.660 95.1136   2
  -6   7  -4-17.7476 32.2252   2
  -6   7  -5 1918.38 190.493   2
  -6   7  -6-43.8038 43.0830   2
  -6   7  -7 32.5775 43.7532   2
  -6   7  -8 135.109 68.1799   2
  -6   6  10 1887.95 178.313   2
  -6   6   9 1623.01 163.765   2
   6  -6  -9 2089.74 205.378   5
  -6   6   8 2732.78 215.884   2
   6  -6  -8 2959.13 244.203   5
   6  -6  -7 212.268 70.7560   5
  -6   6   7 117.056 56.1206   2
   6  -6  -6 614.651 101.731   5
  -6   6   6 552.339 92.8434   2
   6  -6  -5 13.6960 26.7090   5
  -6   6   5 27.5059 37.5395   2
  -6   6   4 1975.81 179.628   2
   6  -6  -4 1631.46 165.236   5
   6  -6  -3 62.5476 34.7588   5
  -6   6   3 184.479 66.5869   2
   6  -6  -2 74.8596 36.3782   5
  -6   6   2 48.0163 44.4928   2
   6  -6  -1 44.2230 25.4171   5
  -6   6   1 95.8136 51.2012   2
  -6   6   0 523.191 93.9748   2
  -6   6  -1 2569.53 208.290   2
  -6   6  -2 817.057 114.537   2
  -6   6  -3 963.017 123.720   2
  -6   6  -4 19.5378 38.4437   2
  -6   6  -5 97.2169 44.5644   2
  -6   6  -6 524.507 82.3454   3
  -6   6  -6 489.894 93.9423   2
  -6   6  -7 344.974 73.8607   3
  -6   6  -7 362.262 82.0483   2
  -6   6  -8 2068.98 180.046   3
  -6   6  -8 1880.09 180.223   2
  -6   6  -9-20.8791 32.1568   3
  -6   5  11 432.740 81.9203   2
  -6   5  10 568.628 95.8554   2
  -6   5   9 3098.34 224.348   2
  -6   5   8 124.406 60.9221   2
  -6   5   7 2732.90 206.615   2
   6  -5  -6 287.475 68.9876   5
  -6   5   6 294.700 74.3735   2
   6  -5  -5-16.5376 29.0092   5
  -6   5   5 102.982 50.6076   2
  -6   5   4 1414.25 144.725   2
   6  -5  -4 1309.26 138.865   5
   6  -5  -3 435.813 83.0467   5
  -6   5   3 418.931 79.2666   2
  -6   5   2 3865.67 252.129   2
   6  -5  -2 3937.66 236.298   5
  -6   5   1 1091.94 128.321   2
   6  -5  -1 926.986 109.679   5
  -6   5   0-1.76729 27.1131   2
  -6   5  -1 128.113 52.2186   2
  -6   5  -2 2061.40 180.644   2
  -6   5  -3-28.8941 35.9607   2
  -6   5  -4 3318.02 232.343   2
  -6   5  -5 170.104 49.7383   3
  -6   5  -5 171.734 56.2597   2
  -6   5  -6 266.846 66.7133   3
  -6   5  -6 385.305 81.8233   2
  -6   5  -7 474.392 84.3692   3
  -6   5  -7 390.288 84.5042   2
  -6   5  -8 462.247 89.1566   3
  -6   5  -8 522.196 94.1250   2
  -6   5  -9 603.169 103.997   3
  -6   4  11 8.17812 31.4858   2
  -6   4  10 1264.77 135.722   2
  -6   4   9 1513.18 150.657   2
  -6   4   8 196.564 62.2301   2
  -6   4   7 96.0733 46.9285   2
  -6   4   6 2920.27 209.826   2
  -6   4   5 44.1457 42.1358   2
  -6   4   4 6669.42 331.334   2
   6  -4  -4 5616.15 304.358   5
   6  -4  -3 166.884 53.3431   5
  -6   4   3 219.045 58.5040   2
  -6   4   2 1903.65 167.715   2
   6  -4  -2 1480.22 136.442   5
   6  -4  -1 302.356 57.6882   5
  -6   4   1 370.795 77.4925   2
  -6   4   0 4319.95 257.501   2
   6  -4   0 3970.56 233.567   5
  -6   4  -1 2821.73 204.652   2
  -6   4  -2 67.0000 38.5058   2
  -6   4  -3 700.114 100.702   2
  -6   4  -4 691.073 101.647   2
  -6   4  -5 709.852 96.5118   3
  -6   4  -5 744.388 105.922   2
  -6   4  -6 658.249 95.9591   3
  -6   4  -6 856.174 112.702   2
  -6   4  -7 2374.92 193.940   3
  -6   4  -7 2448.04 194.959   2
  -6   4  -8 665.070 106.451   3
  -6   4  -8 751.415 106.359   2
  -6   4  -9 164.796 56.3764   3
  -6   3  11 146.297 57.6612   2
  -6   3  10 843.056 108.408   2
  -6   3   9 2130.79 175.102   2
  -6   3   8 1000.61 119.120   2
  -6   3   7 1164.68 127.448   2
  -6   3   6 1211.22 131.713   2
  -6   3   5 2385.95 183.680   2
  -6   3   4 1400.62 141.027   2
  -6   3   3 7966.73 368.748   2
   6  -3  -3 7708.93 345.013   5
   6  -3  -2 551.540 80.3364   5
  -6   3   2 624.443 95.6064   2
   6  -3  -1 251.115 56.8625   5
  -6   3   1 553.946 92.3618   2
   6  -3   0 118.026 37.6522   5
  -6   3   0 73.7298 40.1372   2
  -6   3  -1 692.661 95.2075   2
  -6   3  -2 54.8921 39.3617   2
  -6   3  -3 134.994 50.2438   2
  -6   3  -4 898.062 112.714   2
  -6   3  -5 38.1160 34.8974   3
  -6   3  -5 27.0754 35.3066   2
  -6   3  -6 2323.11 185.789   3
  -6   3  -6 2375.05 186.983   2
  -6   3  -7 168.837 58.6301   3
  -6   3  -7 156.091 45.4158   2
  -6   3  -8 210.546 61.7626   3
  -6   3  -8 186.242 54.9809   2
  -6   3  -9 170.169 60.0070   3
   6  -2 -12 34.5434 47.5346   4
  -6   2  11 7658.81 356.985   2
  -6   2  10 116.830 42.5463   2
  -6   2   9 1545.00 144.301   2
  -6   2   8 1804.65 156.298   2
  -6   2   7 2496.62 187.589   2
  -6   2   6 5513.75 290.678   2
  -6   2   5 7469.27 352.171   2
  -6   2   4 1974.28 164.719   2
  -6   2   3 91.4304 39.7030   2
  -6   2   2 961.357 115.957   2
   6  -2  -1 45.1561 29.6803   5
  -6   2   1 108.613 44.7276   2
  -6   2   0 2791.53 198.181   2
   6  -2   0 2812.64 163.831   5
  -6   2  -1 4315.96 253.336   2
   6  -2   1 4278.38 210.337   5
  -6   2  -2 486.457 83.6046   2
  -6   2  -3 14.4696 24.8723   2
  -6   2  -4 80.1876 38.7672   2
  -6   2  -5 350.545 70.1143   3
  -6   2  -5 452.427 80.0324   2
  -6   2  -6 228.316 60.3428   3
  -6   2  -6 385.698 73.5427   2
  -6   2  -7 3441.49 240.380   3
  -6   2  -7 3127.78 213.157   2
  -6   2  -8 135.050 63.4024   3
  -6   2  -8 195.099 55.0569   2
  -6   2  -9 41.8986 49.4937   3
   6  -1 -12 619.042 117.157   4
   6  -1 -11 52.2905 49.3080   4
  -6   1  11 83.1296 37.7833   1
  -6   1  10 257.642 63.2956   2
  -6   1   9 2063.75 165.273   2
  -6   1   8 5043.78 272.916   2
  -6   1   7 2281.81 173.680   2
  -6   1   6 17.2899 38.6593   2
  -6   1   5 221.603 60.9034   2
  -6   1   4 2108.94 165.917   2
  -6   1   3 5397.94 287.755   2
  -6   1   2 223.317 57.4851   2
  -6   1   1-15.4299 25.5647   2
   6  -1   0 594.137 65.8142   5
  -6   1   0 566.642 86.2785   2
  -6   1  -1 2243.02 171.606   2
   6  -1   1 1994.11 120.101   5
  -6   1  -2 1388.47 136.803   2
  -6   1  -3 2672.34 192.095   2
  -6   1  -4-7.65525 26.0121   2
  -6   1  -5 39.3401 28.8610   3
  -6   1  -5 32.2177 26.3582   2
  -6   1  -6 101.621 33.6312   3
  -6   1  -6 131.044 40.9379   2
  -6   1  -7 343.757 78.0504   3
  -6   1  -7 250.993 56.7219   1
  -6   1  -8 1355.75 155.948   3
  -6   1  -9 6.65601 45.1278   3
  -6   0  12 826.683 99.7111   1
   6   0 -12 941.353 141.439   4
  -6   0  11 1996.49 160.545   1
   6   0 -11 2330.12 211.965   4
  -6   0  10 765.667 97.8114   1
  -6   0   9 733.469 95.9380   1
  -6   0   8 622.463 92.2638   2
  -6   0   8 509.114 85.1743   1
  -6   0   7 6273.74 313.476   2
  -6   0   6 738.565 99.0288   2
  -6   0   5 7185.67 338.033   2
  -6   0   4 10032.7 418.221   2
  -6   0   3 1885.67 156.333   2
  -6   0   2 4248.53 246.358   2
  -6   0   1 2586.77 186.589   2
  -6   0   0 2626.66 188.944   2
   6   0   0 2718.59 143.697   5
  -6   0  -1 1393.86 134.315   2
   6   0   1 1578.58 95.4249   5
  -6   0  -2 38.2979 28.6472   2
  -6   0  -3 49.7368 36.2865   2
  -6   0  -4 2713.95 192.497   2
  -6   0  -4 2581.84 182.218   1
  -6   0  -5 243.833 56.6852   1
  -6   0  -6 6187.02 340.376   3
  -6   0  -6 6598.30 315.626   1
  -6   0  -7 845.114 100.848   1
  -6   0  -7 810.705 120.743   3
  -6   0  -8-1.08137 40.4462   3
   6   1 -13 2105.62 216.494   4
  -6  -1  12 32.5367 34.4170   1
   6   1 -12 4.65611 49.3727   4
   6   1 -11 40.2402 40.3861   4
  -6  -1  11 28.2810 31.4108   1
  -6  -1  10 359.998 67.3749   1
  -6  -1   9 1903.31 155.588   1
  -6  -1   8 4573.46 257.114   1
  -6  -1   7 121.929 47.5104   1
  -6  -1   6 626.114 88.6488   1
  -6  -1   5 2289.60 171.313   1
  -6  -1   4 24097.0 779.323   1
  -6  -1   3 1958.68 155.730   1
  -6  -1   2 4727.15 258.099   1
  -6  -1   1 344.114 68.6064   1
  -6  -1   0 169.629 52.0854   1
  -6  -1  -1 2372.12 175.159   1
   6   1   1 2457.78 114.875   5
  -6  -1  -2 819.855 101.502   1
  -6  -1  -3 894.482 105.238   1
  -6  -1  -4 478.049 78.1125   1
  -6  -1  -5 73.1932 31.8884   1
  -6  -1  -6 12.6762 25.1040   3
  -6  -1  -6 13.2640 21.1014   1
  -6  -1  -7 81.5777 44.5435   3
  -6  -1  -7 37.2811 30.8912   1
  -6  -1  -8 2746.58 230.991   3
   6   2 -13 338.033 89.9087   4
   6   2 -12 1884.89 196.227   4
  -6  -2  12 1871.81 152.219   1
  -6  -2  11 476.797 77.8823   1
   6   2 -11 535.571 100.278   4
  -6  -2  10 283.565 62.2510   1
  -6  -2   9 75.4541 34.9206   1
  -6  -2   8 50.5924 34.7492   1
  -6  -2   7 1017.41 116.181   1
  -6  -2   6 287.191 59.8551   1
  -6  -2   5 1441.82 135.615   1
  -6  -2   4 30.6012 30.6272   1
  -6  -2   3 3024.44 205.320   1
  -6  -2   2 62.7672 40.9899   1
  -6  -2   1 5234.17 279.719   1
  -6  -2   0 104.145 49.8691   1
  -6  -2  -1 1117.84 121.667   1
   6   2   1 1455.10 77.5563   5
  -6  -2  -2 170.444 49.5246   1
  -6  -2  -3 5160.65 275.654   1
  -6  -2  -4 2228.54 170.822   1
  -6  -2  -5 69.5687 34.2397   1
  -6  -2  -6 664.076 92.1596   1
  -6  -2  -7 486.055 98.6102   3
  -6  -2  -7 391.597 70.7475   1
  -6  -2  -8 74.6828 48.8085   3
   6   3 -13 25.6910 43.4429   4
  -6  -3  12 78.7891 32.0430   1
   6   3 -12 72.7986 46.1925   4
   6   3 -11 1311.06 153.853   4
  -6  -3  11 1108.27 119.902   1
  -6  -3  10 661.074 93.8116   1
  -6  -3   9 3110.97 207.666   1
  -6  -3   8 72.6135 38.8863   1
  -6  -3   7 300.119 65.8021   1
  -6  -3   6 529.731 86.3649   1
  -6  -3   5 130.008 50.3889   1
  -6  -3   4 5243.27 281.490   1
  -6  -3   3 117.225 51.2489   1
  -6  -3   2 5713.07 296.161   1
  -6  -3   1 45.7580 39.6894   1
  -6  -3   0 4231.99 249.568   1
  -6  -3  -1 250.330 57.7411   1
  -6  -3  -2 317.833 64.5674   1
  -6  -3  -3 2141.33 169.874   1
  -6  -3  -4 212.045 55.2131   1
  -6  -3  -5 1636.62 145.761   1
  -6  -3  -6-6.40138 21.4150   1
  -6  -3  -7 850.568 103.007   1
   6   4 -13 611.606 114.652   4
  -6  -4  12 404.879 74.7709   1
   6   4 -12 439.171 97.1419   4
   6   4 -11 162.936 57.8976   4
  -6  -4  11 79.8332 39.9441   1
  -6  -4  10 156.705 49.0876   1
  -6  -4   9 743.859 99.5464   1
  -6  -4   8 27.3713 21.5493   1
  -6  -4   7 89.1789 41.8916   1
  -6  -4   6 1169.14 127.305   1
  -6  -4   5 949.469 112.864   1
  -6  -4   4 1590.27 147.328   1
  -6  -4   3 113.264 51.8380   1
  -6  -4   2 26.6233 37.2574   1
  -6  -4   1 6216.32 317.176   1
  -6  -4   0 486.872 81.6331   1
  -6  -4  -1-17.4584 30.4374   1
  -6  -4  -2 60.5069 36.0383   1
  -6  -4  -3 3432.86 223.823   1
  -6  -4  -4 2496.59 187.460   1
  -6  -4  -5 304.732 63.6647   1
  -6  -4  -6 991.143 114.781   1
  -6  -4  -9 338.435 87.3052   4
   6   5 -13 207.188 74.5301   4
  -6  -5  12 275.145 65.3930   1
   6   5 -12 240.061 74.0507   4
  -6  -5  11 362.480 76.1901   1
  -6  -5  10 169.487 54.1430   1
  -6  -5   9 98.0545 46.3263   1
  -6  -5   8 190.420 58.1203   1
  -6  -5   7 30.2216 40.3535   1
  -6  -5   6 32.9738 38.6983   1
  -6  -5   5 394.515 77.8430   1
  -6  -5   4 2546.83 193.449   1
  -6  -5   3 644.241 96.5395   1
  -6  -5   2 800.956 107.865   1
  -6  -5   1 225.241 60.6769   1
  -6  -5   0 2864.05 206.873   1
  -6  -5  -1 73.5982 36.9609   1
  -6  -5  -2 759.503 102.693   1
  -6  -5  -3 167.092 57.2217   1
  -6  -5  -4 3997.71 248.227   1
  -6  -5  -5 251.112 66.5559   1
  -6  -5  -6 2418.20 190.048   1
   6   6 -13 180.431 61.9434   4
  -6  -6  12 398.007 78.9822   1
  -6  -6  11 32.9181 34.2135   1
  -6  -6  10 305.963 71.7331   1
  -6  -6   9 196.323 57.2205   1
  -6  -6   8 1492.28 150.078   1
  -6  -6   7 57.6385 41.7874   1
  -6  -6   6 2085.81 179.194   1
  -6  -6   5 764.855 108.775   1
  -6  -6   4 1834.25 166.303   1
  -6  -6   3 409.176 83.4166   1
  -6  -6   2 4841.39 285.574   1
  -6  -6   1 3265.22 228.865   1
  -6  -6   0 267.489 67.8425   1
  -6  -6  -1 606.747 96.0107   1
  -6  -6  -2 69.2883 36.9947   1
  -6  -6  -3 4688.91 282.527   1
  -6  -6  -4 75.0029 42.1838   1
  -6  -6  -5 1181.57 135.369   1
  -6  -6  -6 656.690 99.3971   1
  -6  -7  12 973.458 129.818   1
  -6  -7  11 548.581 96.9770   1
  -6  -7  10-27.8664 40.6237   1
  -6  -7   9 305.784 72.3641   1
  -6  -7   8 25.4596 35.9462   1
  -6  -7   7 1146.59 136.121   1
  -6  -7   6 107.820 50.7348   1
  -6  -7   5 1092.08 133.340   1
  -6  -7   4 574.201 97.9620   1
  -6  -7   3 714.787 107.597   1
  -6  -7   2 503.387 93.7110   1
  -6  -7   1 290.661 71.4654   1
  -6  -7   0 2010.98 183.125   1
  -6  -7  -1 4444.17 284.261   1
  -6  -7  -2 170.030 56.9286   1
  -6  -7  -3 124.304 47.0966   1
  -6  -7  -4 730.044 111.886   1
  -6  -7  -5 24.6359 29.4622   1
  -6  -7  -6 2256.67 198.028   1
  -6  -8  11 1008.22 138.081   1
  -6  -8  10 585.194 100.629   1
  -6  -8   9 3922.38 274.657   1
  -6  -8   8 63.7233 49.7703   1
  -6  -8   7 9.94665 45.4406   1
  -6  -8   6 82.4059 57.2476   1
  -6  -8   5 1266.57 149.906   1
  -6  -8   4 713.643 112.628   1
  -6  -8   3 1401.34 157.395   1
  -6  -8   2 824.691 124.672   1
  -6  -8   1 625.480 104.496   1
  -6  -8   0 584.330 106.221   1
  -6  -8  -1 868.297 124.585   1
  -6  -8  -2 184.050 64.8978   1
  -6  -8  -3 1733.06 183.820   1
  -6  -8  -4 884.875 126.183   1
  -7   7   8 888.171 135.707   2
  -7   7   7 257.273 82.8169   2
  -7   7   6-16.8796 34.5686   2
   7  -7  -5 708.272 115.128   5
  -7   7   5 372.027 88.1431   2
   7  -7  -4 445.983 88.0946   5
  -7   7   4 339.710 84.7601   2
  -7   7   3 1352.36 164.054   2
   7  -7  -3 962.409 151.757   5
  -7   7   2 1370.28 165.819   2
  -7   7   1 177.269 66.6993   2
  -7   7   0 244.704 72.4510   2
  -7   7  -1 1426.24 169.583   2
  -7   7  -2 1655.42 185.253   2
  -7   7  -3 1426.44 171.829   2
  -7   7  -4 123.922 59.0007   2
  -7   7  -5 822.302 133.474   2
  -7   6  10 72.2400 49.3390   2
  -7   6   9 2882.88 238.179   2
  -7   6   8 625.596 111.149   2
   7  -6  -7 1021.58 144.578   5
  -7   6   7 978.895 141.505   2
   7  -6  -6 2.95840 47.6966   5
  -7   6   6 22.0670 27.3868   2
   7  -6  -5 677.645 115.672   5
  -7   6   5 710.724 114.777   2
   7  -6  -4 187.612 62.1574   5
  -7   6   4 167.344 68.7335   2
   7  -6  -3 119.811 41.5311   5
  -7   6   3 21.2124 42.9335   2
   7  -6  -2 479.909 93.4138   5
  -7   6   2 670.016 110.751   2
  -7   6   1 1477.00 168.659   2
  -7   6   0 4632.78 306.139   2
  -7   6  -1 237.699 72.6042   2
  -7   6  -2 21.3964 48.4943   2
  -7   6  -3 279.220 73.5359   2
  -7   6  -4 570.016 106.046   2
  -7   6  -5 1199.17 151.233   2
  -7   6  -6 641.812 113.978   2
  -7   6  -7 1196.28 155.959   2
  -7   5  10 959.216 132.803   2
  -7   5   9 2213.17 203.347   2
  -7   5   8 292.011 76.7456   2
  -7   5   7 1186.11 147.448   2
   7  -5  -7 1191.10 148.899   5
   7  -5  -6 225.576 66.8585   5
  -7   5   6 286.160 78.6511   2
   7  -5  -5 339.437 80.1502   5
  -7   5   5 510.421 98.9449   2
   7  -5  -4 586.315 99.3815   5
  -7   5   4 716.559 118.427   2
   7  -5  -3 0.08873 27.7354   5
  -7   5   3 57.2087 48.7655   2
   7  -5  -2-13.5429 31.5881   5
  -7   5   2 125.226 53.0719   2
   7  -5  -1 583.100 101.660   5
  -7   5   1 831.955 122.103   2
  -7   5   0 46.3191 50.8830   2
  -7   5  -1 73.7317 51.4354   2
  -7   5  -2 410.707 86.6506   2
  -7   5  -3 584.963 108.572   2
  -7   5  -4 434.478 94.1346   2
  -7   5  -5 1047.82 140.466   2
  -7   5  -6 744.705 117.355   2
  -7   5  -7 857.278 129.410   2
  -7   5  -8 220.310 70.0641   3
  -7   4  11 110.096 53.2024   2
  -7   4  10 1821.51 178.189   2
  -7   4   9 185.769 63.1292   2
  -7   4   8 271.028 74.1494   2
  -7   4   7 1883.68 182.054   2
  -7   4   6 1803.84 178.594   2
  -7   4   5 1518.90 158.969   2
   7  -4  -5 1398.47 150.766   5
  -7   4   4 1928.60 184.376   2
   7  -4  -4 1922.47 170.861   5
  -7   4   3 1290.07 145.650   2
   7  -4  -3 1224.45 130.638   5
   7  -4  -2 111.480 47.0128   5
  -7   4   2 216.078 74.8844   2
  -7   4   1 2217.91 194.764   2
   7  -4  -1 2057.56 164.645   5
  -7   4   0 2490.38 209.074   2
   7  -4   0 2641.96 186.683   5
  -7   4  -1 1149.89 142.873   2
  -7   4  -2 21.6943 38.6836   2
  -7   4  -3 103.934 48.8468   2
  -7   4  -4 1587.43 167.153   2
  -7   4  -5 43.4479 37.6136   2
  -7   4  -6 1096.93 141.458   2
  -7   4  -7 686.852 112.377   2
  -7   4  -8 359.218 87.1958   3
  -7   3  11 96.6282 53.3290   2
  -7   3  10 145.012 53.1786   2
  -7   3   9 737.153 111.730   2
  -7   3   8 87.3496 50.2674   2
  -7   3   7 192.030 69.7365   2
  -7   3   6 91.9742 49.3644   2
  -7   3   5 2205.17 192.965   2
  -7   3   4 2174.85 192.108   2
   7  -3  -3 743.689 96.6693   5
  -7   3   3 559.906 99.9015   2
  -7   3   2 1775.12 174.360   2
   7  -3  -2 1609.46 141.630   5
   7  -3  -1 634.431 85.7909   5
  -7   3   1 633.575 107.483   2
  -7   3   0 2297.76 197.566   2
   7  -3   0 2280.55 163.045   5
  -7   3  -1 1819.45 175.287   2
  -7   3  -2 948.403 127.879   2
  -7   3  -3 427.032 85.2326   2
  -7   3  -4 44.7526 39.0915   2
  -7   3  -5 30.0815 41.7121   2
  -7   3  -6 1079.62 134.679   2
  -7   3  -7 100.660 60.0021   3
  -7   3  -7 41.3097 37.4953   2
  -7   2  11 144.962 52.8575   2
  -7   2  10-19.4709 35.7071   2
  -7   2   9 176.179 58.8601   2
  -7   2   8 415.943 91.5408   2
  -7   2   7 88.6549 50.7857   2
  -7   2   6 1458.48 155.554   2
  -7   2   5 436.905 90.7300   2
  -7   2   4 679.229 107.405   2
  -7   2   3 1017.14 129.446   2
  -7   2   2 1124.81 137.163   2
   7  -2  -2 1060.46 108.762   5
  -7   2   1 1860.49 174.967   2
   7  -2  -1 1724.70 136.154   5
   7  -2   0 25.7415 23.1418   5
  -7   2   0 45.5856 37.2876   2
   7  -2   1 649.533 75.6517   5
  -7   2  -1 585.193 99.4996   2
  -7   2  -2 57.4539 44.1707   2
  -7   2  -3 709.400 110.900   2
  -7   2  -4 4.78152 28.4720   2
  -7   2  -5 445.283 85.0205   2
  -7   2  -6 585.677 101.567   2
  -7   2  -7 77.2701 46.9930   3
  -7   2  -7 51.1491 25.6146   2
  -7   1  11 322.385 69.3467   1
  -7   1  10 580.796 98.0903   2
  -7   1  10 529.415 89.9837   1
  -7   1   9 3108.54 227.735   2
  -7   1   8 431.842 82.7968   2
  -7   1   7 96.8229 43.2195   2
  -7   1   6 108.799 51.1975   2
  -7   1   5 6698.61 349.716   2
  -7   1   4 76.2850 51.9186   2
  -7   1   3 2874.53 217.185   2
  -7   1   2 318.497 74.8939   2
   7  -1  -1 819.476 86.9649   5
  -7   1   1 831.581 115.699   2
  -7   1   0 2473.19 198.042   2
   7  -1   0 2259.23 145.052   5
  -7   1  -1 1475.78 151.719   2
   7  -1   1 1610.54 121.145   5
  -7   1  -2 1898.26 174.621   2
  -7   1  -3 59.3816 39.2588   2
  -7   1  -4 1021.50 127.938   2
  -7   1  -5 379.821 82.6138   2
  -7   1  -6 307.330 70.8384   1
  -7   1  -7 5333.74 301.640   1
  -7   0  12 22.2940 23.8581   1
  -7   0  11 810.903 109.090   1
  -7   0  10 1315.53 140.453   1
  -7   0   9 56.1995 36.7825   1
  -7   0   8 956.654 119.132   1
  -7   0   7 252.314 66.4625   2
  -7   0   7 296.403 66.7184   1
  -7   0   6 1103.52 132.370   2
  -7   0   5-18.4938 31.4390   2
  -7   0   4 42.9134 45.9843   2
  -7   0   3 1383.29 149.822   2
  -7   0   2 2163.70 184.674   2
  -7   0   1 169.313 63.1317   2
   7   0   0 522.792 62.6403   5
  -7   0   0 432.898 83.1383   2
  -7   0  -1 330.241 72.9755   2
  -7   0  -2 3518.48 242.183   2
  -7   0  -2 3338.01 228.586   1
  -7   0  -3 1034.37 123.799   1
  -7   0  -4 595.933 93.4799   1
  -7   0  -5 3009.52 216.988   1
  -7   0  -6 656.376 98.2810   1
  -7   0  -7 420.911 78.6675   1
  -7  -1  12 661.229 100.737   1
  -7  -1  11 2.50671 29.3851   1
  -7  -1  10 1219.05 135.956   1
  -7  -1   9 1032.94 124.139   1
  -7  -1   8 85.0380 37.2467   1
  -7  -1   7 214.343 60.3287   1
  -7  -1   6 418.457 80.3647   1
  -7  -1   5 6133.09 326.159   1
  -7  -1   4 3499.79 234.855   1
  -7  -1   3 1953.71 171.166   1
  -7  -1   2 478.081 87.5359   1
  -7  -1   1 358.690 75.7315   1
  -7  -1   0 20.5909 31.3776   1
   7   1   0-19.6483 17.8118   5
  -7  -1  -1 1705.27 160.952   1
  -7  -1  -2 540.564 92.9941   1
  -7  -1  -3 163.034 57.8805   1
  -7  -1  -4 93.4570 53.7183   1
  -7  -1  -5 1268.09 137.146   1
  -7  -1  -6 82.1267 40.6229   1
  -7  -2  12 32.8615 33.2590   1
  -7  -2  11 388.554 76.0212   1
  -7  -2  10 20.5967 31.0450   1
  -7  -2   9 95.9788 48.7387   1
  -7  -2   8 79.7681 41.1491   1
  -7  -2   7 669.131 100.249   1
  -7  -2   6 123.206 50.0460   1
  -7  -2   5 794.924 113.369   1
  -7  -2   4 448.141 81.6502   1
  -7  -2   3 118.938 55.3713   1
  -7  -2   2 2386.02 192.029   1
  -7  -2   1 544.255 92.9905   1
  -7  -2   0 661.747 100.592   1
  -7  -2  -1 370.003 72.6668   1
  -7  -2  -2 2743.43 208.449   1
  -7  -2  -3 1589.55 154.147   1
  -7  -2  -4 458.175 82.6025   1
  -7  -2  -5 575.918 93.6709   1
  -7  -2  -6 535.864 92.2542   1
  -7  -3  12 977.997 122.644   1
  -7  -3  11 29.4738 29.2116   1
  -7  -3  10 771.143 110.680   1
  -7  -3   9 223.858 63.5901   1
  -7  -3   8 138.699 47.6232   1
  -7  -3   7-28.7859 25.0380   1
  -7  -3   6 846.599 115.870   1
  -7  -3   5 25.8896 37.5329   1
  -7  -3   4 1408.79 146.670   1
  -7  -3   3 22.2674 26.1529   1
  -7  -3   2 29.3652 29.0078   1
  -7  -3   1 165.937 56.6088   1
  -7  -3   0 3964.04 259.783   1
  -7  -3  -1 309.863 73.5644   1
  -7  -3  -2 356.012 78.0191   1
  -7  -3  -3 1102.83 130.202   1
  -7  -3  -4-35.2668 42.9592   1
  -7  -3  -5 480.231 87.0138   1
  -7  -3  -6 218.277 59.8154   1
  -7  -4  12 42.1095 35.1748   1
  -7  -4  11 195.205 59.4565   1
  -7  -4  10 986.074 128.146   1
  -7  -4   9 327.345 70.3291   1
  -7  -4   8 85.0297 41.9786   1
  -7  -4   7 773.373 110.686   1
  -7  -4   6 619.757 98.5289   1
  -7  -4   5 131.347 54.2236   1
  -7  -4   4 203.254 61.0220   1
  -7  -4   3 2422.01 199.174   1
  -7  -4   2 477.979 88.4199   1
  -7  -4   1 1014.65 125.325   1
  -7  -4   0 83.6000 57.3242   1
  -7  -4  -1 206.443 68.6683   1
  -7  -4  -2 1694.02 165.921   1
  -7  -4  -3 0.75017 37.2496   1
  -7  -4  -4 109.200 47.5863   1
  -7  -4  -5-6.23191 27.5964   1
  -7  -4  -6-35.6624 31.3691   1
  -7  -5  12 295.468 72.3402   1
  -7  -5  11 335.821 77.2871   1
  -7  -5  10 72.8246 40.8447   1
  -7  -5   9 648.902 105.409   1
  -7  -5   8 47.8852 38.1828   1
  -7  -5   7 14.9465 25.2592   1
  -7  -5   6 458.887 88.5446   1
  -7  -5   5 224.745 62.6613   1
  -7  -5   4 4418.43 282.286   1
  -7  -5   3 385.655 82.8537   1
  -7  -5   2 225.327 69.2076   1
  -7  -5   1 771.910 115.056   1
  -7  -5   0 645.033 103.971   1
  -7  -5  -1 1281.62 145.414   1
  -7  -5  -2 779.854 113.548   1
  -7  -5  -3 8.86469 30.5515   1
  -7  -5  -4 305.788 74.6936   1
  -7  -5  -5 2222.02 194.696   1
  -7  -5  -6 193.113 59.8185   1
  -7  -6  12 95.5322 45.6998   1
  -7  -6  11 50.8054 30.6586   1
  -7  -6  10 121.459 48.8091   1
  -7  -6   9 210.679 62.4336   1
  -7  -6   8 471.488 94.4418   1
  -7  -6   7 676.828 106.828   1
  -7  -6   6 51.5018 37.9346   1
  -7  -6   5 1451.23 160.331   1
  -7  -6   4 179.469 64.3642   1
  -7  -6   3 604.223 103.632   1
  -7  -6   2 176.667 61.2581   1
  -7  -6   1 15.3956 25.4093   1
  -7  -6   0 380.116 83.4801   1
  -7  -6  -1 68.9932 47.4307   1
  -7  -6  -2 1246.23 147.687   1
  -7  -6  -3 505.622 97.8242   1
  -7  -6  -4 101.312 42.0562   1
  -7  -6  -5 128.960 55.0332   1
  -7  -7   7 183.672 62.5534   1
  -7  -7   6 1053.42 141.642   1
  -7  -7   5 191.565 76.2713   1
  -7  -7   4 44.6046 47.0713   1
  -7  -7   3 245.512 79.5117   1
  -7  -7   2 816.364 121.087   1
  -7  -7   1 70.1834 41.5758   1
  -7  -7   0 3078.12 244.481   1
   8  -6  -5 853.192 124.497   5
   8  -6  -4 687.163 111.340   5
   8  -6  -3 141.284 66.3259   5
   8  -6  -2 606.590 107.498   5
  -8   5   7 370.983 90.2948   2
   8  -5  -6 12.5914 29.4952   5
  -8   5   6 111.468 62.8554   2
   8  -5  -5 46.7553 35.6445   5
  -8   5   5 50.2617 59.5446   2
   8  -5  -4 256.258 76.8743   5
  -8   5   4 298.118 87.9161   2
  -8   5   3 3268.02 266.806   2
   8  -5  -3 3215.61 237.043   5
   8  -5  -2-36.5520 26.3076   5
  -8   5   2 12.0752 57.2958   2
   8  -5  -1-8.32159 35.5320   5
  -8   5   1 47.9368 38.3284   2
  -8   5   0 513.243 108.700   2
  -8   5  -1 1500.10 178.433   2
  -8   5  -2 97.9677 57.4493   2
  -8   5  -3 356.720 97.0935   2
  -8   4  11 86.2737 35.1444   2
  -8   4  10 16.9242 31.5819   2
  -8   4   9 27.4986 45.2564   2
  -8   4   8 755.770 125.706   2
  -8   4   7 775.033 127.870   2
   8  -4  -6 56.6150 46.7098   5
  -8   4   6-15.5040 44.4833   2
  -8   4   5 1997.74 203.964   2
   8  -4  -5 2309.97 201.969   5
   8  -4  -4 46.3137 32.6747   5
  -8   4   4 83.9415 55.0034   2
  -8   4   3 1572.34 178.658   2
   8  -4  -3 1126.75 141.108   5
   8  -4  -2 357.881 70.7010   5
  -8   4   2 424.454 97.4640   2
   8  -4  -1 948.143 119.270   5
  -8   4   1 1169.99 153.218   2
  -8   4   0 543.599 108.901   2
  -8   4  -1 11.6687 28.2305   2
  -8   4  -2 112.170 58.6047   2
  -8   4  -3 90.9809 58.8537   2
  -8   4  -4 1206.97 154.429   2
  -8   4  -5 30.8223 46.2926   2
  -8   3  11 1096.43 145.467   2
  -8   3  10 80.1333 51.5177   2
  -8   3   9 834.510 130.982   2
  -8   3   8 187.343 63.7577   2
  -8   3   7 174.045 71.4275   2
  -8   3   6 1215.43 153.968   2
   8  -3  -5 190.514 60.8910   5
  -8   3   5 116.870 53.0503   2
   8  -3  -4 774.850 108.230   5
  -8   3   4 689.867 118.551   2
   8  -3  -3 296.140 64.5493   5
  -8   3   3 445.795 97.6814   2
   8  -3  -2 52.7332 35.7064   5
  -8   3   2 74.4024 54.3163   2
   8  -3  -1 327.451 70.1932   5
  -8   3   1 383.427 91.6379   2
   8  -3   0 28.7020 24.2183   5
  -8   3   0 34.8146 32.9650   2
  -8   3  -1 927.477 139.288   2
  -8   3  -2 384.790 87.5543   2
  -8   3  -3 621.084 108.922   2
  -8   3  -4 705.660 121.837   2
  -8   3  -5 155.975 63.4671   2
  -8   3  -6 906.636 135.742   2
  -8   2  11 430.912 94.8874   2
  -8   2  10 55.9445 42.4873   2
  -8   2   9 334.726 81.5094   2
  -8   2   8 804.920 126.635   2
  -8   2   7 1001.31 135.264   2
  -8   2   6 335.421 89.7189   2
  -8   2   5 138.234 58.0733   2
  -8   2   4 69.9494 53.6293   2
   8  -2  -3 644.732 89.7387   5
  -8   2   3 789.062 131.720   2
   8  -2  -2 669.740 91.2498   5
  -8   2   2 677.701 115.686   2
   8  -2  -1 863.585 98.9571   5
  -8   2   1 974.471 135.732   2
  -8   2   0 3889.44 279.625   2
  -8   2  -1 55.8620 41.4452   2
  -8   2  -2 89.5695 58.2292   2
  -8   2  -3 755.061 119.748   2
  -8   2  -4 2429.02 217.553   2
  -8   2  -5 179.674 75.1752   2
  -8   2  -6 1060.08 136.993   1
  -8   2  -6 1019.43 141.521   2
  -8   1  11 166.455 60.5015   1
  -8   1  10 1371.30 157.670   1
  -8   1   9 146.159 61.2241   2
  -8   1   9 217.144 62.3129   1
  -8   1   8 92.3757 47.7035   2
  -8   1   7 510.063 100.982   2
  -8   1   6-32.2170 26.2661   2
  -8   1   5 73.7234 55.5103   2
  -8   1   4 1657.90 177.212   2
  -8   1   3 71.2076 48.2009   2
   8  -1  -2 124.410 44.1495   5
  -8   1   2 15.4382 36.1690   2
   8  -1  -1 41.3888 32.0467   5
  -8   1   1 57.2722 50.2288   2
  -8   1   0 1966.28 193.208   2
  -8   1  -1 22.4241 46.0268   2
  -8   1  -2 1029.78 139.667   2
  -8   1  -3 129.907 58.3484   2
  -8   1  -4 462.618 95.0649   2
  -8   1  -4 432.521 88.5914   1
  -8   1  -5 503.981 93.7322   1
  -8   1  -6 17.1087 44.6297   1
  -8   0  11 17.5500 34.0986   1
  -8   0  10 324.909 77.5118   1
  -8   0   9 128.882 48.5279   1
  -8   0   8 1360.95 156.915   1
  -8   0   7 1570.68 164.003   1
  -8   0   6 19.5136 38.2605   1
  -8   0   5 2208.53 202.272   2
  -8   0   5 2098.28 194.537   1
  -8   0   4 642.309 108.810   2
  -8   0   4 717.306 116.024   1
  -8   0   3 1366.56 159.792   2
  -8   0   3 1384.46 155.758   1
  -8   0   2 59.8927 50.7785   2
  -8   0   2 64.0283 51.8756   1
  -8   0   1 2517.53 221.244   2
  -8   0   1 2828.80 225.884   1
  -8   0   0 543.893 99.8412   2
  -8   0   0 498.274 93.8102   1
  -8   0  -1 291.304 74.1150   1
  -8   0  -2-34.9556 51.5907   1
  -8   0  -3 2801.99 226.714   1
  -8   0  -4 2186.93 199.107   1
  -8   0  -5 837.529 124.247   1
  -8   0  -6 269.643 71.0587   1
  -8  -1  12 35.1539 24.1815   1
  -8  -1  11 487.069 97.4480   1
  -8  -1  10 4.87268 30.1095   1
  -8  -1   9 307.880 74.7165   1
  -8  -1   8 9.71600 32.5158   1
  -8  -1   7 1759.29 179.358   1
  -8  -1   6 1512.24 164.927   1
  -8  -1   5 6723.81 370.652   1
  -8  -1   4 790.307 119.852   1
  -8  -1   3 116.817 51.2771   1
  -8  -1   2 39.1205 38.7770   1
  -8  -1   1 1387.85 156.811   1
  -8  -1   0 1867.83 180.895   1
  -8  -1  -1 676.658 116.881   1
  -8  -1  -2 108.515 45.7715   1
  -8  -1  -3 1114.89 141.954   1
  -8  -1  -4 1134.12 140.798   1
  -8  -1  -5 40.2775 44.6455   1
  -8  -1  -6 59.4132 28.9838   1
  -8  -2  12 36.5738 37.4276   1
  -8  -2  11 844.821 120.053   1
  -8  -2  10 1544.00 165.625   1
  -8  -2   9 376.835 86.4852   1
  -8  -2   8 417.334 86.7124   1
  -8  -2   7-29.3536 32.7936   1
  -8  -2   6 944.402 130.098   1
  -8  -2   5 676.827 116.542   1
  -8  -2   4 3817.22 269.738   1
  -8  -2   3 59.2215 39.7333   1
  -8  -2   2 2450.67 212.682   1
  -8  -2   1 409.715 93.5833   1
  -8  -2   0-0.10479 29.1833   1
  -8  -2  -1 791.886 120.079   1
  -8  -2  -2 1304.71 153.738   1
  -8  -2  -3 2059.79 194.250   1
  -8  -2  -4-9.70992 25.4016   1
  -8  -2  -5 130.377 47.1720   1
  -8  -3  12 1607.28 168.613   1
  -8  -3  11 449.690 91.1880   1
  -8  -3  10 1167.55 145.489   1
  -8  -3   9 263.909 74.3744   1
  -8  -3   8 194.967 62.4619   1
  -8  -3   7 1003.16 134.450   1
  -8  -3   6 80.3121 55.2516   1
  -8  -3   5 516.239 100.166   1
  -8  -3   4 584.100 105.952   1
  -8  -3   3 849.390 126.132   1
  -8  -3   2-0.31811 33.5533   1
  -8  -3   1 1439.00 161.909   1
  -8  -3   0 624.004 106.655   1
  -8  -3  -1 45.7343 40.5381   1
  -8  -3  -2 980.723 132.396   1
  -8  -3  -3 40.5462 34.2998   1
  -8  -3  -4 808.179 120.871   1
  -8  -3  -5 80.2459 48.1175   1
  -8  -4  10 2.18715 31.8642   1
  -8  -4   9 405.296 87.4574   1
  -8  -4   8 29.9436 39.5019   1
  -8  -4   7 56.5956 49.7645   1
  -8  -4   6-54.5977 55.5232   1
  -8  -4   5 167.553 66.8770   1
  -8  -4   4 589.192 103.652   1
  -8  -4   3 325.933 80.6465   1
  -8  -4   2 308.470 82.1946   1
  -8  -4   1 178.672 54.2922   1
  -8  -4   0 9.19735 32.6222   1
  -8  -4  -1 131.603 62.2265   1
  -8  -4  -2 1138.64 147.741   1
  -8  -4  -3 709.784 116.368   1
  -8  -5   6 619.088 111.578   1
  -8  -5   5 840.732 130.079   1
  -8  -5   4 14.2361 30.8844   1
  -8  -5   3 837.048 127.858   1
  -8  -5   2 135.348 61.1779   1
   9  -5  -3 200.303 56.7780   5
   9  -5  -2 117.960 53.6867   5
   9  -4  -5 313.049 85.1798   5
   9  -4  -4 107.576 53.3327   5
   9  -4  -3 299.450 70.7724   5
   9  -4  -2 1098.15 133.328   5
   9  -3  -6 619.838 108.513   5
   9  -3  -5 442.994 91.0269   5
   9  -3  -4 176.283 58.6594   5
   9  -3  -3 432.624 89.1910   5
   9  -2  -4 199.505 62.0886   5
   9  -2  -3 103.147 46.5879   5
   0   0   0    0.00    0.00   0
TITL Feng48 in P-1
REM P-1 (#2 in standard setting)
CELL 0.71073   7.600588  10.239283  12.774124  96.0418 101.7026  91.3697
ZERR   14.00   0.000689   0.000662   0.000754   0.0051   0.0062   0.0062
LATT  1
SFAC C H N O S
UNIT 14.00 14.00 14.00 14.00 14.00
TREF
HKLF 4
END
;
_shelx_hkl_checksum              86646
loop_
_space_group_symop_operation_xyz
'x, y, z'
'-x, -y, -z'
loop_
_atom_site_label
_atom_site_type_symbol
_atom_site_fract_x
_atom_site_fract_y
_atom_site_fract_z
_atom_site_U_iso_or_equiv
_atom_site_adp_type
_atom_site_occupancy
_atom_site_site_symmetry_order
_atom_site_calc_flag
_atom_site_refinement_flags_posn
_atom_site_refinement_flags_adp
S001 S 0.75295(9) 0.51867(6) 0.13536(5) 0.01368(17) Uani 1 1 d . .
S002 S 0.93157(9) 0.07575(6) 0.31216(5) 0.01467(18) Uani 1 1 d . .
O6 O 0.6273(2) 0.61320(18) 0.16569(14) 0.0193(4) Uani 1 1 d . .
O1 O 0.8128(3) 0.02455(17) 0.37558(14) 0.0210(4) Uani 1 1 d . .
O2 O 1.1168(3) 0.04203(18) 0.34490(15) 0.0219(5) Uani 1 1 d . .
O4 O 0.6623(3) 0.40819(18) 0.06252(14) 0.0236(5) Uani 1 1 d . .
O5 O 0.8965(3) 0.57960(19) 0.09446(14) 0.0212(4) Uani 1 1 d . .
O7 O 0.2835(3) 0.71174(19) 0.29898(15) 0.0258(5) Uani 1 1 d . .
O3 O 0.8636(3) 0.04516(18) 0.19689(14) 0.0280(5) Uani 1 1 d . .
N1 N 0.7300(3) 0.5013(2) 0.85802(17) 0.0214(5) Uani 1 1 d . .
H1A H 0.7805 0.5202 0.9274 0.032 Uiso 1 1 calc R U
H1B H 0.6276 0.4543 0.8516 0.032 Uiso 1 1 calc R U
H1C H 0.8046 0.4551 0.8249 0.032 Uiso 1 1 calc R U
N3 N 0.4593(3) 0.8465(2) 0.17872(17) 0.0219(6) Uani 1 1 d . .
H3B H 0.5119 0.7798 0.1546 0.026 Uiso 1 1 calc R U
N2 N 0.4803(3) 0.8773(2) 0.28908(17) 0.0186(5) Uani 1 1 d . .
H2B H 0.5450 0.9452 0.3218 0.022 Uiso 1 1 calc R U
N5 N 0.2756(3) 1.0181(2) 0.14264(18) 0.0245(6) Uani 1 1 d . .
H5B H 0.2139 1.0641 0.0970 0.029 Uiso 1 1 calc R U
H5C H 0.2819 1.0384 0.2104 0.029 Uiso 1 1 calc R U
O8 O 0.8858(4) -0.1568(2) 0.03586(17) 0.0553(8) Uani 1 1 d D .
H8D H 0.8896 -0.2373 0.0467 0.066 Uiso 1 1 d DR U
H8C H 0.9021 -0.1058 0.0943 0.066 Uiso 1 1 d DR U
C5 C 0.9105(3) 0.5298(2) 0.35537(19) 0.0107(5) Uani 1 1 d . .
N4 N 0.3542(3) 0.8820(2) 0.00554(18) 0.0266(6) Uani 1 1 d . .
H4B H 0.2936 0.9261 -0.0421 0.032 Uiso 1 1 calc R U
H4C H 0.4111 0.8152 -0.0140 0.032 Uiso 1 1 calc R U
C6 C 0.9734(3) 0.4624(2) 0.44784(18) 0.0107(5) Uani 1 1 d . .
C4 C 0.8535(3) 0.4526(2) 0.25571(19) 0.0122(5) Uani 1 1 d . .
C7 C 0.9088(3) 0.6701(2) 0.36940(19) 0.0135(6) Uani 1 1 d . .
H7A H 0.8720 0.7143 0.3093 0.016 Uiso 1 1 calc R U
C1 C 0.9817(3) 0.3228(2) 0.43817(19) 0.0122(5) Uani 1 1 d . .
C3 C 0.8648(3) 0.3169(2) 0.2466(2) 0.0137(6) Uani 1 1 d . .
H3C H 0.8288 0.2686 0.1794 0.016 Uiso 1 1 calc R U
C8 C 0.9587(3) 0.7407(2) 0.46676(19) 0.0138(6) Uani 1 1 d . .
H8A H 0.9545 0.8318 0.4724 0.017 Uiso 1 1 calc R U
C2 C 0.9284(3) 0.2517(2) 0.33552(19) 0.0120(5) Uani 1 1 d . .
C15 C 0.3599(4) 0.9171(3) 0.1090(2) 0.0170(6) Uani 1 1 d . .
C14 C 0.3959(4) 0.7972(3) 0.3446(2) 0.0181(6) Uani 1 1 d . .
C12 C 0.4869(4) 0.6959(3) 0.5169(2) 0.0181(6) Uani 1 1 d . .
H12A H 0.3760 0.6422 0.5031 0.022 Uiso 1 1 calc R U
H12B H 0.5738 0.6469 0.4846 0.022 Uiso 1 1 calc R U
C11 C 0.5575(4) 0.7223(3) 0.6377(2) 0.0188(6) Uani 1 1 d . .
H11A H 0.6633 0.7815 0.6516 0.023 Uiso 1 1 calc R U
H11B H 0.4668 0.7658 0.6705 0.023 Uiso 1 1 calc R U
C13 C 0.4517(4) 0.8226(3) 0.4644(2) 0.0213(6) Uani 1 1 d . .
H13A H 0.3579 0.8682 0.4927 0.026 Uiso 1 1 calc R U
H13B H 0.5600 0.8794 0.4830 0.026 Uiso 1 1 calc R U
C9 C 0.6921(4) 0.6256(3) 0.8082(2) 0.0207(6) Uani 1 1 d . .
H9A H 0.8036 0.6774 0.8163 0.025 Uiso 1 1 calc R U
H9B H 0.6125 0.6765 0.8452 0.025 Uiso 1 1 calc R U
C10 C 0.6060(4) 0.5978(3) 0.6900(2) 0.0190(6) Uani 1 1 d . .
H10A H 0.4980 0.5421 0.6821 0.023 Uiso 1 1 calc R U
H10B H 0.6883 0.5500 0.6529 0.023 Uiso 1 1 calc R U
loop_
_atom_site_aniso_label
_atom_site_aniso_U_11
_atom_site_aniso_U_22
_atom_site_aniso_U_33
_atom_site_aniso_U_23
_atom_site_aniso_U_13
_atom_site_aniso_U_12
S001 0.0174(4) 0.0138(4) 0.0092(3) 0.0014(2) 0.0010(2) 0.0044(3)
S002 0.0217(4) 0.0092(3) 0.0124(3) -0.0008(2) 0.0027(3) 0.0019(3)
O6 0.0203(11) 0.0214(11) 0.0161(10) 0.0019(7) 0.0025(8) 0.0108(8)
O1 0.0254(11) 0.0135(10) 0.0254(11) 0.0017(8) 0.0093(8) -0.0037(8)
O2 0.0226(11) 0.0163(10) 0.0277(11) 0.0017(8) 0.0072(8) 0.0064(8)
O4 0.0341(12) 0.0168(11) 0.0144(10) -0.0009(7) -0.0063(8) 0.0027(9)
O5 0.0226(11) 0.0252(11) 0.0189(10) 0.0103(8) 0.0070(8) 0.0034(9)
O7 0.0269(12) 0.0239(11) 0.0255(11) -0.0019(8) 0.0055(9) -0.0033(9)
O3 0.0512(15) 0.0146(10) 0.0140(10) -0.0030(8) -0.0012(9) 0.0057(10)
N1 0.0205(13) 0.0282(14) 0.0139(12) 0.0012(9) 0.0008(10) -0.0010(11)
N3 0.0319(15) 0.0201(13) 0.0156(13) 0.0015(9) 0.0083(10) 0.0121(11)
N2 0.0253(13) 0.0158(12) 0.0138(12) 0.0013(9) 0.0023(9) 0.0015(10)
N5 0.0357(16) 0.0193(13) 0.0163(13) -0.0003(9) 0.0003(10) 0.0130(11)
O8 0.117(3) 0.0189(12) 0.0224(13) 0.0002(9) -0.0038(13) 0.0155(13)
C5 0.0106(13) 0.0119(13) 0.0105(13) 0.0016(10) 0.0041(10) 0.0015(10)
N4 0.0384(16) 0.0234(14) 0.0189(13) 0.0029(10) 0.0062(11) 0.0130(12)
C6 0.0088(13) 0.0127(13) 0.0106(13) 0.0012(10) 0.0022(10) 0.0015(10)
C4 0.0125(14) 0.0129(13) 0.0116(13) 0.0032(10) 0.0027(10) 0.0022(10)
C7 0.0160(14) 0.0133(14) 0.0121(13) 0.0049(10) 0.0028(10) 0.0034(11)
C1 0.0099(13) 0.0125(13) 0.0147(13) 0.0017(10) 0.0037(10) 0.0014(10)
C3 0.0135(14) 0.0145(14) 0.0122(13) -0.0020(10) 0.0020(10) 0.0014(11)
C8 0.0166(14) 0.0095(13) 0.0155(14) 0.0029(10) 0.0029(11) 0.0023(11)
C2 0.0134(14) 0.0107(13) 0.0125(13) 0.0000(10) 0.0045(10) 0.0015(10)
C15 0.0199(15) 0.0124(14) 0.0180(15) -0.0009(10) 0.0036(11) -0.0016(11)
C14 0.0203(15) 0.0131(14) 0.0209(15) 0.0017(11) 0.0037(12) 0.0067(12)
C12 0.0217(16) 0.0153(14) 0.0177(15) 0.0019(10) 0.0051(11) 0.0002(12)
C11 0.0205(15) 0.0187(15) 0.0176(15) 0.0006(11) 0.0056(11) 0.0007(12)
C13 0.0281(17) 0.0173(15) 0.0187(15) 0.0011(11) 0.0056(12) 0.0026(12)
C9 0.0224(16) 0.0232(16) 0.0174(15) 0.0032(11) 0.0056(12) 0.0015(12)
C10 0.0214(15) 0.0195(15) 0.0159(15) 0.0007(11) 0.0041(11) -0.0003(12)
loop_
_atom_type_symbol
_atom_type_description
_atom_type_scat_dispersion_real
_atom_type_scat_dispersion_imag
_atom_type_scat_source
C C 0.0033 0.0016 'International Tables Vol C Tables 4.2.6.8 and 6.1.1.4'
H H 0.0000 0.0000 'International Tables Vol C Tables 4.2.6.8 and 6.1.1.4'
N N 0.0061 0.0033 'International Tables Vol C Tables 4.2.6.8 and 6.1.1.4'
O O 0.0106 0.0060 'International Tables Vol C Tables 4.2.6.8 and 6.1.1.4'
S S 0.1246 0.1234 'International Tables Vol C Tables 4.2.6.8 and 6.1.1.4'
loop_
_geom_angle_atom_site_label_1
_geom_angle_atom_site_label_2
_geom_angle_atom_site_label_3
_geom_angle
_geom_angle_site_symmetry_1
_geom_angle_site_symmetry_3
O4 S001 O6 112.09(12) . .
O4 S001 O5 112.27(12) . .
O6 S001 O5 112.51(11) . .
O4 S001 C4 105.87(11) . .
O6 S001 C4 106.00(11) . .
O5 S001 C4 107.57(11) . .
O2 S002 O1 113.67(12) . .
O2 S002 O3 112.45(12) . .
O1 S002 O3 112.66(12) . .
O2 S002 C2 106.63(12) . .
O1 S002 C2 106.05(11) . .
O3 S002 C2 104.53(11) . .
C9 N1 H1A 109.5 . .
C9 N1 H1B 109.5 . .
H1A N1 H1B 109.5 . .
C9 N1 H1C 109.5 . .
H1A N1 H1C 109.5 . .
H1B N1 H1C 109.5 . .
C15 N3 N2 122.0(2) . .
C15 N3 H3B 119.0 . .
N2 N3 H3B 119.0 . .
C14 N2 N3 118.5(2) . .
C14 N2 H2B 120.8 . .
N3 N2 H2B 120.8 . .
C15 N5 H5B 120.0 . .
C15 N5 H5C 120.0 . .
H5B N5 H5C 120.0 . .
H8D O8 H8C 112.1 . .
C4 C5 C7 124.0(2) . .
C4 C5 C6 117.4(2) . .
C7 C5 C6 118.6(2) . .
C15 N4 H4B 120.0 . .
C15 N4 H4C 120.0 . .
H4B N4 H4C 120.0 . .
C1 C6 C5 121.0(2) . .
C1 C6 C6 119.8(3) . 2_766
C5 C6 C6 119.2(3) . 2_766
C3 C4 C5 121.2(2) . .
C3 C4 S001 115.43(18) . .
C5 C4 S001 123.27(19) . .
C8 C7 C5 122.3(2) . .
C8 C7 H7A 118.8 . .
C5 C7 H7A 118.8 . .
C2 C1 C6 118.7(2) . .
C2 C1 C8 122.2(2) . 2_766
C6 C1 C8 119.1(2) . 2_766
C2 C3 C4 121.4(2) . .
C2 C3 H3C 119.3 . .
C4 C3 H3C 119.3 . .
C7 C8 C1 120.9(2) . 2_766
C7 C8 H8A 119.5 . .
C1 C8 H8A 119.5 2_766 .
C3 C2 C1 120.2(2) . .
C3 C2 S002 116.57(18) . .
C1 C2 S002 123.23(19) . .
N5 C15 N4 122.2(2) . .
N5 C15 N3 120.8(2) . .
N4 C15 N3 117.0(2) . .
O7 C14 N2 122.0(2) . .
O7 C14 C13 123.1(3) . .
N2 C14 C13 115.0(2) . .
C11 C12 C13 112.2(2) . .
C11 C12 H12A 109.2 . .
C13 C12 H12A 109.2 . .
C11 C12 H12B 109.2 . .
C13 C12 H12B 109.2 . .
H12A C12 H12B 107.9 . .
C10 C11 C12 112.9(2) . .
C10 C11 H11A 109.0 . .
C12 C11 H11A 109.0 . .
C10 C11 H11B 109.0 . .
C12 C11 H11B 109.0 . .
H11A C11 H11B 107.8 . .
C14 C13 C12 112.2(2) . .
C14 C13 H13A 109.2 . .
C12 C13 H13A 109.2 . .
C14 C13 H13B 109.2 . .
C12 C13 H13B 109.2 . .
H13A C13 H13B 107.9 . .
N1 C9 C10 111.2(2) . .
N1 C9 H9A 109.4 . .
C10 C9 H9A 109.4 . .
N1 C9 H9B 109.4 . .
C10 C9 H9B 109.4 . .
H9A C9 H9B 108.0 . .
C9 C10 C11 112.6(2) . .
C9 C10 H10A 109.1 . .
C11 C10 H10A 109.1 . .
C9 C10 H10B 109.1 . .
C11 C10 H10B 109.1 . .
H10A C10 H10B 107.8 . .
loop_
_geom_bond_atom_site_label_1
_geom_bond_atom_site_label_2
_geom_bond_distance
_geom_bond_site_symmetry_2
S001 O4 1.4496(19) .
S001 O6 1.4539(19) .
S001 O5 1.456(2) .
S001 C4 1.781(2) .
S002 O2 1.446(2) .
S002 O1 1.4524(19) .
S002 O3 1.4559(19) .
S002 C2 1.797(3) .
O7 C14 1.220(3) .
N1 C9 1.491(3) .
N1 H1A 0.8900 .
N1 H1B 0.8900 .
N1 H1C 0.8900 .
N3 C15 1.333(3) .
N3 N2 1.387(3) .
N3 H3B 0.8600 .
N2 C14 1.368(3) .
N2 H2B 0.8600 .
N5 C15 1.309(3) .
N5 H5B 0.8600 .
N5 H5C 0.8600 .
O8 H8D 0.8500 .
O8 H8C 0.8500 .
C5 C4 1.408(3) .
C5 C7 1.430(3) .
C5 C6 1.435(3) .
N4 C15 1.324(3) .
N4 H4B 0.8600 .
N4 H4C 0.8600 .
C6 C1 1.426(3) .
C6 C6 1.443(5) 2_766
C4 C3 1.388(4) .
C7 C8 1.349(3) .
C7 H7A 0.9300 .
C1 C2 1.408(3) .
C1 C8 1.435(3) 2_766
C3 C2 1.386(4) .
C3 H3C 0.9300 .
C8 C1 1.435(3) 2_766
C8 H8A 0.9300 .
C14 C13 1.496(4) .
C12 C11 1.521(4) .
C12 C13 1.527(4) .
C12 H12A 0.9700 .
C12 H12B 0.9700 .
C11 C10 1.520(4) .
C11 H11A 0.9700 .
C11 H11B 0.9700 .
C13 H13A 0.9700 .
C13 H13B 0.9700 .
C9 C10 1.512(4) .
C9 H9A 0.9700 .
C9 H9B 0.9700 .
C10 H10A 0.9700 .
C10 H10B 0.9700 .
