#------------------------------------------------------------------------------
#$Date: 2016-11-26 04:04:19 +0200 (Sat, 26 Nov 2016) $
#$Revision: 188678 $
#$URL: file:///home/coder/svn-repositories/cod/cif/1/54/46/1544662.cif $
#------------------------------------------------------------------------------
#
# This file is available in the Crystallography Open Database (COD),
# http://www.crystallography.net/. The original data for this entry
# were provided by IUCr Journals, http://journals.iucr.org/.
#
# The file may be used within the scientific community so long as
# proper attribution is given to the journal article from which the
# data were obtained.
#
data_1544662
loop_
_publ_author_name
'Mague, Joel T.'
'Mohamed, Shaaban K.'
'Akkurt, Mehmet'
'El-Emary, Talaat I.'
'Albayati, Mustafa R.'
_publ_section_title
;
 4-Amino-3-[2-(9<i>H</i>-carbazol-9-yl)ethyl]-1<i>H</i>-1,2,4-triazole-5(4<i>H</i>)-thione
 dimethyl sulfoxide monosolvate
;
_journal_coeditor_code           WM4033
_journal_issue                   11
_journal_name_full               IUCrData
_journal_page_first              x161855
_journal_paper_doi               10.1107/S2414314616018551
_journal_volume                  1
_journal_year                    2016
_chemical_formula_iupac          'C16 H15 N5 S, C2 H6 O S'
_chemical_formula_moiety         'C16 H15 N5 S, C2 H6 O S'
_chemical_formula_sum            'C18 H21 N5 O S2'
_chemical_formula_weight         387.52
_chemical_name_systematic
'4-Amino-3-[2-(9<i>H</i>-carbazol-9-yl)ethyl]-1<i>H</i>-1,2,4-triazole-5(4<i>H</i>)-thione dimethyl sulfoxide monosolvate'
_space_group_crystal_system      monoclinic
_space_group_IT_number           14
_space_group_name_Hall           '-P 2yn'
_space_group_name_H-M_alt        'P 1 21/n 1'
_symmetry_space_group_name_Hall  '-P 2yn'
_symmetry_space_group_name_H-M   'P 1 21/n 1'
_atom_sites_solution_hydrogens   mixed
_audit_creation_method           SHELXL-2014/7
_cell_angle_alpha                90
_cell_angle_beta                 106.9360(10)
_cell_angle_gamma                90
_cell_formula_units_Z            4
_cell_length_a                   14.7620(4)
_cell_length_b                   7.3509(2)
_cell_length_c                   17.9987(5)
_cell_measurement_reflns_used    9932
_cell_measurement_temperature    150(2)
_cell_measurement_theta_max      72.2760
_cell_measurement_theta_min      3.4210
_cell_volume                     1868.41(9)
_computing_cell_refinement
;
<i>SAINT</i> (Bruker, 2016)
;
_computing_data_collection
;
<i>APEX3</i> (Bruker, 2016)
;
_computing_data_reduction
;
<i>SAINT</i> (Bruker, 2016)
;
_computing_molecular_graphics
;
ORTEP-3 for Windows (Farrugia, 2012) and DIAMOND (Brandenburg & Putz,
2012)
;
_computing_publication_material
;
PLATON (Spek, 2009)
;
_computing_structure_refinement
;
<i>SHELXL2014</i> (Sheldrick, 2015<i>b</i>)
;
_computing_structure_solution
;
<i>SHELXT</i> (Sheldrick, 2015<i>a</i>)
;
_diffrn_ambient_temperature      150(2)
_diffrn_detector_area_resol_mean 10.4167
_diffrn_measured_fraction_theta_full 0.978
_diffrn_measured_fraction_theta_max 0.969
_diffrn_measurement_device_type  'Bruker D8 VENTURE PHOTON 100 CMOS'
_diffrn_measurement_method       '\w scans'
_diffrn_radiation_monochromator  mirror
_diffrn_radiation_type           CuK\a
_diffrn_radiation_wavelength     1.54178
_diffrn_reflns_av_R_equivalents  0.0273
_diffrn_reflns_limit_h_max       18
_diffrn_reflns_limit_h_min       -17
_diffrn_reflns_limit_k_max       9
_diffrn_reflns_limit_k_min       -9
_diffrn_reflns_limit_l_max       20
_diffrn_reflns_limit_l_min       -22
_diffrn_reflns_number            13596
_diffrn_reflns_theta_full        69.000
_diffrn_reflns_theta_max         72.205
_diffrn_reflns_theta_min         3.421
_exptl_absorpt_coefficient_mu    2.728
_exptl_absorpt_correction_T_max  0.67
_exptl_absorpt_correction_T_min  0.60
_exptl_absorpt_correction_type   multi-scan
_exptl_absorpt_process_details
;
(<i>SADABS</i>; Bruker, 2016)
;
_exptl_crystal_colour            colourless
_exptl_crystal_density_diffrn    1.378
_exptl_crystal_description       block
_exptl_crystal_F_000             816
_exptl_crystal_size_max          0.20
_exptl_crystal_size_mid          0.20
_exptl_crystal_size_min          0.16
_refine_diff_density_max         0.572
_refine_diff_density_min         -0.755
_refine_ls_extinction_method     none
_refine_ls_goodness_of_fit_ref   1.040
_refine_ls_hydrogen_treatment    constr
_refine_ls_matrix_type           full
_refine_ls_number_parameters     248
_refine_ls_number_reflns         3572
_refine_ls_number_restraints     6
_refine_ls_restrained_S_all      1.042
_refine_ls_R_factor_all          0.0476
_refine_ls_R_factor_gt           0.0455
_refine_ls_shift/su_max          0.000
_refine_ls_shift/su_mean         0.000
_refine_ls_structure_factor_coef Fsqd
_refine_ls_weighting_details
'w=1/[\s^2^(Fo^2^)+(0.0676P)^2^+1.6793P] where P=(Fo^2^+2Fc^2^)/3'
_refine_ls_weighting_scheme      calc
_refine_ls_wR_factor_gt          0.1236
_refine_ls_wR_factor_ref         0.1253
_reflns_number_gt                3350
_reflns_number_total             3572
_reflns_threshold_expression     'I > 2\s(I)'
_cod_data_source_file            wm4033sup1.cif
_cod_data_source_block           I
_cod_database_code               1544662
_shelx_space_group_comment
;
The symmetry employed for this shelxl refinement is uniquely defined
by the following loop, which should always be used as a source of
symmetry information in preference to the above space-group names.
They are only intended as comments.
;
_shelx_estimated_absorpt_t_min   0.611
_shelx_estimated_absorpt_t_max   0.669
_shelx_hkl_file
;
   1   0   0    0.04    0.01
  -1   0   0    0.05    0.01
  -3   0   0    0.11    0.02
  -4   0   0  163.29    5.52
  -5   0   0    0.15    0.04
  -6   0   0    1.47    0.10
  -6   0   0    1.59    0.09
  -7   0   0    0.00    0.05
  -7   0   0    0.05    0.06
  -9   0   0   -0.04    0.07
   9   0   0    0.05    0.08
 -10   0   0   11.12    0.47
  10   0   0   10.83    0.45
  10   0   0   10.29    0.46
  11   0   0   -0.11    0.11
  11   0   0    0.10    0.08
 -11   0   0    0.02    0.08
  12   0   0  266.67    9.10
 -12   0   0  274.73    9.13
  12   0   0  266.90    9.07
  13   0   0    0.00    0.07
  13   0   0    0.08    0.11
 -13   0   0    0.06    0.09
  14   0   0   56.67    1.93
 -14   0   0   51.83    1.98
  14   0   0   58.77    1.96
 -15   0   0    0.21    0.11
  16   0   0    6.79    0.29
 -16   0   0    6.55    0.35
  17   0   0    0.00    0.05
   0  -1   0    0.00    0.01
   0   1   0    0.01    0.01
  -1  -1   0   12.64    0.43
   1  -1   0   11.36    0.43
   1   1   0   12.54    0.43
  -1   1   0   13.08    0.43
  -2  -1   0   67.54    2.29
   2  -1   0   65.35    2.29
  -2   1   0   69.41    2.30
   3  -1   0  122.23    4.27
  -3  -1   0  125.49    4.28
  -3   1   0  129.09    4.24
   4  -1   0   81.58    2.82
  -4  -1   0   80.50    2.82
  -4   1   0   89.27    2.82
  -5  -1   0    1.89    0.10
   5  -1   0    1.96    0.10
  -5  -1   0    2.29    0.11
  -5   1   0    2.19    0.10
   6  -1   0    4.19    0.18
  -6  -1   0    4.17    0.19
  -6  -1   0    4.49    0.19
  -6   1   0    4.38    0.18
  -7  -1   0    6.19    0.26
  -7  -1   0    6.59    0.28
  -7  -1   0    6.08    0.29
  -7   1   0    6.02    0.26
  -8  -1   0   49.91    1.70
  -8  -1   0   49.25    1.73
  -8  -1   0   46.65    1.72
  -8   1   0   51.03    1.73
   9  -1   0   26.83    1.01
   9  -1   0   27.39    1.00
  -9  -1   0   27.81    1.02
  -9   1   0   28.00    1.01
   9   1   0   27.43    1.00
 -10  -1   0    0.11    0.08
  10  -1   0    0.12    0.08
  10  -1   0    0.13    0.11
 -10   1   0    0.02    0.08
  10   1   0    0.20    0.08
  10   1   0    0.06    0.12
 -11  -1   0    8.01    0.38
  11  -1   0    7.40    0.36
  11  -1   0    7.29    0.35
 -11   1   0    7.27    0.36
  11   1   0    7.15    0.36
  11   1   0    7.37    0.35
  12  -1   0   13.32    0.53
  12  -1   0   12.29    0.53
 -12  -1   0   12.96    0.56
  12   1   0   12.24    0.52
  12   1   0   12.88    0.53
 -12   1   0   13.18    0.55
  13  -1   0    0.01    0.07
  13  -1   0    0.04    0.10
 -13  -1   0    0.08    0.09
  13   1   0    0.17    0.07
  13   1   0    0.09    0.11
 -13   1   0    0.01    0.11
 -14  -1   0    4.15    0.27
  14  -1   0    4.42    0.25
  14  -1   0    4.31    0.25
  14   1   0    4.55    0.24
 -15  -1   0    1.41    0.17
  15  -1   0    1.09    0.16
  15  -1   0    1.29    0.14
  15   1   0    1.44    0.14
  16  -1   0    0.10    0.05
 -16  -1   0    0.00    0.09
  16   1   0    0.02    0.05
  17  -1   0    0.81    0.10
  17   1   0    0.75    0.09
   0  -2   0   23.97    0.84
   0   2   0   24.83    0.85
   1  -2   0   58.65    2.00
  -1  -2   0   57.70    2.00
   1   2   0   60.78    2.01
  -1   2   0   59.24    2.00
  -2  -2   0  133.60    4.72
   2  -2   0  131.01    4.68
  -2   2   0  142.05    4.68
   2   2   0  148.53    4.74
  -3  -2   0    0.51    0.06
   3  -2   0    0.57    0.05
  -3   2   0    0.54    0.05
   3   2   0    0.59    0.06
   4  -2   0    2.27    0.11
  -4  -2   0    2.13    0.11
  -4   2   0    2.15    0.11
   4   2   0    2.17    0.12
  -5  -2   0   41.82    1.47
  -5  -2   0   41.90    1.45
   5  -2   0   42.61    1.45
  -5   2   0   42.09    1.45
  -6  -2   0    0.33    0.09
  -6  -2   0    0.38    0.10
  -6   2   0    0.50    0.08
  -7  -2   0    0.30    0.12
  -7  -2   0    0.12    0.06
   7  -2   0    0.25    0.08
  -7  -2   0    0.32    0.12
  -7   2   0    0.15    0.08
   8  -2   0    5.44    0.29
  -8  -2   0    5.06    0.29
  -8  -2   0    5.51    0.27
   8   2   0    4.95    0.28
   9  -2   0    2.67    0.21
  -9  -2   0    2.71    0.19
   9   2   0    2.80    0.21
  -9   2   0    2.99    0.23
   9   2   0    2.28    0.25
  10  -2   0   24.83    0.92
 -10  -2   0   25.58    0.96
  10   2   0   24.32    0.92
  10   2   0   25.15    0.92
 -10   2   0   24.97    0.92
  11  -2   0    1.38    0.18
 -11  -2   0    1.53    0.16
  11  -2   0    1.04    0.17
  11   2   0    1.50    0.17
 -11   2   0    1.44    0.21
  11   2   0    1.30    0.21
  12  -2   0    1.50    0.19
  12  -2   0    1.63    0.18
 -12  -2   0    1.41    0.17
  12   2   0    1.49    0.21
  12   2   0    1.64    0.17
  13  -2   0   -0.09    0.09
 -13  -2   0    0.00    0.08
  13  -2   0    0.03    0.07
  13   2   0   -0.01    0.07
  14  -2   0   16.70    0.64
  14  -2   0   16.61    0.65
 -14  -2   0   15.95    0.68
  14   2   0   17.52    0.65
 -15  -2   0    0.55    0.14
  15  -2   0    0.51    0.12
  15  -2   0    0.46    0.14
  15   2   0    0.42    0.10
 -16  -2   0    7.16    0.33
  16  -2   0    6.72    0.29
  16   2   0    6.73    0.29
   0  -3   0    0.11    0.04
   0   3   0   -0.01    0.05
   1  -3   0   43.38    1.49
  -1  -3   0   43.12    1.49
  -1   3   0   44.45    1.49
   1   3   0   41.06    1.49
   2  -3   0   10.20    0.38
  -2  -3   0    9.16    0.38
   2   3   0    9.90    0.39
  -2   3   0   10.33    0.38
  -3  -3   0   38.42    1.30
   3  -3   0   36.23    1.29
   3   3   0   36.09    1.30
  -3   3   0   37.44    1.29
  -4  -3   0   45.26    1.56
   4  -3   0   46.70    1.56
  -4  -3   0   45.41    1.56
   4   3   0   42.66    1.57
  -4   3   0   43.56    1.55
   5  -3   0    2.46    0.16
  -5  -3   0    2.24    0.16
  -5  -3   0    2.16    0.16
  -5   3   0    2.16    0.17
  -6  -3   0    6.01    0.28
   6  -3   0    5.48    0.29
  -6  -3   0    5.77    0.29
  -6   3   0    5.35    0.30
  -7  -3   0    0.15    0.07
   7  -3   0    0.57    0.21
  -7  -3   0    0.21    0.13
  -7   3   0    0.21    0.10
   7   3   0    0.06    0.09
  -7   3   0    0.09    0.11
  -8  -3   0   15.66    0.59
   8  -3   0   14.50    0.58
   8   3   0   14.02    0.58
  -8   3   0   14.05    0.57
   8   3   0   14.76    0.58
  -9  -3   0   48.99    1.73
   9  -3   0   48.97    1.71
   9   3   0   46.56    1.69
   9   3   0   49.09    1.70
  -9   3   0   48.06    1.70
  10  -3   0   12.17    0.51
 -10  -3   0   11.72    0.52
  10   3   0   11.62    0.50
  10   3   0   12.07    0.50
 -10   3   0   13.14    0.50
  11  -3   0    0.70    0.16
 -11  -3   0    0.50    0.13
  11  -3   0    0.29    0.10
 -11   3   0    0.20    0.10
  11   3   0    0.46    0.15
  12  -3   0    3.89    0.24
 -12  -3   0    3.28    0.24
  12  -3   0    3.92    0.25
  12   3   0    3.72    0.23
 -12   3   0    3.53    0.24
 -13  -3   0    0.04    0.08
  13  -3   0   -0.02    0.09
  13  -3   0    0.12    0.08
 -13   3   0    0.18    0.11
  13   3   0    0.08    0.07
  14  -3   0    9.51    0.40
 -14  -3   0    9.07    0.42
  14  -3   0    9.76    0.40
  14   3   0    9.37    0.39
  15  -3   0    4.84    0.23
 -15  -3   0    4.90    0.26
  15  -3   0    4.63    0.23
  15   3   0    4.70    0.22
  16  -3   0    2.00    0.14
  16   3   0    2.13    0.13
   0  -4   0    7.11    0.32
  -1  -4   0    0.30    0.11
   1  -4   0    0.35    0.12
   2  -4   0   10.54    0.43
  -2  -4   0    9.69    0.42
  -3  -4   0    0.08    0.09
   3  -4   0    0.10    0.11
   4  -4   0   40.36    1.43
  -4  -4   0   41.70    1.40
  -4   4   0   37.42    1.40
  -4   4   0   39.14    1.39
   5  -4   0    4.38    0.33
  -5  -4   0    5.25    0.26
  -5   4   0    4.60    0.31
  -5   4   0    4.86    0.26
  -5   4   0    4.65    0.26
   5   4   0    4.77    0.28
  -6  -4   0   13.68    0.54
   6   4   0   12.65    0.53
  -6   4   0   13.74    0.53
   6   4   0   12.14    0.53
   6   4   0   13.91    0.54
  -6   4   0   12.89    0.56
  -6   4   0   13.60    0.52
  -7  -4   0    1.08    0.14
   7   4   0    0.76    0.21
  -7   4   0    0.54    0.15
   7   4   0    0.91    0.18
  -7   4   0    0.89    0.18
  -7   4   0    0.59    0.21
   8  -4   0   13.66    0.55
  -8  -4   0   13.48    0.55
  -8   4   0   13.98    0.58
   8   4   0   12.71    0.53
   8   4   0   13.06    0.54
  -8   4   0   12.92    0.53
   9  -4   0    0.41    0.11
  -9  -4   0    0.44    0.14
  -9   4   0    0.28    0.10
   9   4   0    0.37    0.09
   9   4   0    0.75    0.21
  10  -4   0    1.23    0.16
 -10  -4   0    1.22    0.17
  10   4   0    1.46    0.17
 -10   4   0    1.61    0.16
  11  -4   0    0.32    0.10
 -11  -4   0    0.43    0.14
  11  -4   0    0.34    0.10
 -11   4   0    0.51    0.13
  11   4   0    0.40    0.14
  12  -4   0    0.14    0.09
 -12  -4   0    0.02    0.08
  12  -4   0    0.04    0.08
 -12   4   0    0.07    0.08
  12   4   0    0.04    0.07
  13  -4   0    1.88    0.17
 -13  -4   0    1.93    0.17
  13  -4   0    1.93    0.17
  13   4   0    2.05    0.16
 -13   4   0    1.95    0.16
  14  -4   0    3.09    0.19
 -14  -4   0    3.07    0.21
  14  -4   0    2.99    0.18
  14   4   0    2.99    0.18
 -14   4   0    3.32    0.20
  15  -4   0    0.07    0.07
 -15  -4   0    0.02    0.10
  15  -4   0    0.18    0.07
  15   4   0   -0.07    0.05
   0   5   0   -0.18    0.10
   0   5   0    0.10    0.12
   0   5   0   -0.08    0.14
   0   5   0   -0.02    0.07
   1   5   0    0.50    0.13
   1   5   0    0.76    0.12
  -1   5   0    0.65    0.19
  -1   5   0    0.69    0.12
   1   5   0    0.50    0.16
  -1   5   0    1.10    0.24
  -1   5   0    0.60    0.13
  -2   5   0    7.51    0.34
  -2   5   0    7.26    0.33
  -2   5   0    7.05    0.40
   2   5   0    7.21    0.37
   2   5   0    7.74    0.35
   2   5   0    7.82    0.33
  -2   5   0    7.51    0.35
  -3   5   0    0.57    0.16
  -3   5   0    0.74    0.15
  -3   5   0    0.75    0.13
   3   5   0    0.59    0.12
   3   5   0    0.53    0.17
  -3   5   0    0.88    0.15
   3   5   0    0.58    0.13
   4   5   0   17.89    0.70
  -4   5   0   18.34    0.70
  -4   5   0   17.94    0.73
  -4   5   0   19.64    0.70
   4   5   0   17.39    0.71
   4   5   0   19.53    0.69
  -5   5   0   33.61    1.23
   5   5   0   33.11    1.19
   5   5   0   32.94    1.20
   5   5   0   33.14    1.19
  -5   5   0   32.86    1.20
  -5   5   0   35.24    1.20
  -6  -5   0   40.35    1.40
  -6   5   0   39.45    1.41
  -6   5   0   40.58    1.39
   6   5   0   39.34    1.38
   6   5   0   42.20    1.38
  -6   5   0   32.38    1.37
  -7  -5   0   39.28    1.40
   7   5   0   37.90    1.37
  -7   5   0   39.55    1.38
  -7   5   0   38.57    1.37
   7   5   0   38.44    1.38
  -7   5   0   38.93    1.40
  -8  -5   0   16.22    0.61
   8  -5   0   13.82    0.59
  -8   5   0   14.39    0.58
   8   5   0   14.50    0.58
  -8   5   0   14.67    0.58
   8   5   0   14.52    0.58
   9  -5   0    8.05    0.37
  -9  -5   0    7.42    0.37
  -9   5   0    7.46    0.35
   9   5   0    7.67    0.35
 -10  -5   0   -0.02    0.09
  10  -5   0    0.04    0.08
  10   5   0   -0.06    0.07
 -10   5   0   -0.09    0.07
  11  -5   0    0.18    0.08
 -11  -5   0    0.42    0.16
  11  -5   0    0.27    0.10
  11   5   0    0.20    0.08
 -11   5   0    0.21    0.07
 -12  -5   0    8.60    0.39
  12  -5   0    8.17    0.37
  12  -5   0    8.76    0.37
  12   5   0    8.70    0.36
 -12   5   0    8.41    0.35
  13  -5   0    1.21    0.12
 -13  -5   0    1.07    0.17
  13  -5   0    0.79    0.15
 -13   5   0    1.02    0.11
  13   5   0    1.21    0.13
  14  -5   0   12.00    0.44
  14   5   0   12.02    0.44
 -14   5   0   11.28    0.43
   0   6   0    5.89    0.33
   0   6   0    5.86    0.30
   0   6   0    6.22    0.29
   1   6   0    0.05    0.07
  -1   6   0    0.12    0.09
  -1   6   0    0.07    0.12
  -1   6   0    0.03    0.12
  -1   6   0    0.02    0.06
   1   6   0    0.18    0.10
  -2   6   0   20.34    0.73
  -2   6   0   18.77    0.73
   2   6   0   19.16    0.75
   2   6   0   20.08    0.73
  -2   6   0   19.24    0.74
   2   6   0   19.29    0.73
  -2   6   0   18.53    0.75
  -3   6   0   31.32    1.13
  -3   6   0   30.20    1.11
   3   6   0   30.94    1.10
   3   6   0   30.77    1.11
  -3   6   0   30.79    1.11
   3   6   0   30.38    1.12
  -4   6   0   14.50    0.60
  -4   6   0   14.20    0.56
   4   6   0   13.57    0.56
  -4   6   0   14.24    0.56
   4   6   0   14.80    0.56
   4   6   0   14.19    0.57
  -5   6   0   49.17    1.74
   5   6   0   51.22    1.74
  -5   6   0   47.42    1.75
  -5   6   0   49.82    1.73
   5   6   0   48.79    1.73
   5   6   0   50.55    1.73
   6   6   0    0.69    0.17
   6   6   0    0.58    0.10
  -6   6   0    0.42    0.12
  -6   6   0    0.45    0.12
  -6   6   0    0.55    0.13
   6   6   0    0.84    0.17
   7  -6   0    5.10    0.27
  -7   6   0    4.57    0.26
   7   6   0    5.28    0.27
   7   6   0    4.33    0.28
  -7   6   0    5.50    0.26
   8  -6   0   12.28    0.50
  -8   6   0   11.62    0.48
   8   6   0   11.56    0.48
  -8   6   0   11.87    0.48
   9  -6   0    7.09    0.33
   9   6   0    6.96    0.33
  -9   6   0    7.64    0.43
  -9   6   0    7.27    0.32
  10  -6   0    4.11    0.23
 -10   6   0    4.30    0.22
  10   6   0    4.42    0.23
  11  -6   0   23.89    0.87
  11   6   0   24.21    0.86
 -11   6   0   23.38    0.85
  12  -6   0    2.75    0.16
  12   6   0    2.82    0.17
 -12   6   0    2.75    0.15
  13  -6   0    2.35    0.13
 -13   6   0    2.33    0.13
   0   7   0    0.12    0.12
   0   7   0    0.01    0.08
   0   7   0   -0.02    0.06
   1   7   0   19.64    0.72
  -1   7   0   20.54    0.73
  -1   7   0   18.22    0.76
  -1   7   0   17.90    0.71
   1   7   0   18.77    0.74
   1   7   0   19.70    0.72
   2   7   0   11.59    0.46
  -2   7   0   11.44    0.45
   2   7   0   10.98    0.45
   2   7   0   10.60    0.48
   3   7   0    2.13    0.18
   3   7   0    2.19    0.22
  -3   7   0    2.35    0.18
   3   7   0    2.33    0.16
  -3   7   0    1.92    0.15
  -4   7   0    0.15    0.08
  -4   7   0    0.40    0.11
   4   7   0    0.23    0.11
   4   7   0    0.09    0.07
   4   7   0    0.41    0.10
   5   7   0    8.15    0.38
   5   7   0    8.10    0.37
  -5   7   0    8.74    0.36
  -5   7   0    8.55    0.35
   5   7   0    7.86    0.35
   6  -7   0    1.72    0.15
  -6   7   0    1.84    0.14
  -6   7   0    1.91    0.15
   6   7   0    1.68    0.20
   7  -7   0    0.07    0.07
  -7   7   0   -0.04    0.06
  -7   7   0    0.16    0.06
   7   7   0   -0.14    0.10
   8  -7   0    1.85    0.14
  -8   7   0    1.94    0.13
  -8   7   0    1.75    0.14
   8   7   0    1.29    0.19
   9  -7   0    8.65    0.35
  -9   7   0    8.03    0.33
  10  -7   0    8.38    0.33
 -10   7   0    8.31    0.32
  11  -7   0    6.28    0.25
 -11   7   0    6.19    0.24
   0   8   0    0.55    0.09
  -1   8   0    0.10    0.05
   1   8   0    0.03    0.05
   2   8   0    0.28    0.08
  -2   8   0    0.32    0.09
  -3   8   0   14.76    0.56
   3   8   0   15.47    0.56
   4  -8   0   15.43    0.58
  -4   8   0   15.43    0.56
   4   8   0   15.47    0.57
  -4   8   0   14.98    0.57
   5  -8   0    9.42    0.38
   5   8   0    9.24    0.37
  -5   8   0    9.74    0.37
  -5   8   0   10.03    0.38
   6  -8   0    0.42    0.09
  -6   8   0    0.54    0.09
  -6   8   0    0.63    0.09
  -7   8   0    0.30    0.08
  -7   8   0    0.29    0.09
   8  -8   0   12.29    0.46
  -8   8   0   12.63    0.45
   0   9   0    0.03    0.04
  -1   9   0    4.27    0.18
   1   9   0    4.11    0.18
   2   9   0    0.13    0.04
  -2   9   0    0.14    0.04
  17   0  -1    5.16    0.23
 -16   0   1    0.17    0.12
  15   0  -1    1.82    0.15
  15   0  -1    1.57    0.17
 -15   0   1    1.80    0.19
 -14   0   1    0.16    0.10
  14   0  -1    0.01    0.07
  14   0  -1    0.23    0.10
  13   0  -1   16.26    0.64
 -13   0   1   15.27    0.67
  13   0  -1   17.22    0.63
 -12   0   1    0.09    0.08
  12   0  -1    0.00    0.09
  12   0  -1    0.06    0.08
  11   0  -1    2.35    0.19
  11   0  -1    2.38    0.21
 -11   0   1    2.45    0.20
 -10   0   1    0.08    0.08
  10   0  -1    0.07    0.08
  10   0  -1    0.24    0.12
  -8   0   1    0.03    0.07
  -8   0   1   -0.10    0.09
  -7   0   1   54.28    1.86
  -6   0   1    0.15    0.05
  -5   0   1   10.38    0.38
  -4   0   1    0.03    0.02
   3   0  -1  287.20   10.22
  -3   0   1  318.71   10.24
   2   0  -1    0.06    0.02
  -2   0   1    0.03    0.01
   1   0  -1    8.59    0.31
  -1   0   1    9.34    0.31
   0   0  -1    0.06    0.01
  -1   0  -1    0.00    0.00
  -2   0  -1    0.03    0.01
  -2   0  -1    0.01    0.01
  -3   0  -1  131.67    4.45
  -4   0  -1    0.10    0.03
  -4   0  -1    0.11    0.03
  -5   0  -1    1.24    0.07
  -5   0  -1    1.35    0.07
  -6   0  -1    0.34    0.10
  -6   0  -1    0.06    0.03
  -7   0  -1    4.75    0.20
  -8   0  -1    0.17    0.08
   9   0   1    0.15    0.08
  -9   0  -1    0.23    0.08
  10   0   1    0.00    0.08
  10   0   1    0.08    0.13
 -10   0  -1    0.03    0.07
  11   0   1   49.79    1.76
 -11   0  -1   51.52    1.81
  11   0   1   50.03    1.78
  12   0   1   -0.03    0.11
 -12   0  -1    0.04    0.09
  12   0   1    0.06    0.08
 -13   0  -1    0.05    0.09
  13   0   1    0.16    0.12
  13   0   1    0.14    0.08
  14   0   1    0.01    0.06
 -14   0  -1    0.03    0.10
  15   0   1    0.52    0.11
 -15   0  -1    0.42    0.17
  16   0   1    0.03    0.05
  17   0   1    4.30    0.19
  17  -1  -1    2.35    0.15
  17   1  -1    2.86    0.15
 -16  -1   1    0.51    0.15
  16  -1  -1    0.24    0.09
  16  -1  -1    0.53    0.11
  16   1  -1    0.35    0.09
 -15  -1   1    3.28    0.23
  15  -1  -1    2.89    0.21
  15  -1  -1    3.58    0.21
  15   1  -1    3.75    0.22
  15   1  -1    3.29    0.20
  14  -1  -1    0.51    0.14
  14  -1  -1    0.20    0.08
 -14  -1   1    0.29    0.10
 -14   1   1    0.14    0.11
  14   1  -1    0.38    0.11
  14   1  -1    0.15    0.07
 -13  -1   1   43.93    1.67
  13  -1  -1   46.60    1.65
  13  -1  -1   46.99    1.63
 -13   1   1   45.04    1.66
  13   1  -1   46.49    1.64
  13   1  -1   48.06    1.62
 -12  -1   1    2.42    0.20
  12  -1  -1    2.16    0.20
  12  -1  -1    2.32    0.20
  12   1  -1    2.06    0.20
 -12   1   1    2.20    0.21
  12   1  -1    2.16    0.19
 -11  -1   1    5.58    0.31
  11  -1  -1    5.56    0.31
  11  -1  -1    5.89    0.30
 -11   1   1    5.92    0.32
  11   1  -1    5.38    0.30
  11   1  -1    6.03    0.30
  10  -1  -1    7.20    0.35
  10  -1  -1    7.87    0.36
 -10  -1   1    7.14    0.36
  10   1  -1    7.30    0.35
  10   1  -1    7.47    0.35
 -10   1   1    7.54    0.36
  -9  -1   1    0.37    0.11
  -9  -1   1    0.57    0.18
   9  -1  -1    0.43    0.11
   9  -1  -1    0.62    0.18
   9   1  -1    0.40    0.10
  -8  -1   1    3.47    0.20
  -8  -1   1    3.61    0.24
  -8   1   1    3.80    0.22
  -7  -1   1   83.32    2.84
  -7  -1   1   80.53    2.83
   7  -1  -1   85.28    2.83
  -7   1   1   83.39    2.83
  -6  -1   1   10.31    0.39
   6  -1  -1   10.10    0.39
  -6  -1   1   10.60    0.40
  -6   1   1   10.55    0.39
  -5  -1   1  137.76    4.66
  -5  -1   1  140.35    4.70
   5  -1  -1  136.19    4.66
  -5   1   1  139.15    4.65
  -4  -1   1   74.98    2.58
   4  -1  -1   74.62    2.58
  -4   1   1   79.75    2.58
   3  -1  -1  291.24    9.88
  -3  -1   1  277.90    9.87
  -3   1   1  307.04    9.87
   2  -1  -1   79.33    3.01
  -2  -1   1   87.96    3.06
   2   1  -1   93.70    3.07
  -2   1   1   97.17    3.05
  -1  -1   1  221.50    7.48
   1  -1  -1  214.74    7.48
  -1   1   1  223.75    7.49
   1   1  -1  225.86    7.50
   0  -1   1    1.02    0.05
   0  -1  -1    1.07    0.05
   0   1   1    1.06    0.05
   0   1  -1    0.92    0.05
  -1  -1  -1   29.48    1.01
   1  -1   1   27.62    1.00
  -1   1  -1   30.41    1.00
   1   1   1   31.11    1.01
   2  -1   1   15.69    0.56
  -2  -1  -1   16.73    0.57
   2   1   1   16.53    0.57
  -2   1  -1   16.85    0.56
  -3  -1  -1  117.96    4.09
   3  -1   1  116.06    4.07
  -3   1  -1  126.56    4.07
   3   1   1  121.09    4.08
   4  -1   1   80.07    2.75
  -4  -1  -1   78.33    2.75
  -4   1  -1   86.25    2.74
  -5  -1  -1    3.77    0.21
  -5  -1  -1    4.08    0.17
   5  -1   1    4.23    0.17
  -5  -1  -1    4.39    0.18
  -5   1  -1    4.29    0.16
  -6  -1  -1   99.90    3.48
  -6  -1  -1  104.88    3.49
  -6  -1  -1  104.30    3.52
  -6   1  -1  104.04    3.48
  -7  -1  -1    0.82    0.12
  -7  -1  -1    0.75    0.09
  -7   1  -1    0.72    0.13
  -8  -1  -1  114.04    3.85
  -8   1  -1  110.69    3.83
  -9  -1  -1   38.60    1.41
   9  -1   1   39.11    1.39
  -9   1  -1   40.46    1.40
   9   1   1   38.00    1.39
  10  -1   1   67.85    2.39
 -10  -1  -1   69.18    2.43
  10  -1   1   71.28    2.41
 -10   1  -1   72.20    2.42
  10   1   1   70.01    2.41
  10   1   1   65.27    2.39
 -11  -1  -1   19.44    0.79
  11  -1   1   19.08    0.76
  11   1   1   20.49    0.76
  11   1   1   20.11    0.76
 -11   1  -1   20.13    0.78
  12  -1   1    4.56    0.27
  12  -1   1    4.10    0.26
 -12  -1  -1    4.61    0.28
 -12   1  -1    3.98    0.27
  12   1   1    4.35    0.25
  13  -1   1   33.98    1.23
 -13  -1  -1   30.80    1.24
  13  -1   1   33.66    1.20
  13   1   1   35.97    1.23
 -14  -1  -1    5.80    0.32
  14  -1   1    6.48    0.31
  14  -1   1    5.75    0.30
  14   1   1    6.27    0.30
 -15  -1  -1    4.40    0.27
  15  -1   1    4.75    0.24
  15   1   1    4.92    0.24
 -16  -1  -1    4.05    0.26
  16  -1   1    3.95    0.20
  16   1   1    4.13    0.20
  17  -1   1    3.11    0.16
  17   1   1    3.22    0.16
  17   2  -1    4.11    0.19
  16  -2  -1    1.78    0.14
 -16  -2   1    1.78    0.17
  16  -2  -1    1.40    0.14
  16   2  -1    1.77    0.13
  15  -2  -1    3.66    0.21
  15  -2  -1    3.66    0.21
 -15  -2   1    3.89    0.24
  15   2  -1    3.50    0.20
  14  -2  -1    0.06    0.07
  14  -2  -1    0.12    0.09
 -14  -2   1    0.30    0.12
  14   2  -1    0.23    0.12
  14   2  -1    0.07    0.07
 -13  -2   1    0.04    0.08
  13  -2  -1    0.07    0.08
  13  -2  -1   -0.14    0.09
  13   2  -1   -0.01    0.11
  13   2  -1    0.10    0.07
 -12  -2   1   14.26    0.59
  12  -2  -1   13.17    0.56
  12  -2  -1   13.84    0.55
  12   2  -1   13.32    0.54
  12   2  -1   12.75    0.54
 -11  -2   1   11.51    0.51
  11  -2  -1   11.70    0.49
  11  -2  -1   11.64    0.50
 -11   2   1   11.51    0.49
  11   2  -1   12.00    0.49
  11   2  -1   11.25    0.48
 -10  -2   1    2.31    0.19
  10  -2  -1    2.52    0.20
  10  -2  -1    2.28    0.21
 -10   2   1    2.24    0.23
  10   2  -1    2.18    0.22
  10   2  -1    2.47    0.19
  -9  -2   1    2.73    0.19
   9  -2  -1    2.59    0.20
  -9   2   1    2.45    0.24
   9   2  -1    2.51    0.20
   9   2  -1    2.75    0.22
   8  -2  -1    3.45    0.23
  -8  -2   1    3.53    0.24
   8  -2  -1    3.51    0.24
  -8  -2   1    3.46    0.21
   8   2  -1    3.44    0.23
  -7  -2   1   23.09    0.82
  -7  -2   1   22.22    0.80
   7  -2  -1   22.02    0.80
  -7   2   1   20.82    0.80
   6  -2  -1   33.20    1.14
  -6  -2   1   32.96    1.14
  -6  -2   1   31.69    1.16
  -6   2   1   31.86    1.13
   5  -2  -1    3.99    0.18
  -5  -2   1    3.82    0.18
  -5   2   1    4.06    0.18
  -4  -2   1  219.18    7.58
   4  -2  -1  225.55    7.55
  -4   2   1  226.81    7.59
   3  -2  -1  103.24    3.71
  -3  -2   1  109.20    3.71
   3   2  -1  110.48    3.71
  -3   2   1  116.71    3.71
   2  -2  -1   25.37    0.90
  -2  -2   1   25.55    0.90
  -2   2   1   26.61    0.90
   2   2  -1   26.56    0.91
   1  -2  -1   39.37    1.34
  -1  -2   1   37.54    1.34
  -1   2   1   41.53    1.35
   1   2  -1   38.87    1.35
   0  -2  -1   49.88    1.77
   0  -2   1   53.19    1.77
   0   2  -1   52.94    1.77
   0   2   1   52.49    1.77
   1  -2   1   16.93    0.59
  -1  -2  -1   16.23    0.59
   1   2   1   16.40    0.59
  -1   2  -1   16.96    0.58
  -2  -2  -1    9.20    0.33
   2  -2   1    9.19    0.33
  -2   2  -1    8.73    0.33
   2   2   1    8.62    0.33
  -3  -2  -1  135.30    4.52
   3  -2   1  129.00    4.49
  -3   2  -1  138.23    4.47
   3   2   1  128.61    4.47
  -4  -2  -1   23.69    0.83
   4  -2   1   24.50    0.83
   4   2   1   22.59    0.83
  -4   2  -1   23.78    0.82
  -5  -2  -1   25.32    0.91
  -5  -2  -1   24.08    0.89
   5  -2   1   25.47    0.88
  -5   2  -1   26.12    0.88
  -6  -2  -1   39.83    1.37
  -6  -2  -1   39.77    1.39
   6  -2   1   39.02    1.36
  -6   2  -1   39.14    1.36
   7  -2   1    5.81    0.26
  -7  -2  -1    5.70    0.27
  -7  -2  -1    6.07    0.28
  -7  -2  -1    5.07    0.30
   8  -2   1    4.27    0.27
  -8  -2  -1    4.75    0.26
  -8   2  -1    4.92    0.27
   8   2   1    4.86    0.26
   9  -2   1   17.16    0.68
  -9  -2  -1   18.17    0.70
  -9   2  -1   17.55    0.68
   9   2   1   17.90    0.68
  10  -2   1   15.13    0.59
 -10  -2  -1   15.59    0.62
  10   2   1   14.64    0.59
 -10   2  -1   14.14    0.59
  11  -2   1    6.73    0.34
  11  -2   1    6.78    0.33
 -11  -2  -1    6.92    0.35
  11   2   1    6.62    0.33
 -11   2  -1    6.81    0.33
  12  -2   1   10.39    0.46
  12  -2   1   10.55    0.44
 -12  -2  -1    9.84    0.47
 -12   2  -1   10.17    0.45
  12   2   1   10.22    0.44
 -13  -2  -1    0.18    0.09
  13  -2   1   -0.02    0.07
  13  -2   1    0.17    0.10
  13   2   1   -0.04    0.06
  14  -2   1    4.85    0.26
 -14  -2  -1    5.09    0.29
  14  -2   1    5.24    0.27
  14   2   1    5.18    0.26
 -15  -2  -1    0.88    0.14
  15  -2   1    0.70    0.11
  15  -2   1    0.40    0.11
  15   2   1    0.71    0.11
  16  -2   1    0.89    0.10
 -16  -2  -1    0.63    0.15
  16   2   1    0.66    0.09
  16  -3  -1    2.14    0.16
 -16  -3   1    2.35    0.18
  16  -3  -1    1.97    0.15
  16   3  -1    2.45    0.14
 -15  -3   1    0.08    0.08
  15  -3  -1    0.08    0.07
  15  -3  -1    0.07    0.07
  15   3  -1    0.13    0.06
  14  -3  -1    0.27    0.08
 -14  -3   1    0.05    0.08
  14  -3  -1    0.22    0.08
  14   3  -1    0.19    0.07
 -13  -3   1    8.40    0.42
  13  -3  -1    9.49    0.40
  13  -3  -1    9.22    0.41
 -13   3   1    9.51    0.40
  13   3  -1    8.85    0.40
  12  -3  -1    1.35    0.19
 -12  -3   1    1.05    0.16
  12  -3  -1    1.29    0.17
  12   3  -1    1.35    0.20
  12   3  -1    1.37    0.16
 -12   3   1    1.43    0.19
  11  -3  -1    6.06    0.32
  11  -3  -1    6.21    0.34
 -11  -3   1    6.83    0.34
  11   3  -1    6.34    0.31
 -11   3   1    6.45    0.32
  11   3  -1    6.08    0.32
  10  -3  -1    8.68    0.39
 -10  -3   1    9.04    0.41
 -10   3   1    8.57    0.39
  10   3  -1    8.94    0.39
  10   3  -1    8.51    0.39
   9  -3  -1    3.19    0.22
  -9  -3   1    3.47    0.22
   9   3  -1    3.11    0.23
   9   3  -1    3.31    0.22
  -9   3   1    3.00    0.22
   8  -3  -1   24.86    0.90
  -8  -3   1   24.78    0.91
  -8   3   1   24.05    0.89
   8   3  -1   23.22    0.88
   8   3  -1   23.54    0.89
   7  -3  -1   13.61    0.57
  -7  -3   1   15.23    0.56
   7  -3  -1   12.77    0.54
   7   3  -1   13.32    0.54
  -7   3   1   13.56    0.54
  -6  -3   1   14.07    0.55
   6  -3  -1   13.59    0.56
  -6  -3   1   14.27    0.55
  -5  -3   1  151.03    5.17
   5  -3  -1  155.02    5.17
  -5  -3   1  147.96    5.16
  -5   3   1  156.17    5.17
   4  -3  -1   26.05    0.91
  -4  -3   1   26.27    0.90
  -4  -3   1   24.48    0.90
   4   3  -1   23.70    0.91
  -4   3   1   25.19    0.90
  -3  -3   1    0.07    0.05
   3  -3  -1    0.13    0.06
  -3   3   1    0.14    0.06
   3   3  -1    0.20    0.08
   2  -3  -1   23.81    0.86
  -2  -3   1   23.86    0.86
  -2   3   1   25.71    0.86
   2   3  -1   23.06    0.86
  -1  -3   1    2.31    0.13
   1   3  -1    2.73    0.15
  -1   3   1    2.56    0.14
   0  -3  -1   80.08    3.10
   0  -3   1   94.93    3.10
   0   3  -1   94.82    3.10
   0   3   1   95.60    3.11
   1  -3   1    0.21    0.06
  -1  -3  -1    0.24    0.06
  -1   3  -1    0.26    0.08
   1   3   1    0.22    0.08
   2  -3   1   24.71    0.85
  -2  -3  -1   24.73    0.85
  -2   3  -1   23.61    0.84
   2   3   1   21.90    0.85
   3  -3   1    9.90    0.39
  -3  -3  -1   10.60    0.39
  -3   3  -1    9.63    0.39
   3   3   1    9.68    0.40
  -4  -3  -1    0.56    0.11
   4  -3   1    0.61    0.09
  -4  -3  -1    0.39    0.09
  -4   3  -1    0.62    0.11
   4   3   1    0.56    0.14
   5  -3   1   11.03    0.43
  -5  -3  -1   10.96    0.44
  -5  -3  -1   10.37    0.44
  -5   3  -1   10.92    0.44
  -6  -3  -1   20.49    0.75
   6  -3   1   20.18    0.74
  -6  -3  -1   20.45    0.75
  -6   3  -1   17.65    0.75
  -7  -3  -1   76.13    2.53
  -7  -3  -1   69.45    2.52
  -7   3  -1   71.45    2.52
  -7   3  -1   74.05    2.50
   7   3   1   72.36    2.50
  -8  -3  -1    6.14    0.32
   8  -3   1    6.75    0.33
  -8   3  -1    6.57    0.32
   8   3   1    6.80    0.33
  -9  -3  -1   26.54    0.98
   9  -3   1   25.36    0.96
   9   3   1   26.04    0.96
  -9   3  -1   25.49    0.95
 -10  -3  -1    2.85    0.21
  10  -3   1    3.05    0.22
  10   3   1    2.80    0.21
 -10   3  -1    3.21    0.22
 -11  -3  -1    3.71    0.25
  11  -3   1    3.66    0.26
  11  -3   1    4.11    0.25
 -11   3  -1    3.79    0.24
  11   3   1    4.08    0.24
 -12  -3  -1   19.66    0.83
  12  -3   1   21.60    0.81
  12  -3   1   21.97    0.82
  12   3   1   21.03    0.80
 -12   3  -1   22.32    0.80
  13  -3   1    0.96    0.15
 -13  -3  -1    1.26    0.16
  13  -3   1    0.99    0.16
 -13   3  -1    0.82    0.18
  13   3   1    0.86    0.14
  14  -3   1    0.73    0.13
  14  -3   1    0.61    0.14
 -14  -3  -1    0.75    0.13
  14   3   1    0.85    0.12
 -15  -3  -1    3.96    0.23
  15  -3   1    3.47    0.21
  15  -3   1    3.79    0.20
  15   3   1    3.68    0.19
  16  -3   1    1.67    0.13
  16   3   1    1.57    0.12
  15  -4  -1    5.69    0.27
 -15  -4   1    6.27    0.30
  15  -4  -1    5.74    0.25
  15   4  -1    6.04    0.25
  14  -4  -1    5.96    0.27
  14  -4  -1    5.37    0.28
 -14  -4   1    6.15    0.30
 -14   4   1    5.79    0.27
  14   4  -1    5.91    0.27
  13  -4  -1   15.76    0.63
  13  -4  -1   17.01    0.63
 -13  -4   1   16.16    0.65
  13   4  -1   16.47    0.62
 -13   4   1   16.21    0.62
  12  -4  -1    8.78    0.40
 -12  -4   1    8.16    0.41
  12  -4  -1    8.82    0.41
  12   4  -1    9.30    0.39
 -12   4   1    9.17    0.38
  11  -4  -1    4.25    0.25
  11  -4  -1    4.10    0.27
 -11  -4   1    3.91    0.26
 -11   4   1    4.52    0.25
  11   4  -1    3.84    0.26
  11   4  -1    4.44    0.25
 -10  -4   1    2.04    0.19
  10  -4  -1    2.10    0.19
  10   4  -1    1.62    0.20
  10   4  -1    2.41    0.18
 -10   4   1    1.86    0.18
  -9  -4   1    0.21    0.09
   9  -4  -1    0.00    0.10
   9   4  -1    0.20    0.12
  -9   4   1    0.30    0.09
   9   4  -1    0.06    0.08
   8  -4  -1   90.69    3.00
  -8  -4   1   89.88    3.01
  -8   4   1   85.86    2.98
   8   4  -1   84.71    2.98
   8   4  -1   82.94    2.97
  -7  -4   1    0.15    0.08
   7   4  -1    0.05    0.08
   7   4  -1    0.25    0.12
  -7   4   1    0.17    0.12
  -7   4   1    0.39    0.12
  -6  -4   1    8.86    0.39
  -6   4   1    8.97    0.39
   6   4  -1    9.02    0.40
  -6   4   1    9.10    0.44
  -6   4   1    9.39    0.39
   6   4  -1    8.99    0.40
  -5  -4   1   61.11    2.04
   5  -4  -1   51.68    2.08
   5   4  -1   61.68    2.04
  -5   4   1   59.17    2.03
  -5   4   1   61.54    2.04
   5   4  -1   57.69    2.04
   4  -4  -1   13.59    0.57
  -4  -4   1   14.16    0.54
  -4   4   1   13.47    0.54
  -4   4   1   13.17    0.53
  -3  -4   1   60.26    2.09
   3  -4  -1   59.72    2.10
  -2  -4   1    8.19    0.36
   2  -4  -1    8.22    0.37
  -1  -4   1   18.34    0.70
   1  -4  -1   18.87    0.71
   0  -4   1   27.87    1.01
   0  -4  -1   27.89    1.01
   1  -4   1   28.88    1.03
  -1  -4  -1   28.04    1.03
  -2  -4  -1    5.81    0.29
   2  -4   1    5.62    0.29
   3  -4   1    7.84    0.36
  -3  -4  -1    7.23    0.35
  -3  -4  -1    7.46    0.34
  -4  -4  -1  127.17    4.23
   4  -4   1  124.67    4.25
  -4   4  -1  123.24    4.22
  -4   4  -1  122.13    4.22
  -4   4  -1  124.90    4.23
   5  -4   1    0.66    0.20
  -5  -4  -1    0.29    0.09
   5   4   1    0.24    0.09
  -5   4  -1    0.43    0.12
  -5   4  -1    0.53    0.15
  -5   4  -1    0.26    0.09
   5   4   1    0.34    0.11
  -6  -4  -1   15.75    0.63
   6   4   1   15.35    0.62
  -6   4  -1   16.90    0.62
  -6   4  -1   16.75    0.62
  -6   4  -1   15.74    0.65
   6   4   1   15.85    0.61
  -7  -4  -1    0.82    0.14
  -7   4  -1    0.68    0.15
  -7   4  -1    0.71    0.19
   7   4   1    0.97    0.18
  -7   4  -1    0.58    0.17
   8  -4   1    1.07    0.16
  -8  -4  -1    0.88    0.15
   8   4   1    0.77    0.18
  -8   4  -1    0.78    0.19
  -8   4  -1    0.67    0.15
  -8   4  -1    0.82    0.19
   9  -4   1   40.06    1.44
  -9  -4  -1   40.96    1.46
   9   4   1   39.19    1.43
  -9   4  -1   40.48    1.43
  10  -4   1    3.43    0.24
 -10  -4  -1    3.45    0.24
  10   4   1    4.20    0.25
 -10   4  -1    3.84    0.23
  11  -4   1    0.21    0.09
 -11  -4  -1   -0.03    0.08
  11   4   1    0.07    0.08
 -11   4  -1   -0.03    0.08
 -12  -4  -1   28.47    1.07
  12  -4   1   29.40    1.06
  12  -4   1   28.04    1.04
  12   4   1   26.30    1.03
 -12   4  -1   31.09    1.04
  13  -4   1    0.72    0.14
 -13  -4  -1    0.61    0.14
  13  -4   1    0.86    0.13
 -13   4  -1    0.59    0.13
  13   4   1    0.58    0.12
 -14  -4  -1    0.06    0.08
  14  -4   1    0.03    0.08
  14  -4   1   -0.04    0.06
 -14   4  -1   -0.01    0.09
  15  -4   1    2.30    0.15
  15   4   1    2.64    0.15
  14  -5  -1    9.95    0.37
  14   5  -1    9.22    0.37
 -14   5   1    9.35    0.36
 -13  -5   1    0.21    0.11
  13  -5  -1    0.02    0.14
  13  -5  -1    0.25    0.07
  13   5  -1    0.33    0.10
 -13   5   1    0.38    0.10
  12  -5  -1    1.09    0.13
 -12  -5   1    0.94    0.17
 -12   5   1    1.10    0.12
  12   5  -1    1.05    0.13
  11  -5  -1    2.29    0.18
 -11  -5   1    2.06    0.20
 -11   5   1    2.35    0.17
  11   5  -1    1.97    0.17
 -10  -5   1   24.26    0.96
  10  -5  -1   24.88    0.95
 -10   5   1   26.62    0.94
  10   5  -1   25.81    0.94
  10   5  -1   25.57    0.93
   9  -5  -1    6.50    0.32
  -9  -5   1    5.95    0.33
   9   5  -1    6.11    0.32
  -9   5   1    6.03    0.30
   9   5  -1    6.52    0.31
   8  -5  -1    8.31    0.39
  -8  -5   1    8.70    0.41
   8   5  -1    8.43    0.38
  -8   5   1    8.46    0.38
   8   5  -1    8.53    0.39
  -8   5   1    8.52    0.38
  -7  -5   1   13.95    0.59
  -7   5   1   15.06    0.57
  -7   5   1   14.38    0.61
   7   5  -1   14.29    0.58
  -7   5   1   14.41    0.57
   7   5  -1   14.37    0.57
   6   5  -1   10.72    0.44
   6   5  -1    9.96    0.44
  -6   5   1   10.68    0.43
  -6   5   1    9.77    0.48
  -6   5   1   10.70    0.43
   6   5  -1    9.10    0.43
  -5   5   1    5.67    0.37
   5   5  -1    6.68    0.30
   5   5  -1    6.10    0.31
  -5   5   1    6.42    0.30
   5   5  -1    6.17    0.31
  -5   5   1    6.20    0.30
  -4   5   1    0.05    0.08
   4   5  -1    0.15    0.09
  -4   5   1    0.18    0.14
  -4   5   1    0.01    0.08
   4   5  -1    0.02    0.09
   4   5  -1    0.15    0.11
  -3   5   1   23.72    0.89
  -3   5   1   24.68    0.90
  -3   5   1   25.11    0.89
   3   5  -1   24.73    0.89
   3   5  -1   26.85    0.89
  -3   5   1   21.33    0.92
   3   5  -1   23.67    0.90
  -2   5   1  182.42    6.16
  -2   5   1  180.81    6.16
   2   5  -1  180.12    6.16
  -2   5   1  178.02    6.16
   2   5  -1  185.41    6.16
   2   5  -1  174.35    6.16
  -2   5   1  195.09    6.22
  -1   5   1   64.99    2.31
   1   5  -1   63.24    2.31
   1   5  -1   69.70    2.31
  -1   5   1   68.86    2.30
   1   5  -1   69.48    2.30
  -1   5   1   65.28    2.31
   0   5   1    2.50    0.22
   0   5   1    2.86    0.36
   0   5  -1    2.80    0.18
   0   5  -1    2.97    0.21
   0   5   1    2.80    0.18
   0   5  -1    2.31    0.24
   0   5  -1    2.55    0.27
   0   5   1    2.64    0.25
  -1   5  -1   10.04    0.46
  -1   5  -1   10.38    0.42
   1   5   1    9.13    0.47
   1   5   1   11.22    0.42
  -1   5  -1   10.59    0.43
  -1   5  -1   10.19    0.44
   1   5   1   10.00    0.44
  -2   5  -1    8.30    0.41
   2   5   1    7.95    0.41
  -2   5  -1    8.35    0.38
  -2   5  -1    8.74    0.36
   2   5   1    8.41    0.38
  -2   5  -1    8.50    0.37
   2   5   1    8.97    0.36
   3   5   1    4.10    0.27
  -3   5  -1    4.31    0.23
   3   5   1    4.67    0.23
  -3   5  -1    4.61    0.30
  -3   5  -1    4.67    0.25
  -3   5  -1    4.49    0.25
   3   5   1    3.92    0.30
  -4   5  -1    5.38    0.31
  -4   5  -1    5.16    0.25
   4   5   1    4.51    0.30
   4   5   1    4.80    0.30
  -4   5  -1    4.99    0.26
  -4   5  -1    5.18    0.27
   4   5   1    5.15    0.25
  -5  -5  -1    5.59    0.31
   5   5   1    5.83    0.32
   5   5   1    5.64    0.33
  -5   5  -1    6.00    0.29
  -5   5  -1    6.39    0.29
  -5   5  -1    5.95    0.33
   5   5   1    5.94    0.28
  -6  -5  -1   51.61    1.80
  -6   5  -1   52.36    1.77
  -6   5  -1   48.91    1.77
   6   5   1   49.46    1.76
  -6   5  -1   51.91    1.80
   6   5   1   49.76    1.78
  -7  -5  -1    4.07    0.27
  -7   5  -1    4.19    0.24
  -7   5  -1    3.92    0.28
  -7   5  -1    4.44    0.25
   7   5   1    4.24    0.26
   8  -5   1   13.02    0.54
  -8  -5  -1   12.69    0.55
  -8   5  -1   12.98    0.52
  -8   5  -1   12.79    0.52
   8   5   1   12.80    0.52
  -9  -5  -1    1.79    0.19
   9  -5   1    1.98    0.18
   9   5   1    2.13    0.19
  -9   5  -1    2.18    0.17
  -9   5  -1    1.42    0.20
  10  -5   1   16.07    0.63
 -10  -5  -1   15.20    0.64
  10   5   1   16.56    0.62
 -10   5  -1   15.99    0.62
  11  -5   1    4.46    0.25
  11  -5   1    4.43    0.26
 -11  -5  -1    4.75    0.27
  11   5   1    4.71    0.25
 -11   5  -1    4.45    0.23
 -12  -5  -1    0.67    0.16
  12  -5   1    0.38    0.11
  12  -5   1    0.53    0.14
 -12   5  -1    0.37    0.10
  12   5   1    0.56    0.12
  13  -5   1    7.39    0.31
 -13  -5  -1    7.17    0.34
  13  -5   1    7.34    0.31
 -13   5  -1    7.42    0.30
  13   5   1    7.09    0.30
  14  -5   1    1.04    0.12
  14   5   1    0.92    0.15
  13  -6  -1    0.41    0.08
  13   6  -1    0.48    0.12
 -13   6   1    0.37    0.08
  12  -6  -1   13.47    0.51
 -12   6   1   13.33    0.50
  12   6  -1   14.03    0.51
  11  -6  -1    0.69    0.11
 -11   6   1    0.80    0.10
  11   6  -1    0.58    0.12
  10  -6  -1    8.41    0.37
  10   6  -1    9.03    0.37
 -10   6   1    8.55    0.36
   9  -6  -1    3.44    0.21
  -9   6   1    3.51    0.20
   9   6  -1    3.28    0.21
   8  -6  -1    8.39    0.39
   8   6  -1    8.79    0.38
   8   6  -1    8.58    0.37
  -8   6   1    8.49    0.37
  -8   6   1    8.76    0.37
   7  -6  -1   11.40    0.47
  -7   6   1   10.57    0.46
   7   6  -1   10.60    0.45
   7   6  -1   11.19    0.46
  -7   6   1   11.15    0.45
  -6   6   1   51.04    1.72
   6   6  -1   49.17    1.72
   6   6  -1   50.54    1.73
  -6   6   1   46.92    1.75
  -6   6   1   47.83    1.72
   5   6  -1    8.99    0.39
   5   6  -1    9.48    0.40
  -5   6   1    8.52    0.39
  -5   6   1    8.92    0.38
   5   6  -1    9.01    0.39
   4   6  -1    1.63    0.18
  -4   6   1    1.82    0.15
  -4   6   1    1.69    0.17
   4   6  -1    1.59    0.18
   4   6  -1    1.71    0.16
  -3   6   1    0.30    0.08
  -3   6   1    0.36    0.11
   3   6  -1    0.57    0.17
   3   6  -1    0.60    0.15
   3   6  -1    0.40    0.11
  -2   6   1   11.22    0.46
  -2   6   1   11.26    0.47
   2   6  -1   10.96    0.45
   2   6  -1   10.89    0.47
  -2   6   1   10.64    0.44
   2   6  -1   10.55    0.44
  -1   6   1    1.52    0.15
  -1   6   1    1.87    0.21
  -1   6   1    1.97    0.18
   1   6  -1    1.81    0.15
   1   6  -1    1.83    0.18
   1   6  -1    2.39    0.21
   0   6  -1   17.84    0.68
   0   6   1   18.02    0.68
   0   6  -1   17.13    0.67
   0   6  -1   17.76    0.69
   0   6   1   17.89    0.67
  -1   6  -1    1.14    0.20
   1   6   1    1.17    0.14
  -1   6  -1    1.36    0.22
   1   6   1    1.69    0.34
  -1   6  -1    1.13    0.16
   1   6   1    1.43    0.19
  -1   6  -1    1.19    0.14
  -2   6  -1   47.15    1.64
   2   6   1   43.31    1.63
   2   6   1   46.69    1.63
  -2   6  -1   46.33    1.65
  -2   6  -1   46.71    1.63
   2   6   1   46.98    1.63
  -2   6  -1   47.68    1.63
  -3   6  -1    0.10    0.08
  -3   6  -1    0.04    0.06
   3   6   1    0.13    0.11
   3   6   1    0.03    0.12
   3   6   1   -0.03    0.06
  -3   6  -1    0.08    0.09
  -3   6  -1    0.20    0.09
  -4   6  -1    1.28    0.21
   4   6   1    1.26    0.20
   4   6   1    0.91    0.19
  -4   6  -1    1.28    0.16
  -4   6  -1    1.18    0.14
   4   6   1    1.33    0.14
  -5   6  -1    7.85    0.34
   5   6   1    6.99    0.36
   5   6   1    6.88    0.35
  -5   6  -1    7.29    0.34
  -5   6  -1    7.80    0.38
   5   6   1    7.27    0.33
   6   6   1   64.34    2.25
  -6   6  -1   65.74    2.25
   6   6   1   66.04    2.24
  -6   6  -1   64.30    2.25
  -6   6  -1   63.79    2.26
   7  -6   1   11.07    0.47
  -7   6  -1   10.78    0.48
  -7   6  -1   10.70    0.45
   7   6   1   11.22    0.47
  -7   6  -1   11.27    0.46
   8  -6   1   11.41    0.48
  -8   6  -1   11.96    0.46
   8   6   1   11.23    0.47
  -8   6  -1   11.26    0.47
   9  -6   1    3.35    0.20
   9   6   1    3.29    0.21
  -9   6  -1    3.24    0.21
  -9   6  -1    3.29    0.19
  10  -6   1    0.73    0.16
  10  -6   1    1.13    0.12
 -10   6  -1    1.05    0.11
  10   6   1    1.27    0.16
  11  -6   1    0.13    0.06
  11  -6   1    0.03    0.09
  11   6   1    0.09    0.08
 -11   6  -1    0.01    0.05
  12  -6   1    1.44    0.12
 -12   6  -1    1.36    0.10
  11  -7  -1    0.10    0.05
 -11   7   1    0.08    0.04
  10  -7  -1   23.02    0.82
  10   7  -1   22.42    0.81
 -10   7   1   23.24    0.81
   9  -7  -1    0.36    0.09
   9   7  -1    0.25    0.09
  -9   7   1    0.23    0.06
   8  -7  -1    2.80    0.17
   8   7  -1    2.74    0.19
  -8   7   1    2.85    0.18
  -8   7   1    2.72    0.16
   7  -7  -1    1.61    0.14
  -7   7   1    1.44    0.13
   7   7  -1    1.78    0.19
   7   7  -1    1.71    0.18
  -7   7   1    1.56    0.14
   6  -7  -1    9.10    0.41
   6   7  -1    9.92    0.41
   6   7  -1    9.91    0.40
  -6   7   1    9.63    0.39
  -6   7   1    9.74    0.40
   5   7  -1    0.74    0.16
   5   7  -1    0.84    0.12
   5   7  -1    0.69    0.16
  -5   7   1    0.93    0.13
  -5   7   1    1.11    0.14
  -4   7   1   10.16    0.42
   4   7  -1   10.21    0.44
  -4   7   1   10.37    0.42
   4   7  -1   10.20    0.42
   4   7  -1   10.36    0.43
   3   7  -1    0.10    0.07
  -3   7   1    0.20    0.09
   3   7  -1    0.14    0.09
  -3   7   1    0.12    0.06
   3   7  -1    0.57    0.17
   2   7  -1    0.53    0.14
   2   7  -1    0.83    0.18
   2   7  -1    0.62    0.11
  -2   7   1    0.86    0.12
   1   7  -1    0.71    0.13
   1   7  -1    0.37    0.10
  -1   7   1    0.29    0.07
   1   7  -1    0.42    0.12
  -1   7   1    0.02    0.12
   0   7  -1   58.12    1.99
   0   7   1   55.56    1.98
   0   7  -1   55.18    1.99
   0   7  -1   57.07    1.98
   0   7   1   58.89    1.99
  -1   7  -1    2.68    0.17
   1   7   1    2.54    0.17
   1   7   1    2.56    0.20
  -1   7  -1    2.81    0.20
  -1   7  -1    2.38    0.24
  -2   7  -1   30.93    1.14
  -2   7  -1   31.30    1.13
   2   7   1   31.62    1.12
   2   7   1   31.54    1.13
  -3   7  -1    3.88    0.23
  -3   7  -1    3.75    0.26
   3   7   1    3.95    0.24
   3   7   1    3.95    0.21
  -3   7  -1    4.27    0.22
  -4   7  -1    3.07    0.19
  -4   7  -1    2.93    0.19
   4   7   1    2.78    0.22
  -4   7  -1    3.25    0.25
   4   7   1    3.25    0.18
   5   7   1    0.56    0.10
  -5   7  -1    0.58    0.13
  -5   7  -1    0.69    0.11
  -5   7  -1    0.85    0.12
   6  -7   1    1.65    0.15
   6   7   1    1.39    0.14
  -6   7  -1    1.58    0.13
  -6   7  -1    1.54    0.14
   7  -7   1    2.72    0.17
  -7   7  -1    2.81    0.17
  -7   7  -1    2.87    0.17
   8  -7   1   34.39    1.17
  -8   7  -1   31.80    1.15
  -8   7  -1   32.25    1.15
   9  -7   1    0.94    0.10
  -9   7  -1    0.89    0.09
  10  -7   1    3.32    0.16
 -10   7  -1    2.92    0.15
   8  -8  -1    2.33    0.13
  -8   8   1    2.54    0.13
   7  -8  -1    3.84    0.18
  -7   8   1    3.66    0.18
  -7   8   1    4.03    0.18
   6  -8  -1    0.25    0.07
  -6   8   1    0.23    0.06
  -6   8   1    0.40    0.09
   5  -8  -1    4.24    0.21
  -5   8   1    4.35    0.20
   5   8  -1    4.02    0.20
  -5   8   1    4.01    0.20
   4  -8  -1    0.14    0.07
  -4   8   1    0.05    0.05
   4   8  -1    0.11    0.05
  -4   8   1    0.05    0.07
   3  -8  -1    1.36    0.13
  -3   8   1    1.36    0.11
   3   8  -1    1.22    0.11
   2   8  -1   20.98    0.75
  -2   8   1   20.38    0.75
  -1   8   1   30.05    1.09
   1   8  -1   31.55    1.09
   0   8  -1    3.70    0.19
   0   8   1    3.44    0.18
   1   8   1    3.46    0.18
  -1   8  -1    3.33    0.18
  -2   8  -1    1.00    0.10
   2   8   1    1.16    0.11
  -3   8  -1    1.37    0.12
   3   8   1    1.64    0.12
   4  -8   1    2.77    0.16
  -4   8  -1    2.72    0.15
  -4   8  -1    2.53    0.16
   4   8   1    2.43    0.15
   5  -8   1    4.08    0.20
  -5   8  -1    3.78    0.19
  -5   8  -1    4.24    0.20
   5   8   1    4.20    0.19
   6  -8   1    2.64    0.14
   6   8   1    2.41    0.17
  -6   8  -1    2.58    0.14
  -6   8  -1    2.40    0.14
   7  -8   1    8.16    0.33
  -7   8  -1    8.18    0.32
  -7   8  -1    8.64    0.32
   2   9  -1   19.51    0.68
  -2   9   1   19.67    0.69
   1   9  -1    5.99    0.25
  -1   9   1    6.77    0.25
   0   9  -1    1.04    0.08
   0   9   1    0.99    0.08
  -1   9  -1   13.61    0.47
   1   9   1   12.14    0.46
  17   0  -2   -0.05    0.05
  16   0  -2    2.94    0.18
  16   0  -2    2.61    0.17
 -16   0   2    2.78    0.22
  15   0  -2    0.07    0.08
  15   0  -2    0.01    0.06
 -15   0   2   -0.03    0.09
  14   0  -2    0.06    0.07
  14   0  -2    0.16    0.09
 -14   0   2    0.08    0.09
  13   0  -2    0.14    0.09
 -13   0   2   -0.04    0.08
  13   0  -2    0.09    0.07
  12   0  -2   13.22    0.54
  12   0  -2   12.77    0.55
 -12   0   2   14.23    0.58
  11   0  -2    0.11    0.08
 -11   0   2    0.02    0.08
  11   0  -2    0.00    0.09
  10   0  -2   62.96    2.20
  10   0  -2   63.86    2.19
  -9   0   2    0.01    0.12
   9   0  -2    0.21    0.09
  -8   0   2   18.24    0.69
  -7   0   2    0.01    0.07
   7   0  -2    0.10    0.07
  -6   0   2  358.79   11.33
   6   0  -2  313.56   11.29
  -5   0   2    0.09    0.04
  -4   0   2  246.71    8.16
   4   0  -2  234.19    8.16
   3   0  -2    0.00    0.02
  -3   0   2    0.01    0.02
   2   0  -2   63.43    2.23
  -2   0   2   66.90    2.21
   1   0  -2    0.01    0.01
  -1   0   2    0.01    0.01
   0   0  -2   86.08    2.91
   1   0   2    0.15    0.01
  -3   0  -2    0.09    0.01
  -4   0  -2   26.65    0.96
  -4   0  -2   29.99    0.96
  -5   0  -2    0.25    0.03
  -6   0  -2    7.57    0.28
  -7   0  -2   -0.03    0.04
  -7   0  -2    0.11    0.07
  -7   0  -2    0.07    0.05
  -8   0  -2   49.91    1.65
   8   0   2   43.27    1.63
  -9   0  -2    0.07    0.07
   9   0   2   -0.03    0.08
  10   0   2   22.63    0.86
 -10   0  -2   22.79    0.87
  10   0   2   23.15    0.98
  11   0   2    0.09    0.08
 -11   0  -2    0.09    0.08
 -12   0  -2   11.50    0.51
  12   0   2   11.58    0.49
  13   0   2    0.01    0.07
 -13   0  -2    0.02    0.10
  14   0   2    0.88    0.13
 -14   0  -2    0.81    0.17
  15   0   2    0.07    0.06
 -15   0  -2   -0.09    0.12
  16   0   2    5.28    0.24
  17  -1  -2    0.15    0.07
  17  -1  -2    0.05    0.09
  17   1  -2    0.07    0.05
 -16  -1   2    1.11    0.16
  16  -1  -2    1.10    0.14
  16  -1  -2    1.11    0.13
  16   1  -2    0.93    0.11
  16   1  -2    1.08    0.16
  15  -1  -2    0.80    0.13
 -15  -1   2    0.60    0.15
  15  -1  -2    0.61    0.14
  15   1  -2    0.54    0.14
  15   1  -2    0.70    0.12
  14  -1  -2    1.96    0.18
 -14  -1   2    1.78    0.19
  14  -1  -2    1.99    0.18
 -14   1   2    1.71    0.21
  14   1  -2    1.91    0.17
  14   1  -2    2.20    0.18
  13  -1  -2   13.42    0.53
  13  -1  -2   13.18    0.54
 -13  -1   2   12.51    0.57
 -13   1   2   12.35    0.56
  13   1  -2   13.43    0.53
  13   1  -2   12.87    0.52
  12  -1  -2   43.22    1.53
  12  -1  -2   42.15    1.54
 -12  -1   2   44.05    1.58
  12   1  -2   43.30    1.52
  12   1  -2   41.05    1.53
 -12   1   2   45.06    1.57
  11  -1  -2    1.39    0.17
 -11  -1   2    1.51    0.17
  11  -1  -2    1.58    0.18
 -11   1   2    1.67    0.18
  11   1  -2    1.55    0.18
  11   1  -2    1.81    0.17
 -10  -1   2    0.04    0.07
  10  -1  -2   -0.05    0.09
  10  -1  -2   -0.13    0.09
  10   1  -2    0.17    0.09
  10   1  -2    0.04    0.10
   9  -1  -2    1.91    0.21
   9  -1  -2    2.49    0.20
  -9  -1   2    2.50    0.21
   9   1  -2    2.55    0.20
   9   1  -2    2.20    0.22
  -8  -1   2   14.56    0.55
  -8   1   2   13.92    0.56
   7  -1  -2   51.91    1.72
  -7  -1   2   51.09    1.72
  -7  -1   2   49.20    1.73
   7  -1  -2   47.60    1.74
  -7   1   2   49.17    1.72
  -6  -1   2   65.79    2.22
  -6  -1   2   63.55    2.21
   6  -1  -2   64.23    2.22
  -6   1   2   66.17    2.21
   5  -1  -2   65.52    2.32
  -5  -1   2   67.76    2.32
  -5  -1   2   70.20    2.32
  -5   1   2   69.30    2.32
   4  -1  -2    5.04    0.20
  -4  -1   2    5.10    0.20
  -4  -1   2    5.13    0.21
  -4   1   2    5.16    0.20
   3  -1  -2    5.41    0.21
  -3  -1   2    5.55    0.21
  -3   1   2    5.78    0.21
   2  -1  -2  168.93    5.85
  -2  -1   2  170.72    5.86
  -2   1   2  177.54    5.86
   1  -1  -2    5.27    0.21
  -1  -1   2    6.33    0.21
   1   1  -2    5.62    0.21
  -1   1   2    5.77    0.21
   0  -1  -2  133.92    4.71
   0  -1   2  138.94    4.71
   0   1  -2  140.23    4.71
   0   1   2  141.03    4.71
   1  -1   2   72.60    2.42
  -1  -1  -2   64.48    2.42
   1   1   2   74.28    2.43
  -1   1  -2   74.14    2.43
   2  -1   2    7.19    0.26
  -2  -1  -2    7.61    0.27
   2   1   2    7.23    0.27
  -2   1  -2    7.81    0.26
  -3  -1  -2   21.85    0.79
   3  -1   2   23.00    0.78
  -3   1  -2   23.75    0.78
   3   1   2   23.75    0.79
  -4  -1  -2   80.99    2.86
   4  -1   2   86.08    2.86
  -4   1  -2   87.47    2.86
  -5  -1  -2   38.32    1.24
  -5  -1  -2   34.56    1.23
  -5  -1  -2   35.07    1.27
  -5   1  -2   36.73    1.23
  -6  -1  -2    6.09    0.24
  -6  -1  -2    5.77    0.23
  -6  -1  -2    6.15    0.28
  -6   1  -2    5.75    0.28
  -8  -1  -2   10.63    0.43
  -8   1  -2    9.46    0.42
   9  -1   2    1.38    0.22
  -9  -1  -2    1.51    0.16
  -9   1  -2    1.44    0.17
  -9   1  -2    1.61    0.23
   9   1   2    1.25    0.17
  10  -1   2   24.80    0.93
 -10  -1  -2   24.87    0.94
  10  -1   2   23.82    0.91
  10   1   2   25.07    0.92
 -10   1  -2   24.71    0.93
  11  -1   2    0.18    0.13
 -11  -1  -2    0.12    0.09
  11  -1   2    0.15    0.08
 -11   1  -2    0.22    0.10
  11   1   2   -0.02    0.07
  12  -1   2    1.33    0.21
  12  -1   2    1.36    0.17
 -12  -1  -2    1.49    0.17
  12   1   2    1.19    0.15
  13  -1   2    0.99    0.20
 -13  -1  -2    0.81    0.16
  13  -1   2    1.01    0.14
  13   1   2    1.33    0.15
  14  -1   2    1.84    0.16
 -14  -1  -2    1.58    0.18
  14   1   2    1.64    0.15
 -15  -1  -2    0.54    0.15
  15  -1   2    0.41    0.10
  15   1   2    0.40    0.10
  16  -1   2    0.27    0.09
  16   1   2    0.24    0.08
  17  -2  -2    0.07    0.07
  17   2  -2    0.01    0.05
  16  -2  -2    1.64    0.14
 -16  -2   2    2.19    0.18
  16  -2  -2    1.97    0.15
  16   2  -2    1.78    0.13
 -15  -2   2    3.85    0.24
  15  -2  -2    3.91    0.21
  15  -2  -2    3.40    0.22
  15   2  -2    3.55    0.21
  15   2  -2    3.75    0.22
  14  -2  -2   28.46    1.01
 -14  -2   2   26.86    1.05
  14  -2  -2   27.18    1.02
  14   2  -2   29.01    1.00
  14   2  -2   27.50    1.02
 -13  -2   2    0.12    0.09
  13  -2  -2    0.21    0.09
  13  -2  -2    0.01    0.08
  13   2  -2    0.25    0.10
  13   2  -2    0.14    0.07
  12  -2  -2    9.13    0.41
  12  -2  -2    8.98    0.41
 -12  -2   2    8.94    0.43
  12   2  -2    9.03    0.39
  12   2  -2    9.08    0.40
  11  -2  -2    7.64    0.37
  11  -2  -2    8.41    0.39
 -11  -2   2    8.54    0.41
 -11   2   2    8.19    0.39
  11   2  -2    7.90    0.37
  11   2  -2    8.71    0.37
 -10  -2   2   13.74    0.57
  10  -2  -2   13.51    0.56
  10  -2  -2   13.13    0.54
  10   2  -2   13.95    0.55
 -10   2   2   13.35    0.56
  10   2  -2   13.67    0.54
  -9  -2   2    5.20    0.27
   9  -2  -2    4.66    0.26
  -9   2   2    4.45    0.29
   9   2  -2    4.89    0.26
   9   2  -2    4.93    0.27
  -8  -2   2   96.80    3.22
   8  -2  -2   91.58    3.20
   8  -2  -2   93.62    3.22
   8   2  -2   93.17    3.20
  -7  -2   2    0.43    0.11
   7  -2  -2    0.26    0.08
   7  -2  -2    0.36    0.11
  -7   2   2    0.45    0.10
  -6  -2   2   79.01    2.72
  -6  -2   2   83.22    2.74
   6  -2  -2   78.75    2.72
  -6   2   2   77.58    2.71
  -5  -2   2   10.63    0.40
   5  -2  -2   10.65    0.41
  -5   2   2   10.43    0.40
   4  -2  -2    1.02    0.08
  -4  -2   2    1.21    0.08
  -4   2   2    1.07    0.08
  -3  -2   2    2.86    0.13
   3  -2  -2    2.54    0.13
  -3   2   2    2.64    0.13
   3   2  -2    2.69    0.13
  -2  -2   2  461.04   15.77
   2  -2  -2  444.58   15.76
   2   2  -2  481.00   15.77
  -2   2   2  479.47   15.79
  -1  -2   2  205.09    7.07
   1  -2  -2  201.34    7.04
  -1   2   2  205.05    7.06
   1   2  -2  219.78    7.08
   0  -2  -2    5.05    0.20
   0  -2   2    5.11    0.20
   0   2   2    5.27    0.20
   0   2  -2    5.08    0.20
   1  -2   2    8.66    0.33
  -1  -2  -2    9.13    0.34
  -1   2  -2    9.42    0.33
   2  -2   2    7.84    0.30
  -2  -2  -2    7.92    0.31
  -2   2  -2    8.88    0.31
   2   2   2    8.39    0.31
  -3  -2  -2   36.89    1.23
   3  -2   2   35.95    1.22
  -3   2  -2   35.45    1.22
   3   2   2   34.90    1.23
   4  -2   2   57.10    1.93
  -4  -2  -2   55.81    1.96
  -4  -2  -2   55.45    1.94
  -4   2  -2   58.56    1.93
   4   2   2   56.97    1.94
  -5  -2  -2    3.04    0.16
  -5  -2  -2    2.98    0.18
   5  -2   2    2.93    0.14
  -5   2  -2    3.09    0.14
   6  -2   2  293.71    9.87
  -6  -2  -2  287.49    9.86
  -6  -2  -2  299.30    9.88
  -7  -2  -2    0.04    0.06
  -7  -2  -2    0.02    0.09
  -7   2  -2    0.23    0.10
  -8  -2  -2    5.90    0.30
   8  -2   2    5.75    0.32
  -8   2  -2    6.14    0.30
   8   2   2    5.97    0.30
   9  -2   2    1.70    0.20
  -9  -2  -2    1.96    0.17
  -9   2  -2    2.02    0.20
   9   2   2    1.82    0.18
 -10  -2  -2   57.06    1.95
  10  -2   2   54.23    1.91
 -10   2  -2   54.47    1.90
  10   2   2   52.64    1.91
  11  -2   2   28.43    1.04
  11  -2   2   28.30    1.06
 -11  -2  -2   28.14    1.08
  11   2   2   28.04    1.04
 -11   2  -2   28.73    1.03
 -12  -2  -2    0.14    0.09
  12  -2   2    0.24    0.11
  12  -2   2    0.13    0.08
  12   2   2    0.03    0.07
 -12   2  -2    0.23    0.12
  13  -2   2   16.93    0.66
 -13  -2  -2   15.54    0.67
  13  -2   2   16.47    0.64
  13   2   2   16.96    0.64
  14  -2   2    2.17    0.17
 -14  -2  -2    2.05    0.18
  14  -2   2    2.07    0.21
  14   2   2    2.43    0.16
  15  -2   2   -0.03    0.05
 -15  -2  -2    0.12    0.09
  15   2   2    0.06    0.05
  16  -2   2    0.51    0.09
  16   2   2    0.51    0.09
  16  -3  -2    0.52    0.14
 -16  -3   2    0.46    0.13
  16  -3  -2    0.35    0.10
  16   3  -2    0.50    0.09
 -15  -3   2    0.04    0.08
  15  -3  -2    0.07    0.07
  15  -3  -2    0.03    0.07
  15   3  -2    0.10    0.06
  14  -3  -2   17.58    0.65
  14  -3  -2   16.88    0.65
 -14  -3   2   16.38    0.68
  14   3  -2   17.23    0.64
  14   3  -2   16.69    0.65
 -13  -3   2    3.34    0.24
  13  -3  -2    3.62    0.24
  13  -3  -2    3.62    0.23
 -13   3   2    4.09    0.25
  13   3  -2    3.37    0.21
  13   3  -2    3.37    0.23
  12  -3  -2   -0.15    0.09
  12  -3  -2    0.03    0.09
 -12  -3   2    0.09    0.09
 -12   3   2    0.06    0.10
  12   3  -2    0.00    0.07
  12   3  -2    0.21    0.10
  11  -3  -2    4.76    0.29
  11  -3  -2    4.96    0.27
 -11  -3   2    4.82    0.28
  11   3  -2    5.16    0.27
  11   3  -2    4.79    0.27
 -11   3   2    4.75    0.28
  10  -3  -2    3.59    0.23
 -10  -3   2    3.70    0.24
  10   3  -2    3.58    0.23
 -10   3   2    3.75    0.24
  10   3  -2    3.66    0.23
  -9  -3   2   91.01    3.12
   9  -3  -2   92.19    3.10
   9   3  -2   89.94    3.09
  -9   3   2   88.91    3.09
   9   3  -2   88.79    3.08
   8  -3  -2    4.91    0.28
  -8  -3   2    5.13    0.27
  -8   3   2    4.64    0.27
   8   3  -2    5.19    0.27
   8   3  -2    4.97    0.27
   7  -3  -2    0.02    0.13
  -7  -3   2    0.09    0.07
   7  -3  -2    0.01    0.09
   7   3  -2    0.11    0.09
  -7   3   2    0.10    0.10
  -6  -3   2   46.83    1.59
  -6  -3   2   45.71    1.59
   6  -3  -2   42.51    1.59
  -5  -3   2   35.61    1.29
   5  -3  -2   36.14    1.29
  -5  -3   2   37.60    1.29
  -4  -3   2   12.15    0.46
   4  -3  -2   11.95    0.46
  -4   3   2   11.36    0.46
   3  -3  -2    1.13    0.10
  -3  -3   2    0.94    0.10
   3   3  -2    0.90    0.12
  -3   3   2    0.89    0.11
  -2  -3   2   31.32    1.09
   2  -3  -2   31.46    1.10
  -2   3   2   30.87    1.10
   2   3  -2   31.07    1.10
   1  -3  -2   12.79    0.47
  -1  -3   2   12.70    0.47
   1   3  -2   11.91    0.47
  -1   3   2   12.14    0.47
   0  -3   2   36.33    1.29
   0  -3  -2   37.78    1.30
   0   3  -2   38.84    1.30
   0   3   2   35.72    1.29
   1   3   2   30.62    1.11
  -1   3  -2   32.86    1.11
   2  -3   2   25.26    0.90
  -2  -3  -2   26.22    0.91
  -2   3  -2   26.03    0.90
   2   3   2   24.27    0.91
  -3  -3  -2   56.18    1.86
  -3  -3  -2   57.34    1.86
   3  -3   2   52.83    1.85
  -3   3  -2   53.95    1.85
   3   3   2   48.63    1.86
  -4  -3  -2    4.22    0.22
   4  -3   2    3.95    0.20
  -4  -3  -2    4.35    0.21
   4   3   2    4.05    0.24
  -4   3  -2    4.22    0.21
   5  -3   2   48.18    1.92
  -5  -3  -2   61.08    1.95
  -5  -3  -2   58.55    1.95
  -6  -3  -2   19.53    0.72
  -6  -3  -2   18.88    0.73
  -6   3  -2   17.93    0.73
  -6   3  -2   19.45    0.71
  -7  -3  -2    0.18    0.07
  -7   3  -2    0.34    0.12
   7   3   2    0.24    0.10
  -7   3  -2    0.15    0.09
  -7   3  -2    0.15    0.09
   8  -3   2    1.00    0.18
  -8  -3  -2    1.06    0.13
  -8   3  -2    1.00    0.16
   8   3   2    0.91    0.17
   9  -3   2   34.36    1.21
  -9  -3  -2   37.14    1.24
   9   3   2   32.57    1.20
  -9   3  -2   29.38    1.19
 -10  -3  -2    2.74    0.21
  10  -3   2    2.69    0.22
  10   3   2    2.66    0.20
 -10   3  -2    2.54    0.21
  11  -3   2    6.21    0.31
 -11  -3  -2    5.66    0.32
 -11   3  -2    6.23    0.30
  11   3   2    5.76    0.30
  12  -3   2   18.24    0.68
  12  -3   2   17.31    0.69
 -12  -3  -2   16.46    0.70
  12   3   2   17.85    0.68
 -12   3  -2   17.70    0.67
  13  -3   2   15.52    0.60
  13  -3   2   16.19    0.62
 -13  -3  -2   14.89    0.63
 -13   3  -2   15.63    0.60
  13   3   2   15.57    0.60
  14  -3   2    0.34    0.11
 -14  -3  -2    0.27    0.10
  14  -3   2    0.52    0.15
  14   3   2    0.30    0.11
  15  -3   2    1.51    0.13
 -15  -3  -2    2.01    0.17
  15   3   2    1.77    0.13
  16   4  -2    0.38    0.08
  15  -4  -2   25.12    0.90
 -15  -4   2   24.97    0.93
  15   4  -2   25.62    0.90
  14  -4  -2    2.27    0.16
 -14  -4   2    1.95    0.18
 -14   4   2    1.97    0.18
  14   4  -2    2.04    0.15
 -13  -4   2    5.62    0.31
  13  -4  -2    5.72    0.29
  13   4  -2    5.66    0.27
  13   4  -2    5.35    0.35
 -13   4   2    5.78    0.28
  12  -4  -2    0.80    0.14
 -12  -4   2    0.63    0.14
 -12   4   2    0.74    0.14
  12   4  -2    0.70    0.16
  12   4  -2    0.75    0.14
  11  -4  -2    4.09    0.26
  11  -4  -2    3.77    0.28
 -11  -4   2    4.05    0.26
  11   4  -2    4.54    0.24
  11   4  -2    4.15    0.25
 -11   4   2    4.32    0.24
  10  -4  -2   49.25    1.78
 -10  -4   2   50.06    1.79
 -10   4   2   51.40    1.76
  10   4  -2   49.59    1.75
  10   4  -2   50.21    1.77
  -9  -4   2    8.61    0.40
   9  -4  -2    8.27    0.39
   9   4  -2    8.50    0.37
  -9   4   2    8.28    0.38
   9   4  -2    8.50    0.38
   8  -4  -2    0.13    0.10
  -8  -4   2   -0.02    0.08
   8   4  -2    0.05    0.08
   8   4  -2    0.31    0.11
  -8   4   2    0.10    0.09
   7  -4  -2   17.01    0.63
  -7  -4   2   16.77    0.63
  -7   4   2   15.97    0.61
   7   4  -2   16.11    0.62
   7   4  -2   15.70    0.61
  -7   4   2   14.91    0.62
  -7   4   2   14.17    0.65
  -6  -4   2    2.09    0.18
  -6   4   2    1.86    0.20
   6   4  -2    1.90    0.19
  -6   4   2    1.86    0.17
   6   4  -2    2.03    0.19
  -5  -4   2   44.14    1.50
  -5   4   2   42.19    1.50
   5   4  -2   42.30    1.50
   5   4  -2   41.97    1.49
   4  -4  -2    0.50    0.19
  -4   4   2    0.24    0.09
  -3  -4   2   38.43    1.36
   3  -4  -2   37.48    1.36
   2  -4  -2    1.76    0.18
  -2  -4   2    1.91    0.16
   1  -4  -2    0.54    0.14
  -1  -4   2    0.49    0.12
   0  -4  -2   26.82    0.98
   0  -4   2   26.92    0.98
  -1  -4  -2    6.47    0.31
   1  -4   2    6.14    0.30
  -2  -4  -2   88.33    2.95
   2  -4   2   87.28    2.94
  -2  -4  -2   81.28    2.93
   3  -4   2  135.00    4.72
  -3  -4  -2  143.37    4.71
  -3   4  -2  138.15    4.71
   4  -4   2    2.25    0.24
  -4  -4  -2    2.35    0.18
  -4   4  -2    2.47    0.18
  -4   4  -2    2.04    0.19
   4   4   2    2.24    0.18
  -4   4  -2    2.50    0.19
  -4   4  -2    2.30    0.24
  -5  -4  -2    1.44    0.15
  -5   4  -2    1.43    0.16
  -5   4  -2    1.33    0.20
   5   4   2    1.28    0.22
   5   4   2    1.50    0.16
  -5   4  -2    1.47    0.16
  -6  -4  -2    1.06    0.14
   6   4   2    1.03    0.16
   6   4   2    0.94    0.22
  -6   4  -2    0.84    0.15
  -6   4  -2    1.38    0.16
  -6   4  -2    0.77    0.14
  -7  -4  -2   30.95    1.09
   7   4   2   27.86    1.07
  -7   4  -2   30.69    1.07
  -7   4  -2   28.62    1.09
  -7   4  -2   28.73    1.06
   8  -4   2    3.53    0.24
  -8  -4  -2    3.85    0.24
  -8   4  -2    2.79    0.23
  -8   4  -2    3.34    0.25
  -8   4  -2    3.54    0.22
   8   4   2    3.63    0.25
   9  -4   2    0.23    0.10
  -9  -4  -2    0.39    0.14
  -9   4  -2    0.19    0.08
   9   4   2    0.59    0.17
 -10  -4  -2    9.02    0.43
  10  -4   2    9.66    0.42
  10   4   2    9.45    0.42
 -10   4  -2    9.44    0.41
 -11  -4  -2    5.72    0.31
  11  -4   2    5.77    0.30
  11   4   2    5.96    0.30
 -11   4  -2    6.09    0.29
 -12  -4  -2    6.63    0.34
  12  -4   2    7.08    0.33
  12  -4   2    6.80    0.33
 -12   4  -2    6.95    0.31
  12   4   2    7.08    0.32
  13  -4   2    0.89    0.13
  13  -4   2    1.05    0.15
 -13  -4  -2    0.71    0.14
 -13   4  -2    0.92    0.13
  13   4   2    1.06    0.13
 -14  -4  -2    0.06    0.08
  14  -4   2    0.06    0.06
  14  -4   2    0.11    0.09
  14   4   2    0.11    0.06
  15  -4   2   14.21    0.52
  14  -5  -2    0.28    0.09
  14   5  -2    0.07    0.05
 -14   5   2    0.18    0.08
 -13  -5   2    1.84    0.20
  13  -5  -2    1.56    0.14
 -13   5   2    1.39    0.13
  13   5  -2    1.44    0.13
  12  -5  -2    4.33    0.24
 -12  -5   2    4.42    0.27
 -12   5   2    4.61    0.23
  12   5  -2    4.25    0.23
  11  -5  -2   41.89    1.47
 -11  -5   2   38.59    1.48
  11   5  -2   42.34    1.46
 -11   5   2   42.43    1.45
  11   5  -2   40.39    1.44
  10  -5  -2    6.40    0.32
 -10  -5   2    5.82    0.33
  10   5  -2    6.63    0.31
 -10   5   2    6.72    0.31
  10   5  -2    6.51    0.31
  -9  -5   2    7.01    0.37
   9  -5  -2    7.62    0.36
   9   5  -2    7.86    0.34
  -9   5   2    7.25    0.34
   9   5  -2    6.86    0.34
  -8  -5   2    6.40    0.35
   8  -5  -2    6.51    0.33
  -8   5   2    6.75    0.33
   8   5  -2    6.71    0.33
   8   5  -2    6.56    0.32
  -8   5   2    6.86    0.32
   7  -5  -2   13.58    0.57
  -7  -5   2   13.54    0.58
   7   5  -2   14.02    0.55
   7   5  -2   13.98    0.56
  -7   5   2   14.10    0.55
  -7   5   2   14.04    0.55
  -6   5   2   18.01    0.66
  -6   5   2   17.77    0.66
   6   5  -2   18.47    0.66
   6   5  -2   14.49    0.66
  -5   5   2    1.71    0.17
   5   5  -2    2.10    0.19
  -5   5   2    1.91    0.16
   5   5  -2    1.81    0.18
   5   5  -2    1.82    0.18
   4   5  -2   57.73    1.91
  -4   5   2   57.12    1.91
   4   5  -2   52.20    1.91
  -4   5   2   55.00    1.91
   4   5  -2   52.95    1.91
  -3   5   2    6.77    0.33
   3   5  -2    6.78    0.33
  -3   5   2    6.99    0.31
   3   5  -2    7.68    0.32
   3   5  -2    7.09    0.34
  -3   5   2    6.88    0.33
   2   5  -2   19.52    0.71
  -2   5   2   20.02    0.71
  -2   5   2   17.91    0.71
   2   5  -2   18.31    0.72
   2   5  -2   19.24    0.71
  -2   5   2   18.43    0.71
   1   5  -2   55.90    1.93
  -1   5   2   54.06    1.94
   1   5  -2   54.59    1.95
  -1   5   2   56.81    1.93
  -1   5   2   56.37    1.94
   1   5  -2   57.23    1.94
   0   5   2    7.19    0.39
   0   5   2    8.84    0.35
   0   5   2    8.60    0.39
   0   5  -2    8.09    0.40
   0   5  -2    8.51    0.35
   0   5  -2    7.90    0.38
   0   5  -2    8.31    0.36
   1   5   2    3.31    0.18
  -1   5  -2    2.66    0.18
  -1   5  -2    3.01    0.23
   1   5   2    2.43    0.25
  -1   5  -2    2.39    0.21
  -1   5  -2    2.72    0.23
  -2   5  -2   20.94    0.82
  -2   5  -2   22.29    0.80
  -2   5  -2   21.53    0.80
   2   5   2   21.79    0.79
  -2   5  -2   21.65    0.79
   2   5   2   20.58    0.80
  -3   5  -2    1.16    0.15
  -3   5  -2    1.34    0.17
   3   5   2    1.09    0.13
  -3   5  -2    0.93    0.13
   3   5   2    0.78    0.23
  -3   5  -2    1.20    0.20
  -4  -5  -2    0.58    0.18
  -4   5  -2    0.59    0.11
   4   5   2    0.36    0.09
   4   5   2    0.46    0.14
  -4   5  -2    0.54    0.11
  -4   5  -2    0.71    0.18
  -4   5  -2    0.65    0.12
  -5  -5  -2    5.47    0.30
   5   5   2    5.39    0.27
   5   5   2    5.30    0.32
  -5   5  -2    5.44    0.28
  -5   5  -2    6.09    0.32
  -6  -5  -2   16.92    0.65
   6   5   2   15.54    0.64
  -6   5  -2   16.15    0.63
   6   5   2   16.22    0.62
  -6   5  -2   15.68    0.65
  -6   5  -2   16.28    0.63
  -7  -5  -2   18.87    0.73
  -7   5  -2   18.35    0.70
  -7   5  -2   18.23    0.73
   7   5   2   18.05    0.71
  -7   5  -2   18.29    0.70
   8  -5   2   13.89    0.57
  -8  -5  -2   13.57    0.58
  -8   5  -2   13.73    0.55
   8   5   2   13.94    0.56
  -8   5  -2   14.13    0.55
   9  -5   2    8.22    0.38
  -9  -5  -2    7.72    0.39
   9   5   2    8.44    0.38
  -9   5  -2    8.05    0.37
  -9   5  -2    8.51    0.37
 -10  -5  -2   14.27    0.60
  10  -5   2   16.05    0.59
  10   5   2   13.00    0.57
 -10   5  -2   15.84    0.58
 -11  -5  -2   12.69    0.53
  11  -5   2   12.55    0.50
  11  -5   2   12.51    0.51
 -11   5  -2   12.58    0.49
  11   5   2   12.28    0.49
  12  -5   2    5.84    0.28
  12  -5   2    6.07    0.27
 -12  -5  -2    5.92    0.30
 -12   5  -2    5.84    0.26
  12   5   2    5.94    0.27
 -13  -5  -2    0.22    0.13
  13  -5   2    0.28    0.08
  13  -5   2    0.36    0.11
  13   5   2    0.18    0.08
 -13   5  -2    0.25    0.07
  13  -6  -2   15.55    0.56
  13   6  -2   15.43    0.56
 -13   6   2   15.50    0.56
  12  -6  -2    0.50    0.10
 -12   6   2    0.43    0.09
  12   6  -2    0.53    0.11
  11  -6  -2    1.53    0.14
 -11   6   2    1.53    0.12
  11   6  -2    1.62    0.13
  10  -6  -2    0.10    0.07
  10   6  -2    0.04    0.10
  10   6  -2    0.16    0.07
 -10   6   2    0.07    0.06
   9  -6  -2    0.04    0.08
   9   6  -2    0.01    0.07
   9   6  -2    0.07    0.10
   8  -6  -2    8.43    0.38
  -8   6   2    8.17    0.36
   8   6  -2    8.32    0.37
   8   6  -2    8.42    0.37
  -8   6   2    8.36    0.37
   7  -6  -2    4.32    0.26
  -7   6   2    4.44    0.25
   7   6  -2    4.82    0.25
   7   6  -2    4.77    0.26
  -7   6   2    4.54    0.25
  -6   6   2   26.50    0.95
  -6   6   2   25.16    0.95
   6   6  -2   26.94    0.97
   6   6  -2   25.61    0.95
  -5   6   2   75.50    2.76
   5   6  -2   81.75    2.75
  -5   6   2   79.60    2.75
   5   6  -2   83.03    2.77
   5   6  -2   81.12    2.76
   4   6  -2   38.55    1.37
   4   6  -2   37.09    1.35
   4   6  -2   39.17    1.35
  -4   6   2   38.05    1.36
  -4   6   2   37.96    1.35
   3   6  -2    0.59    0.14
   3   6  -2    0.50    0.17
   3   6  -2    0.33    0.09
  -3   6   2    0.61    0.12
  -3   6   2    0.73    0.16
   2   6  -2    0.15    0.09
   2   6  -2    0.11    0.09
  -2   6   2    0.08    0.10
  -2   6   2    0.16    0.08
   2   6  -2    0.06    0.07
  -1   6   2   29.22    1.10
  -1   6   2   29.62    1.10
   1   6  -2   30.48    1.10
  -1   6   2   31.86    1.10
   1   6  -2   30.91    1.11
   1   6  -2   30.91    1.10
   0   6  -2    0.65    0.12
   0   6  -2    0.77    0.15
   0   6   2    0.64    0.12
   0   6  -2    0.58    0.17
   1   6   2   80.54    2.81
  -1   6  -2   71.55    2.80
  -1   6  -2   85.37    2.82
  -1   6  -2   83.60    2.82
  -1   6  -2   86.41    2.83
   1   6   2   84.07    2.82
   2   6   2   23.68    0.90
  -2   6  -2   24.03    0.91
  -2   6  -2   24.31    0.90
  -2   6  -2   24.35    0.90
   2   6   2   25.38    0.90
   3   6   2    2.08    0.23
  -3   6  -2    2.12    0.20
  -3   6  -2    2.11    0.16
  -3   6  -2    2.12    0.18
  -3   6  -2    2.30    0.19
   3   6   2    1.90    0.16
   4   6   2    7.29    0.33
  -4   6  -2    7.60    0.37
  -4   6  -2    7.53    0.34
  -4   6  -2    7.45    0.34
   5   6   2   43.41    1.54
  -5   6  -2   43.15    1.56
  -5   6  -2   42.93    1.54
  -5   6  -2   45.57    1.55
   6   6   2   31.65    1.13
  -6   6  -2   32.48    1.14
   6   6   2   30.48    1.15
  -6   6  -2   30.91    1.15
  -6   6  -2   32.19    1.14
   7  -6   2   31.51    1.16
  -7   6  -2   30.87    1.15
  -7   6  -2   32.49    1.14
   7   6   2   31.00    1.14
  -7   6  -2   32.23    1.14
   8  -6   2    3.33    0.21
  -8   6  -2    3.02    0.20
  -8   6  -2    3.35    0.19
   8   6   2    3.05    0.23
   9  -6   2    1.44    0.14
  -9   6  -2    1.28    0.13
   9   6   2    1.43    0.19
  -9   6  -2    1.35    0.16
  10  -6   2    0.14    0.07
 -10   6  -2    0.11    0.06
  11  -6   2    4.87    0.25
  11  -6   2    5.09    0.24
 -11   6  -2    5.35    0.23
  12  -6   2    7.04    0.29
 -12   6  -2    7.13    0.28
  11  -7  -2    0.11    0.05
 -11   7   2    0.17    0.05
  11   7  -2   -0.02    0.14
  10  -7  -2    4.04    0.20
  10   7  -2    4.28    0.21
 -10   7   2    3.96    0.19
   9  -7  -2   10.45    0.41
   9   7  -2   10.50    0.41
  -9   7   2    9.93    0.40
   8  -7  -2    2.22    0.15
   8   7  -2    2.41    0.18
  -8   7   2    2.04    0.16
  -8   7   2    2.09    0.14
   8   7  -2    2.08    0.17
   7  -7  -2    0.67    0.12
   7   7  -2    0.53    0.14
   7   7  -2    0.78    0.14
  -7   7   2    0.65    0.11
  -7   7   2    0.46    0.11
   6  -7  -2    0.25    0.08
  -6   7   2    0.22    0.07
   6   7  -2    0.19    0.08
  -6   7   2    0.23    0.07
   6   7  -2    0.44    0.14
   5  -7  -2    0.02    0.07
  -5   7   2    0.06    0.06
   5   7  -2   -0.08    0.08
   5   7  -2    0.11    0.09
  -5   7   2    0.08    0.07
   5   7  -2    0.03    0.07
   4   7  -2    8.42    0.37
  -4   7   2    8.32    0.37
  -4   7   2    8.42    0.36
   4   7  -2    8.71    0.36
   4   7  -2    8.83    0.38
   3   7  -2   40.62    1.41
  -3   7   2   38.54    1.40
  -3   7   2   39.96    1.40
   3   7  -2   39.41    1.40
   3   7  -2   40.24    1.40
  -2   7   2    5.86    0.27
   2   7  -2    5.61    0.27
   2   7  -2    5.56    0.30
   2   7  -2    5.76    0.28
   1   7  -2  104.92    3.53
   1   7  -2  103.90    3.54
   1   7  -2  105.40    3.54
  -1   7   2   99.45    3.53
   0   7  -2   -0.03    0.06
   0   7  -2    0.13    0.10
   0   7  -2    0.04    0.06
   0   7   2    0.04    0.06
  -1   7  -2    2.09    0.16
   1   7   2    1.94    0.15
  -1   7  -2    2.13    0.18
  -1   7  -2    1.73    0.20
   2   7   2   47.68    1.70
  -2   7  -2   49.94    1.71
  -2   7  -2   48.38    1.70
   2   7   2   48.03    1.69
  -3   7  -2    9.56    0.39
  -3   7  -2    8.66    0.39
  -3   7  -2    9.48    0.41
   3   7   2    9.12    0.38
  -4   7  -2    3.00    0.23
   4   7   2    2.87    0.18
  -4   7  -2    3.67    0.19
  -4   7  -2    3.29    0.20
   5   7   2    0.41    0.10
  -5   7  -2    0.76    0.16
  -5   7  -2    0.45    0.10
  -5   7  -2    0.37    0.12
   6  -7   2   -0.02    0.06
  -6   7  -2    0.06    0.07
   6   7   2    0.04    0.06
  -6   7  -2    0.07    0.06
  -6   7  -2    0.06    0.09
   7  -7   2    0.08    0.06
  -7   7  -2   -0.02    0.05
  -7   7  -2    0.18    0.06
   7   7   2   -0.09    0.07
   8  -7   2    2.23    0.15
  -8   7  -2    2.20    0.15
  -8   7  -2    2.05    0.13
   9  -7   2    0.07    0.05
  -9   7  -2    0.03    0.05
  10  -7   2   11.40    0.43
 -10   7  -2   11.58    0.42
   8  -8  -2    0.94    0.10
  -8   8   2    0.90    0.09
   7  -8  -2    1.86    0.12
  -7   8   2    1.87    0.12
  -7   8   2    1.68    0.13
   6  -8  -2    4.54    0.21
  -6   8   2    4.45    0.20
  -6   8   2    4.20    0.20
   5  -8  -2    3.57    0.19
  -5   8   2    3.99    0.19
  -5   8   2    3.91    0.19
   5   8  -2    4.43    0.29
   5   8  -2    3.84    0.19
   5   8  -2    3.99    0.21
   4  -8  -2    0.34    0.11
   4   8  -2    0.32    0.08
  -4   8   2    0.31    0.08
   4   8  -2    0.39    0.09
   4   8  -2    0.23    0.11
  -4   8   2    0.19    0.06
   3  -8  -2    2.11    0.16
  -3   8   2    2.30    0.14
   3   8  -2    2.58    0.20
   3   8  -2    2.38    0.16
   3   8  -2    2.13    0.14
   2  -8  -2    0.14    0.08
  -2   8   2    0.02    0.05
   2   8  -2    0.23    0.11
   2   8  -2    0.10    0.05
   1   8  -2    0.18    0.10
  -1   8   2    0.26    0.08
   1   8  -2    0.22    0.06
   0   8   2    8.53    0.34
   0   8  -2    8.33    0.37
   0   8  -2    8.23    0.34
  -1   8  -2    5.59    0.31
   1   8   2    5.65    0.25
  -1   8  -2    5.54    0.25
   2   8   2    4.15    0.20
  -2   8  -2    3.84    0.20
  -3   8  -2   11.68    0.45
   3   8   2   11.58    0.44
   4  -8   2    6.62    0.29
   4   8   2    7.12    0.28
  -4   8  -2    6.77    0.28
  -4   8  -2    6.56    0.28
   5  -8   2    1.30    0.11
  -5   8  -2    1.34    0.12
   5   8   2    1.17    0.11
  -5   8  -2    1.12    0.10
   6  -8   2    5.42    0.24
   6   8   2    5.78    0.24
  -6   8  -2    5.75    0.23
  -6   8  -2    4.92    0.22
   7  -8   2    0.29    0.07
  -7   8  -2    0.08    0.06
  -7   8  -2    0.20    0.06
   2   9  -2    0.06    0.05
  -2   9   2    0.21    0.06
   1   9  -2    3.01    0.14
  -1   9   2    2.83    0.13
   0  -9   2    0.67    0.11
   0   9   2    0.72    0.07
   0   9  -2    0.62    0.07
   1  -9   2    0.54    0.09
   1   9   2    0.50    0.07
  -1   9  -2    0.46    0.06
  17   0  -3    1.54    0.13
  17   0  -3    1.72    0.14
 -16   0   3   -0.06    0.09
  16   0  -3    0.02    0.06
  16   0  -3    0.02    0.07
  15   0  -3    9.15    0.40
  15   0  -3    9.68    0.39
 -15   0   3    9.11    0.43
  14   0  -3    0.06    0.08
  14   0  -3    0.13    0.07
 -14   0   3    0.00    0.08
 -13   0   3   17.46    0.71
  13   0  -3   16.51    0.67
  13   0  -3   16.86    0.65
  12   0  -3    0.06    0.09
 -12   0   3    0.20    0.09
  12   0  -3    0.03    0.07
  11   0  -3  109.15    3.71
  11   0  -3  108.21    3.72
  10   0  -3    0.15    0.09
  10   0  -3    0.11    0.10
   9   0  -3   23.42    0.89
  -9   0   3   23.77    0.88
  -8   0   3   -0.07    0.09
   8   0  -3    0.04    0.07
  -7   0   3   26.47    0.93
   7   0  -3   25.59    0.95
   6   0  -3    0.10    0.07
  -6   0   3    0.14    0.06
  -5   0   3   23.07    0.81
   4   0  -3    0.03    0.03
  -4   0   3    0.01    0.03
   3   0  -3   63.67    2.23
  -3   0   3   68.15    2.23
  -2   0   3    0.02    0.02
   2   0  -3    0.01    0.02
  -1   0   3   17.35    0.60
   1   0  -3   17.66    0.60
   0   0  -3    0.04    0.01
   0   0   3    0.06    0.01
  -5   0  -3   65.70    2.26
  -6   0  -3    0.04    0.06
  -7   0  -3   61.96    2.15
  -8   0  -3    0.28    0.11
   8   0   3    0.04    0.09
   9   0   3    8.23    0.38
  -9   0  -3    8.51    0.38
  10   0   3    0.16    0.09
 -10   0  -3    0.10    0.08
 -11   0  -3   12.79    0.55
  11   0   3   13.19    0.54
  12   0   3    0.11    0.08
 -12   0  -3   -0.05    0.09
 -13   0  -3    7.15    0.36
  13   0   3    7.32    0.34
  14   0   3    0.03    0.06
  15   0   3    8.86    0.37
  16   0   3   -0.01    0.05
  17  -1  -3    5.41    0.24
  17  -1  -3    5.33    0.24
 -17  -1   3    5.51    0.29
  17   1  -3    5.41    0.24
  16  -1  -3    3.02    0.18
  16  -1  -3    3.07    0.18
 -16  -1   3    2.89    0.21
  16   1  -3    3.04    0.18
  16   1  -3    3.16    0.18
 -15  -1   3   25.95    1.01
  15  -1  -3   26.47    0.98
  15  -1  -3   27.52    0.97
 -15   1   3   24.95    1.00
  15   1  -3   27.77    0.98
  15   1  -3   27.17    0.96
 -14  -1   3   12.81    0.57
  14  -1  -3   13.21    0.53
  14  -1  -3   13.73    0.54
  14   1  -3   13.27    0.54
 -14   1   3   12.59    0.56
  14   1  -3   13.48    0.52
  13  -1  -3    8.81    0.40
 -13  -1   3    8.71    0.43
  13  -1  -3    9.24    0.39
  13   1  -3    8.58    0.39
 -13   1   3    8.70    0.43
  13   1  -3    9.07    0.39
  12  -1  -3    3.10    0.21
  12  -1  -3    2.95    0.22
 -12  -1   3    2.94    0.23
  12   1  -3    2.90    0.21
 -12   1   3    3.16    0.24
  12   1  -3    3.12    0.21
  11  -1  -3    5.09    0.28
  11  -1  -3    5.11    0.29
 -11  -1   3    5.42    0.30
  11   1  -3    5.15    0.27
  11   1  -3    5.07    0.28
  10  -1  -3    2.37    0.21
  10  -1  -3    2.02    0.19
  10   1  -3    2.41    0.19
  10   1  -3    2.29    0.19
   9  -1  -3   11.26    0.47
  -9  -1   3   11.73    0.49
   9   1  -3   10.84    0.46
   9   1  -3   11.77    0.47
   8  -1  -3    1.11    0.15
  -8  -1   3    1.10    0.14
   7  -1  -3  101.65    3.61
  -7  -1   3  109.88    3.59
   7  -1  -3  105.47    3.59
  -7  -1   3  104.22    3.60
  -7   1   3  104.96    3.59
   7   1  -3  108.02    3.61
   6  -1  -3    4.18    0.19
  -6  -1   3    4.29    0.20
  -6  -1   3    3.55    0.19
   6   1  -3    4.45    0.22
  -6   1   3    4.49    0.20
  -5  -1   3    2.13    0.12
   5  -1  -3    2.48    0.12
  -5  -1   3    2.28    0.12
  -5   1   3    2.14    0.12
  -4  -1   3    4.23    0.17
  -4  -1   3    4.21    0.18
   4  -1  -3    4.01    0.17
  -4   1   3    4.16    0.17
   3  -1  -3  203.98    6.92
  -3  -1   3  197.95    6.90
  -3   1   3  207.19    6.88
  -2  -1   3  410.76   13.80
   2  -1  -3  404.46   13.82
  -2   1   3  411.64   13.79
   1  -1  -3  203.44    7.09
  -1  -1   3  210.05    7.11
  -1   1   3  215.08    7.09
   0  -1  -3  396.41   12.84
   0  -1   3  354.83   12.81
   0   1   3  390.96   12.84
   1  -1   3  302.60    9.92
  -1  -1  -3  286.67    9.94
   1   1   3  290.54    9.94
  -1   1  -3  298.86    9.92
   2  -1   3  218.02    7.55
  -2  -1  -3  215.92    7.58
  -2   1  -3  240.91    7.55
   2   1   3  223.27    7.58
  -3  -1  -3  198.33    6.94
   3  -1   3  205.38    6.89
   3   1   3  200.74    6.93
  -3   1  -3  216.15    6.89
  -4  -1  -3  117.28    4.16
  -4  -1  -3  128.44    4.16
  -5  -1  -3  175.37    5.98
  -5  -1  -3  185.30    5.99
  -5  -1  -3  171.16    5.99
  -7  -1  -3    2.01    0.15
  -7   1  -3    1.70    0.16
  -8  -1  -3    1.05    0.13
   8   1   3    0.95    0.17
  -8   1  -3    1.14    0.15
  -9  -1  -3    5.14    0.28
   9  -1   3    4.54    0.32
  -9   1  -3    5.12    0.29
  -9   1  -3    4.77    0.27
   9   1   3    5.34    0.27
  10  -1   3   20.81    0.78
  10  -1   3   19.77    0.77
 -10  -1  -3   21.13    0.80
 -10   1  -3   19.32    0.76
 -10   1  -3   19.94    0.78
  10   1   3   20.04    0.77
  11  -1   3   20.07    0.79
 -11  -1  -3   20.95    0.81
  11   1   3   20.46    0.78
  12  -1   3   29.48    1.09
 -12  -1  -3   29.28    1.11
  12   1   3   29.19    1.07
 -13  -1  -3    5.89    0.33
  13  -1   3    6.48    0.32
  13   1   3    6.75    0.31
  14  -1   3    9.32    0.39
 -14  -1  -3    8.85    0.42
  14   1   3    9.07    0.38
 -15  -1  -3    6.89    0.34
  15  -1   3    6.97    0.30
  15   1   3    6.93    0.30
  16  -1   3    8.88    0.35
  16   1   3    8.68    0.34
  17  -2  -3    6.47    0.29
  17   2  -3    7.08    0.28
 -16  -2   3   18.12    0.68
  16  -2  -3   17.81    0.64
  16  -2  -3   16.50    0.64
  16   2  -3   16.78    0.64
  16   2  -3   17.10    0.63
 -15  -2   3    0.38    0.13
  15  -2  -3    0.45    0.12
  15  -2  -3    0.79    0.14
  15   2  -3    0.48    0.11
  15   2  -3    0.43    0.14
  14  -2  -3    4.29    0.24
  14  -2  -3    4.49    0.25
 -14  -2   3    3.79    0.26
  14   2  -3    4.06    0.23
  14   2  -3    4.18    0.24
 -13  -2   3    1.20    0.17
  13  -2  -3    1.39    0.17
  13  -2  -3    1.56    0.19
  13   2  -3    1.40    0.16
  13   2  -3    1.29    0.16
  12  -2  -3    1.73    0.17
  12  -2  -3    1.39    0.19
 -12  -2   3    1.06    0.17
  12   2  -3    1.26    0.16
  12   2  -3    1.47    0.17
 -11  -2   3   24.79    0.92
  11  -2  -3   21.13    0.89
  11  -2  -3   24.33    0.89
  11   2  -3   23.79    0.87
 -11   2   3   23.31    0.88
  11   2  -3   25.04    0.89
  10  -2  -3   16.48    0.65
 -10  -2   3   16.82    0.67
  10  -2  -3   16.55    0.64
  10   2  -3   16.55    0.62
  10   2  -3   16.00    0.63
 -10   2   3   15.40    0.64
   9  -2  -3   21.94    0.82
   9  -2  -3   21.87    0.80
   9  -2  -3   18.21    0.87
   9   2  -3   22.80    0.80
   9   2  -3   22.11    0.79
  -9   2   3   21.40    0.81
  -8  -2   3    0.38    0.16
   8  -2  -3    0.42    0.16
   8  -2  -3    0.21    0.12
   8  -2  -3    0.08    0.08
   8   2  -3    0.26    0.10
   7  -2  -3    0.32    0.10
   7  -2  -3    0.39    0.11
  -7  -2   3    0.34    0.11
   6  -2  -3   10.32    0.42
  -6  -2   3   10.94    0.42
  -6  -2   3   10.55    0.44
  -6   2   3   10.54    0.42
  -5  -2   3   34.78    1.24
   5  -2  -3   35.87    1.25
  -5   2   3   36.20    1.24
  -4  -2   3   23.28    0.82
   4  -2  -3   23.18    0.83
  -4   2   3   23.43    0.82
  -3  -2   3  250.54    8.48
   3  -2  -3  236.23    8.39
  -3   2   3  262.08    8.49
   2  -2  -3  571.60   19.73
  -2  -2   3  589.90   19.69
  -2   2   3  582.77   19.70
   2   2  -3  590.76   19.71
   1  -2  -3   59.31    2.00
  -1  -2   3   56.38    1.99
  -1   2   3   60.66    2.00
   0  -2  -3   16.26    0.56
   0  -2   3   16.53    0.56
   0   2   3   15.23    0.56
   0   2  -3   15.18    0.56
  -1  -2  -3   19.75    0.68
   1  -2   3   19.40    0.67
  -1   2  -3   18.77    0.67
   1   2   3   19.07    0.68
   2  -2   3    0.10    0.03
  -2  -2  -3    0.06    0.03
   2   2   3    0.12    0.04
  -2   2  -3    0.14    0.03
  -3  -2  -3   52.78    1.83
   3  -2   3   54.90    1.82
  -3  -2  -3   52.06    1.85
  -3   2  -3   54.18    1.82
   3   2   3   55.10    1.84
  -4  -2  -3    3.88    0.17
   4  -2   3    3.85    0.16
  -4  -2  -3    3.79    0.20
  -4   2  -3    3.85    0.16
   4   2   3    3.73    0.18
   5  -2   3   28.46    0.97
  -5  -2  -3   27.68    0.98
  -5  -2  -3   28.28    1.01
  -7  -2  -3   25.63    0.91
   7   2   3   23.81    0.92
  -7   2  -3   24.18    0.89
  -7   2  -3   23.64    0.90
  -8  -2  -3    4.03    0.23
   8  -2   3    3.73    0.27
   8   2   3    3.88    0.25
  -8   2  -3    3.43    0.24
   9  -2   3    5.50    0.32
  -9  -2  -3    5.92    0.30
   9   2   3    5.45    0.29
  -9   2  -3    5.62    0.29
 -10  -2  -3   31.88    1.15
  10  -2   3   29.40    1.12
 -10   2  -3   30.32    1.11
  10   2   3   31.22    1.12
 -11  -2  -3   15.41    0.66
  11  -2   3   15.74    0.63
  11  -2   3   16.07    0.64
 -11   2  -3   15.74    0.61
  11   2   3   15.75    0.63
  12  -2   3   10.56    0.46
 -12  -2  -3    9.81    0.48
  12  -2   3   11.16    0.47
  12   2   3   10.84    0.45
 -12   2  -3   10.74    0.45
 -13  -2  -3    6.19    0.34
  13  -2   3    6.94    0.33
  13   2   3    6.86    0.32
 -14  -2  -3    0.08    0.08
  14  -2   3    0.06    0.06
  14   2   3    0.13    0.06
  15  -2   3    0.15    0.06
 -15  -2  -3    0.21    0.10
  15   2   3    0.23    0.06
  16  -2   3    0.19    0.05
  16   2   3    0.16    0.05
  16  -3  -3    1.14    0.11
  16  -3  -3    1.04    0.17
 -16  -3   3    1.13    0.15
  16   3  -3    1.09    0.11
  15  -3  -3    2.04    0.18
 -15  -3   3    1.89    0.17
  15  -3  -3    2.08    0.15
  15   3  -3    1.97    0.15
  15   3  -3    1.68    0.17
  14  -3  -3    1.14    0.14
  14  -3  -3    0.91    0.17
 -14  -3   3    1.10    0.15
  14   3  -3    1.12    0.15
  14   3  -3    1.34    0.14
 -13  -3   3    5.41    0.31
  13  -3  -3    6.00    0.32
  13  -3  -3    6.05    0.30
  13   3  -3    6.25    0.29
 -13   3   3    5.84    0.31
  13   3  -3    5.95    0.29
  12  -3  -3    0.09    0.09
 -12  -3   3    0.12    0.08
  12  -3  -3    0.12    0.10
  12   3  -3    0.21    0.09
 -12   3   3    0.16    0.11
  12   3  -3    0.19    0.07
  11  -3  -3   16.14    0.65
  11  -3  -3   16.32    0.64
 -11  -3   3   16.04    0.67
  11   3  -3   15.88    0.64
  11   3  -3   16.54    0.62
 -11   3   3   16.03    0.63
  10  -3  -3    0.48    0.16
 -10  -3   3    0.50    0.14
  10  -3  -3    0.49    0.13
 -10   3   3    0.75    0.17
  10   3  -3    0.61    0.11
  10   3  -3    0.47    0.14
   9  -3  -3    9.28    0.41
  -9  -3   3    9.39    0.43
   9   3  -3    9.89    0.41
  -9   3   3    8.84    0.41
   9   3  -3    9.70    0.41
  -8  -3   3   12.60    0.51
   8  -3  -3   11.92    0.50
  -8   3   3   12.42    0.50
   8   3  -3   11.99    0.49
   8   3  -3   12.65    0.50
   7  -3  -3   36.20    1.32
  -7  -3   3   33.65    1.29
   7  -3  -3   37.35    1.28
   7   3  -3   35.89    1.27
  -7   3   3   36.36    1.28
   7   3  -3   36.35    1.28
   6  -3  -3   13.07    0.55
  -6  -3   3   14.02    0.54
  -6  -3   3   13.81    0.55
   5  -3  -3   12.91    0.53
  -5  -3   3   13.90    0.53
  -4  -3   3    4.07    0.21
   4  -3  -3    4.58    0.22
  -4   3   3    3.97    0.22
  -3  -3   3   32.43    1.14
   3  -3  -3   33.36    1.15
   3   3  -3   32.26    1.16
  -3   3   3   32.21    1.15
  -2  -3   3   21.04    0.75
   2  -3  -3   20.73    0.76
  -2   3   3   20.38    0.75
   2   3  -3   21.18    0.76
  -1  -3   3   16.37    0.59
   1  -3  -3   16.08    0.60
  -1   3   3   15.96    0.60
   1   3  -3   16.12    0.60
   0  -3   3   40.37    1.40
   0  -3  -3   42.22    1.41
   0   3   3   39.30    1.40
   0   3  -3   39.70    1.40
   1  -3   3    5.26    0.23
  -1  -3  -3    5.49    0.24
  -1   3  -3    5.35    0.23
   1   3   3    5.03    0.24
  -2  -3  -3   16.26    0.60
  -2  -3  -3   16.08    0.59
   2  -3   3   15.99    0.58
  -2   3  -3   16.56    0.59
   2   3   3   14.94    0.60
   3  -3   3  104.39    3.61
  -3  -3  -3  107.02    3.63
  -3  -3  -3  111.26    3.62
   3   3   3  102.70    3.62
  -3   3  -3  107.11    3.61
   4  -3   3   29.71    1.07
  -4  -3  -3   32.25    1.10
  -4  -3  -3   31.61    1.09
   4   3   3   28.65    1.10
  -5  -3  -3   40.90    1.45
   5  -3   3   40.15    1.43
  -5  -3  -3   42.53    1.46
  -6  -3  -3    3.68    0.22
  -6  -3  -3    3.61    0.26
  -6   3  -3    3.76    0.23
  -6   3  -3    3.51    0.22
  -6   3  -3    3.19    0.25
  -7  -3  -3   10.65    0.44
  -7   3  -3   11.07    0.43
  -7   3  -3    9.74    0.44
  -7   3  -3    9.94    0.43
   7   3   3    9.37    0.44
   8  -3   3    0.04    0.11
  -8  -3  -3    0.05    0.07
  -8   3  -3    0.17    0.12
  -8   3  -3   -0.08    0.08
   8   3   3    0.14    0.10
  -9  -3  -3   11.74    0.50
   9  -3   3   11.00    0.48
   9   3   3   11.17    0.48
  -9   3  -3   10.93    0.47
  10  -3   3    4.31    0.27
 -10  -3  -3    4.37    0.27
  10   3   3    4.27    0.26
 -10   3  -3    4.67    0.25
 -11  -3  -3    5.53    0.32
  11  -3   3    6.06    0.32
  11   3   3    6.43    0.31
 -11   3  -3    6.56    0.31
 -12  -3  -3   28.66    1.19
  12  -3   3   32.41    1.19
  12  -3   3   33.71    1.17
  12   3   3   33.29    1.17
 -12   3  -3   33.68    1.16
  13  -3   3    1.20    0.15
  13  -3   3    1.46    0.19
 -13  -3  -3    1.09    0.15
 -13   3  -3    1.27    0.16
  13   3   3    1.14    0.13
  14  -3   3    1.38    0.13
 -14  -3  -3    1.51    0.16
  14   3   3    1.55    0.14
 -15  -3  -3    8.55    0.40
  15  -3   3    8.59    0.34
  15   3   3    8.53    0.33
  16  -4  -3    0.04    0.05
  16   4  -3    0.06    0.05
 -15  -4   3    0.96    0.15
  15  -4  -3    1.10    0.11
  15   4  -3    0.80    0.11
  14  -4  -3   33.64    1.18
 -14  -4   3   30.31    1.20
  14   4  -3   34.13    1.17
 -14   4   3   33.76    1.17
  14   4  -3   33.80    1.18
 -13  -4   3    0.05    0.08
  13  -4  -3   -0.03    0.10
  13  -4  -3   -0.04    0.08
  13   4  -3    0.12    0.07
 -13   4   3    0.01    0.09
  13   4  -3    0.03    0.09
  12  -4  -3    1.01    0.15
 -12  -4   3    1.07    0.16
 -12   4   3    0.81    0.15
  12   4  -3    0.82    0.15
  12   4  -3    1.12    0.15
  11  -4  -3    1.47    0.17
 -11  -4   3    1.49    0.18
  11   4  -3    1.63    0.17
 -11   4   3    1.76    0.17
  11   4  -3    1.60    0.16
  10  -4  -3    6.12    0.32
 -10  -4   3    6.27    0.33
  10   4  -3    6.37    0.30
  10   4  -3    6.29    0.31
 -10   4   3    6.09    0.31
   9  -4  -3   40.21    1.45
  -9  -4   3   40.98    1.47
   9   4  -3   39.83    1.43
  -9   4   3   40.96    1.44
   9   4  -3   40.49    1.44
   8  -4  -3    0.80    0.16
  -8  -4   3    0.39    0.14
   8   4  -3    0.61    0.15
  -8   4   3    0.43    0.11
  -7  -4   3   32.93    1.19
   7  -4  -3   33.88    1.19
   7   4  -3   33.60    1.18
   7   4  -3   31.95    1.17
  -7   4   3   31.88    1.18
  -6  -4   3   48.87    1.86
  -6   4   3   55.04    1.86
   6   4  -3   54.50    1.86
   6   4  -3   54.56    1.85
  -6   4   3   54.06    1.85
  -5  -4   3   33.17    1.17
   5   4  -3   32.09    1.16
  -5   4   3   32.91    1.16
   5   4  -3   32.02    1.16
   4   4  -3    0.90    0.15
   4   4  -3    0.71    0.17
  -4   4   3    0.60    0.11
  -3  -4   3    5.70    0.29
   3  -4  -3    5.08    0.30
   2  -4  -3    6.95    0.35
  -2  -4   3    7.51    0.34
  -1  -4   3    1.17    0.14
   1  -4  -3    0.95    0.16
   0  -4  -3    0.27    0.12
   0  -4   3    0.19    0.09
   1  -4   3    1.69    0.16
  -1  -4  -3    1.50    0.18
  -1  -4  -3    1.53    0.18
  -2  -4  -3   81.04    2.77
  -2  -4  -3   80.22    2.75
   2  -4   3   81.16    2.75
  -2   4  -3   77.57    2.76
   3  -4   3    7.50    0.37
  -3  -4  -3    8.07    0.35
  -3   4  -3    7.11    0.35
  -3   4  -3    7.64    0.34
  -3   4  -3    7.58    0.38
  -3   4  -3    8.13    0.36
   3   4   3    8.17    0.33
  -4  -4  -3    0.21    0.08
  -4   4  -3    0.17    0.08
   4   4   3    0.39    0.12
  -4   4  -3    0.15    0.09
  -4   4  -3    0.31    0.11
  -5  -4  -3   18.90    0.71
  -5   4  -3   19.01    0.70
   5   4   3   19.05    0.69
  -5   4  -3   18.64    0.69
   5   4   3   16.99    0.71
  -5   4  -3   17.66    0.72
  -6  -4  -3   51.61    1.76
  -6   4  -3   48.66    1.76
  -6   4  -3   50.44    1.74
  -6   4  -3   50.81    1.73
   6   4   3   50.09    1.72
   6   4   3   45.76    1.73
  -7  -4  -3    0.05    0.08
  -7   4  -3    0.11    0.10
  -7   4  -3    0.04    0.09
   7   4   3   -0.03    0.09
  -7   4  -3    0.12    0.09
  -8  -4  -3    0.54    0.14
   8  -4   3    0.77    0.17
  -8   4  -3    0.77    0.17
  -8   4  -3    0.84    0.14
  -8   4  -3    0.53    0.17
   8   4   3    0.80    0.20
   9  -4   3    3.19    0.23
  -9  -4  -3    3.06    0.23
  -9   4  -3    3.75    0.22
   9   4   3    3.54    0.25
  -9   4  -3    3.92    0.24
 -10  -4  -3   -0.08    0.07
  10  -4   3   -0.06    0.09
 -10   4  -3   -0.13    0.07
  10   4   3   -0.01    0.09
  11  -4   3    8.11    0.37
 -11  -4  -3    7.54    0.39
  11   4   3    8.27    0.36
 -11   4  -3    8.60    0.36
  12  -4   3    0.40    0.12
 -12  -4  -3    0.50    0.13
  12  -4   3    0.91    0.16
  12   4   3    0.46    0.14
 -12   4  -3    0.44    0.12
  13  -4   3    0.39    0.10
 -13  -4  -3    0.29    0.12
  13  -4   3    0.46    0.11
 -13   4  -3    0.52    0.12
  13   4   3    0.22    0.08
 -14  -4  -3    3.78    0.22
  14  -4   3    3.49    0.18
  14   4   3    3.01    0.19
  15  -5  -3    3.15    0.15
  15   5  -3    2.74    0.15
  14  -5  -3   -0.01    0.06
  14   5  -3    0.00    0.05
 -14   5   3    0.01    0.07
 -13  -5   3    1.27    0.19
  13  -5  -3    1.51    0.14
 -13   5   3    1.39    0.13
  13   5  -3    1.37    0.13
  12  -5  -3   17.85    0.69
 -12  -5   3   17.76    0.71
 -12   5   3   18.13    0.67
  12   5  -3   18.23    0.67
  12   5  -3   18.11    0.68
 -11  -5   3    2.29    0.21
  11  -5  -3    2.53    0.19
  11   5  -3    2.26    0.18
  11   5  -3    2.24    0.18
 -11   5   3    2.52    0.18
  10  -5  -3    1.37    0.17
 -10  -5   3    1.37    0.20
 -10   5   3    1.65    0.15
  10   5  -3    1.40    0.16
  10   5  -3    1.28    0.17
   9  -5  -3    9.01    0.41
  -9  -5   3    8.74    0.43
  -9   5   3    9.17    0.40
   9   5  -3    9.49    0.40
   9   5  -3    9.02    0.39
  -8  -5   3   44.02    1.58
   8  -5  -3   46.87    1.59
   8   5  -3   44.03    1.57
  -8   5   3   44.00    1.56
   8   5  -3   42.35    1.55
   7  -5  -3    4.18    0.26
  -7   5   3    4.21    0.24
  -7   5   3    4.24    0.25
   7   5  -3    4.12    0.24
   7   5  -3    4.34    0.25
  -6   5   3    0.61    0.13
   6   5  -3    0.57    0.11
  -6   5   3    0.62    0.15
   6   5  -3    0.50    0.10
   5   5  -3   13.79    0.56
  -5   5   3   13.53    0.54
  -5   5   3   13.84    0.55
   5   5  -3   14.42    0.55
   5   5  -3   14.17    0.55
  -4   5   3   14.18    0.56
  -4   5   3   14.71    0.56
   4   5  -3   14.57    0.56
   4   5  -3   13.91    0.56
   4   5  -3   14.39    0.57
  -3   5   3    4.93    0.26
   3   5  -3    5.11    0.27
  -3   5   3    5.29    0.25
   3   5  -3    4.75    0.26
   3   5  -3    4.70    0.25
   2   5  -3   54.49    1.85
  -2   5   3   52.76    1.86
  -2   5   3   51.90    1.85
  -2   5   3   54.16    1.85
   2   5  -3   53.08    1.86
   2   5  -3   53.17    1.85
   1   5  -3    4.64    0.24
   1   5  -3    4.28    0.26
  -1   5   3    4.25    0.25
  -1   5   3    3.96    0.26
  -1   5   3    3.89    0.22
   1   5  -3    4.51    0.23
   0   5   3   53.02    1.73
   0   5   3   45.90    1.72
   0   5  -3   49.62    1.74
   0   5  -3   46.54    1.73
   0   5   3   47.80    1.73
   0   5  -3   50.68    1.73
   0   5  -3   52.85    1.73
  -1   5  -3    5.65    0.31
  -1   5  -3    6.37    0.28
   1   5   3    5.29    0.35
   1   5   3    6.07    0.28
  -1   5  -3    5.94    0.32
  -1   5  -3    6.21    0.30
  -2   5  -3    8.26    0.40
  -2   5  -3    8.82    0.38
  -2   5  -3    8.14    0.38
  -2   5  -3    8.64    0.36
   2   5   3    8.55    0.36
  -3  -5  -3   30.10    1.07
  -3   5  -3   26.71    0.99
  -3   5  -3   26.77    0.99
  -3   5  -3   27.49    0.99
   3   5   3   26.12    0.98
  -3   5  -3   25.88    1.00
  -4  -5  -3   30.68    1.13
  -4   5  -3   30.54    1.11
  -4   5  -3   33.09    1.13
  -4   5  -3   29.78    1.11
   4   5   3   30.52    1.10
  -5  -5  -3    0.03    0.10
  -5   5  -3    0.00    0.07
  -5   5  -3    0.15    0.09
   5   5   3   -0.08    0.07
  -5   5  -3    0.11    0.08
  -6  -5  -3   11.19    0.48
   6   5   3   10.52    0.44
  -6   5  -3   10.88    0.48
  -6   5  -3   10.90    0.45
   6   5   3   10.50    0.47
  -6   5  -3   10.77    0.45
  -7  -5  -3    1.65    0.19
  -7   5  -3    1.05    0.19
  -7   5  -3    1.72    0.16
  -7   5  -3    1.44    0.16
   7   5   3    1.48    0.23
  -8  -5  -3   28.22    1.09
   8  -5   3   30.49    1.08
  -8   5  -3   28.86    1.06
   8   5   3   28.51    1.06
  -8   5  -3   29.74    1.06
   9  -5   3    7.80    0.36
  -9  -5  -3    7.36    0.37
   9   5   3    7.77    0.36
  -9   5  -3    7.28    0.34
  -9   5  -3    7.47    0.34
 -10  -5  -3    7.35    0.35
  10  -5   3    7.47    0.33
 -10   5  -3    6.14    0.31
  10   5   3    6.97    0.33
  11  -5   3    2.52    0.19
  11  -5   3    2.61    0.19
 -11  -5  -3    2.55    0.20
  11   5   3    2.48    0.20
 -11   5  -3    2.59    0.16
  12  -5   3    0.17    0.08
 -12  -5  -3    0.03    0.10
  12  -5   3    0.08    0.06
 -12   5  -3    0.04    0.06
  12   5   3    0.07    0.10
  13  -5   3    2.55    0.17
  13  -5   3    2.89    0.16
 -13   5  -3    3.00    0.15
  13  -6  -3    0.05    0.05
  13   6  -3    0.06    0.05
 -13   6   3   -0.01    0.05
  12  -6  -3    1.53    0.13
  12   6  -3    1.45    0.12
 -12   6   3    1.49    0.12
  11  -6  -3    0.13    0.07
  11   6  -3    0.10    0.06
 -11   6   3    0.12    0.06
  11   6  -3   -0.03    0.09
  10  -6  -3    2.30    0.18
  10   6  -3    2.19    0.17
 -10   6   3    2.12    0.16
  10   6  -3    2.67    0.17
   9  -6  -3    7.15    0.33
   9   6  -3    6.67    0.32
  -9   6   3    6.97    0.32
   9   6  -3    7.12    0.32
   8  -6  -3    5.01    0.26
  -8   6   3    4.17    0.25
  -8   6   3    4.65    0.24
   8   6  -3    4.20    0.25
   8   6  -3    4.60    0.25
   7  -6  -3    8.16    0.38
   7   6  -3    8.71    0.38
   7   6  -3    8.81    0.37
  -7   6   3    8.10    0.37
  -7   6   3    8.20    0.37
   6  -6  -3    7.25    0.35
  -6   6   3    7.61    0.33
  -6   6   3    7.03    0.34
   6   6  -3    7.32    0.35
   6   6  -3    7.45    0.34
  -5   6   3   12.54    0.50
   5   6  -3   12.24    0.50
  -5   6   3   12.60    0.51
   5   6  -3   12.75    0.51
   5   6  -3   12.91    0.52
  -4   6   3   33.07    1.18
   4   6  -3   33.42    1.20
  -4   6   3   32.06    1.18
   4   6  -3   32.96    1.18
   4   6  -3   33.82    1.19
  -3   6   3    1.00    0.13
  -3   6   3    0.61    0.15
   3   6  -3    0.90    0.17
   3   6  -3    0.83    0.13
   3   6  -3    0.63    0.15
   2   6  -3   24.80    0.89
   2   6  -3   24.04    0.89
   2   6  -3   24.08    0.90
  -2   6   3   23.99    0.88
  -2   6   3   23.75    0.89
  -1   6   3    8.65    0.38
   1   6  -3    8.62    0.38
   1   6  -3    8.85    0.40
   1   6  -3    9.13    0.38
  -1   6   3    8.70    0.39
   0   6  -3    2.68    0.21
   0   6  -3    2.52    0.18
   0   6   3    2.78    0.24
   0   6  -3    2.78    0.20
   0   6   3    2.78    0.18
  -1   6  -3    0.39    0.11
  -1   6  -3    0.41    0.11
   1   6   3    0.51    0.11
  -1   6  -3    0.53    0.12
   1   6   3    0.57    0.19
  -1   6  -3    0.34    0.12
  -2   6  -3    7.97    0.37
  -2   6  -3    7.64    0.36
   2   6   3    7.87    0.34
  -2   6  -3    7.22    0.35
  -2   6  -3    8.09    0.35
  -3   6  -3   41.97    1.48
  -3   6  -3   41.05    1.47
   3   6   3   40.91    1.47
  -3   6  -3   43.82    1.50
  -3   6  -3   40.67    1.48
  -4   6  -3    6.68    0.31
   4   6   3    6.76    0.31
  -4   6  -3    6.45    0.32
  -4   6  -3    7.12    0.35
   5   6   3   28.53    1.03
  -5   6  -3   28.01    1.03
  -5   6  -3   29.06    1.04
  -5   6  -3   28.17    1.05
   6   6   3    2.94    0.18
  -6   6  -3    2.74    0.22
  -6   6  -3    2.83    0.19
  -6   6  -3    2.93    0.19
   7  -6   3   23.26    0.88
  -7   6  -3   23.22    0.86
  -7   6  -3   23.56    0.87
  -7   6  -3   23.68    0.88
   8  -6   3   48.79    1.73
  -8   6  -3   49.66    1.71
  -8   6  -3   49.22    1.72
   9  -6   3   12.50    0.49
  -9   6  -3   12.08    0.48
  -9   6  -3   12.20    0.48
  10  -6   3    0.66    0.11
 -10   6  -3    0.82    0.10
  11  -6   3    0.22    0.07
  11  -6   3    0.17    0.07
 -11   6  -3    0.14    0.05
  12  -6   3    4.95    0.21
 -12   6  -3    4.81    0.20
  11  -7  -3    1.92    0.12
 -11   7   3    1.74    0.11
  11   7  -3    2.10    0.14
  10  -7  -3   12.33    0.47
  10   7  -3   12.17    0.46
 -10   7   3   12.13    0.46
   9  -7  -3    0.49    0.11
   9   7  -3    0.53    0.11
  -9   7   3    0.45    0.09
   9   7  -3    0.56    0.12
   8  -7  -3    0.73    0.12
   8   7  -3    0.88    0.13
   8   7  -3    0.86    0.13
  -8   7   3    1.16    0.15
  -8   7   3    0.72    0.11
   7  -7  -3    0.81    0.13
  -7   7   3    0.97    0.12
   7   7  -3    0.76    0.13
   7   7  -3    1.00    0.14
  -7   7   3    0.87    0.11
   6  -7  -3    0.22    0.08
   6   7  -3    0.39    0.14
   6   7  -3    0.02    0.08
  -6   7   3    0.20    0.07
  -6   7   3    0.25    0.07
   6   7  -3    0.28    0.08
   5  -7  -3    1.77    0.16
   5   7  -3    1.32    0.14
   5   7  -3    1.74    0.16
   5   7  -3    1.80    0.17
  -5   7   3    1.57    0.14
  -5   7   3    1.65    0.15
  -4   7   3    9.84    0.42
   4   7  -3   10.32    0.43
  -4   7   3    9.95    0.41
   4   7  -3   10.35    0.42
   4   7  -3   10.14    0.41
  -3   7   3   16.37    0.63
   3   7  -3   16.79    0.64
  -3   7   3   17.16    0.63
   3   7  -3   16.13    0.63
   3   7  -3   16.27    0.63
   2   7  -3    8.10    0.37
   2   7  -3    8.17    0.35
   2   7  -3    7.54    0.34
  -2   7   3    7.89    0.34
  -1   7   3   30.91    1.09
   1   7  -3   31.10    1.10
   1   7  -3   29.70    1.09
   1   7  -3   29.82    1.11
   0   7  -3   17.29    0.66
   0   7  -3   16.70    0.67
   0   7   3   17.09    0.65
   0   7  -3   17.51    0.66
  -1   7  -3   12.47    0.52
  -1   7  -3   12.95    0.51
  -1   7  -3   13.01    0.52
   1   7   3   12.61    0.50
   2   7   3    7.09    0.31
  -2   7  -3    6.66    0.32
  -2   7  -3    7.35    0.34
   3   7   3   20.20    0.78
  -3   7  -3   22.11    0.78
  -3   7  -3   21.39    0.80
  -3   7  -3   20.74    0.78
  -4   7  -3   18.54    0.66
   4   7   3   14.88    0.64
  -4   7  -3   18.16    0.66
  -4   7  -3   18.21    0.68
  -5   7  -3    1.60    0.14
  -5   7  -3    1.52    0.13
   5   7   3    1.60    0.13
  -5   7  -3    1.96    0.17
   6  -7   3    0.13    0.06
  -6   7  -3    0.09    0.08
  -6   7  -3    0.17    0.06
   6   7   3    0.34    0.10
  -6   7  -3    0.17    0.07
   7  -7   3    8.18    0.34
  -7   7  -3    7.81    0.33
  -7   7  -3    8.38    0.33
   8  -7   3    5.26    0.24
  -8   7  -3    5.09    0.23
  -8   7  -3    5.03    0.23
   9  -7   3    3.57    0.18
   9  -7   3    3.85    0.21
  -9   7  -3    3.36    0.17
  10  -7   3   16.40    0.58
 -10   7  -3   16.15    0.58
   8  -8  -3   10.83    0.40
  -8   8   3   10.50    0.39
   7  -8  -3    2.20    0.13
   7   8  -3    1.94    0.18
  -7   8   3    1.78    0.14
  -7   8   3    2.03    0.12
   6  -8  -3    1.66    0.13
   6   8  -3    1.41    0.16
  -6   8   3    1.45    0.12
   6   8  -3    1.65    0.13
  -6   8   3    1.47    0.11
   5  -8  -3    6.23    0.27
   5   8  -3    6.35    0.26
  -5   8   3    6.03    0.26
   5   8  -3    6.10    0.28
  -5   8   3    6.00    0.26
   5   8  -3    5.67    0.26
   4  -8  -3    8.16    0.34
  -4   8   3    8.27    0.34
   4   8  -3    8.59    0.34
   4   8  -3    8.23    0.35
   4   8  -3    8.44    0.33
  -4   8   3    8.24    0.34
   3  -8  -3    8.62    0.36
   3   8  -3    8.85    0.36
  -3   8   3    8.74    0.35
   3   8  -3    8.81    0.37
   3   8  -3    8.66    0.35
   2   8  -3    2.03    0.15
   2   8  -3    2.22    0.14
  -2   8   3    1.91    0.13
   2   8  -3    2.07    0.18
  -1   8   3    2.70    0.16
   1   8  -3    2.74    0.16
   1   8  -3    2.92    0.19
   0   8  -3    2.23    0.18
   0   8  -3    2.46    0.15
   0   8   3    2.23    0.14
  -1   8  -3   10.51    0.43
  -1   8  -3   10.78    0.42
   1   8   3   10.69    0.42
   2   8   3    7.95    0.32
  -2   8  -3    7.91    0.32
  -2   8  -3    7.80    0.34
  -3   8  -3   11.36    0.44
   3   8   3   11.64    0.43
  -3   8  -3   11.21    0.46
  -4   8  -3    1.67    0.14
  -4   8  -3    1.64    0.11
   4   8   3    1.53    0.11
   5  -8   3    1.99    0.13
  -5   8  -3    1.88    0.14
  -5   8  -3    2.07    0.12
   5   8   3    1.82    0.12
   6  -8   3    1.93    0.12
  -6   8  -3    1.80    0.11
   6   8   3    2.02    0.15
  -6   8  -3    2.01    0.13
   7  -8   3   18.19    0.65
  -7   8  -3   18.53    0.64
  18   0  -4    1.16    0.12
 -17   0   4   -0.08    0.13
  17   0  -4   -0.03    0.07
  17   0  -4    0.08    0.06
 -16   0   4    0.80    0.16
  16   0  -4    0.62    0.12
  16   0  -4    0.51    0.12
 -15   0   4    0.01    0.09
  15   0  -4    0.09    0.07
  15   0  -4    0.01    0.08
  14   0  -4   15.73    0.60
 -14   0   4   14.78    0.64
  14   0  -4   15.25    0.61
 -13   0   4    0.10    0.09
  13   0  -4   -0.09    0.07
  13   0  -4    0.01    0.08
  12   0  -4    3.47    0.21
  12   0  -4    3.54    0.23
  11   0  -4    0.03    0.09
  11   0  -4   -0.08    0.08
  10   0  -4   84.60    2.88
  10   0  -4   82.84    2.87
   9   0  -4    0.06    0.07
   9   0  -4    0.10    0.10
   8   0  -4   36.36    1.31
   7   0  -4    0.06    0.08
  -7   0   4   -0.01    0.07
   6   0  -4   41.69    1.49
  -6   0   4   43.39    1.48
  -5   0   4    0.00    0.04
   5   0  -4    0.07    0.04
   4   0  -4    4.02    0.17
  -4   0   4    4.03    0.17
   3   0  -4    0.01    0.02
  -3   0   4    0.00    0.02
  -2   0   4  527.33   17.73
   2   0  -4  524.90   17.74
   1   0  -4    0.01    0.02
  -1   0   4    0.01    0.02
   0   0   4   98.01    3.24
   0   0  -4   93.07    3.25
   1   0   4    0.07    0.01
  -5   0  -4    0.08    0.06
  -6   0  -4   76.12    2.62
  -7   0  -4    0.02    0.07
   8   0   4   42.41    1.53
  -8   0  -4   44.00    1.54
   9   0   4   -0.03    0.08
  -9   0  -4    0.04    0.09
 -10   0  -4   49.65    1.75
  10   0   4   48.23    1.73
 -11   0  -4   -0.05    0.09
  11   0   4   -0.07    0.07
  12   0   4    0.01    0.07
 -12   0  -4    0.23    0.10
 -13   0  -4   -0.07    0.11
  13   0   4   -0.04    0.06
 -14   0  -4    4.78    0.30
  14   0   4    4.99    0.25
  15   0   4   -0.05    0.05
  16   0   4    2.71    0.14
  17  -1  -4    0.64    0.11
  17  -1  -4    0.71    0.12
 -17  -1   4    0.79    0.16
  17   1  -4    0.89    0.11
  17   1  -4    0.83    0.12
  16  -1  -4    3.36    0.19
  16  -1  -4    3.19    0.20
 -16  -1   4    3.34    0.23
  16   1  -4    3.19    0.18
  16   1  -4    3.27    0.19
 -16   1   4    3.03    0.25
  15  -1  -4    4.24    0.23
 -15  -1   4    4.17    0.26
  15  -1  -4    3.55    0.22
  15   1  -4    3.79    0.23
 -15   1   4    4.13    0.27
  15   1  -4    4.35    0.22
 -14  -1   4   18.70    0.80
  14  -1  -4   21.06    0.77
  14  -1  -4   20.28    0.76
  14   1  -4   20.81    0.75
  14   1  -4   21.67    0.78
 -14   1   4   18.51    0.79
  13  -1  -4    0.19    0.09
  13  -1  -4    0.30    0.09
 -13  -1   4    0.01    0.09
  13   1  -4    0.09    0.07
 -13   1   4    0.12    0.10
  13   1  -4    0.18    0.09
  12  -1  -4   17.54    0.70
  12  -1  -4   17.40    0.69
 -12  -1   4   19.13    0.75
  12   1  -4   18.83    0.69
  12   1  -4   17.47    0.70
  11  -1  -4   15.16    0.61
  11  -1  -4   15.91    0.61
  11   1  -4   15.12    0.60
  11   1  -4   15.25    0.61
  10  -1  -4    2.22    0.23
  10  -1  -4    2.28    0.19
  10   1  -4    2.29    0.18
  10   1  -4    2.25    0.20
  -9  -1   4   20.43    0.79
   9  -1  -4   20.10    0.76
   9  -1  -4   21.74    0.79
   9   1  -4   19.72    0.75
   9   1  -4   20.01    0.76
   8  -1  -4   14.87    0.60
   8  -1  -4   15.27    0.60
  -8  -1   4   15.80    0.60
   8   1  -4   15.12    0.60
   7  -1  -4   61.37    2.04
   7  -1  -4   55.04    2.05
  -7  -1   4   61.20    2.04
  -7   1   4   59.29    2.04
   7   1  -4   58.16    2.05
  -6  -1   4   48.36    1.61
  -6  -1   4   46.80    1.62
   6  -1  -4   43.51    1.62
  -6   1   4   45.96    1.61
   6   1  -4   47.90    1.63
  -5  -1   4   38.87    1.38
  -5  -1   4   40.57    1.39
   5  -1  -4   39.81    1.38
  -5   1   4   40.74    1.38
   4  -1  -4    1.08    0.08
  -4  -1   4    1.19    0.09
  -4  -1   4    1.12    0.08
  -4   1   4    1.01    0.08
   3  -1  -4  852.29   28.48
  -3  -1   4  839.18   28.46
  -2  -1   4 1000.00   31.39
   2  -1  -4  912.22   31.36
  -2  -1   4  867.46   31.33
  -2   1   4  951.58   31.36
   1  -1  -4  267.61    9.04
  -1  -1   4  261.69    9.02
  -1   1   4  272.13    9.02
   0  -1   4  159.36    5.53
   0  -1  -4  167.24    5.54
   0   1   4  162.15    5.54
   1  -1   4  159.97    5.62
  -1  -1  -4  167.21    5.65
   1   1   4  172.63    5.66
   2  -1   4    1.05    0.04
  -2  -1  -4    0.93    0.06
   2  -1   4    1.16    0.04
   2   1   4    0.94    0.06
  -3  -1  -4   65.20    2.20
   3   1   4   65.34    2.20
  -4  -1  -4    5.31    0.19
  -4  -1  -4    5.09    0.24
  -6  -1  -4   16.18    0.61
  -6   1  -4   15.68    0.61
  -7  -1  -4   67.46    2.35
  -7   1  -4   67.93    2.34
  -8  -1  -4    4.42    0.24
  -8   1  -4    3.82    0.26
  -8   1  -4    4.13    0.24
   8   1   4    3.89    0.25
  -9  -1  -4   71.68    2.46
  -9   1  -4   69.25    2.42
  -9   1  -4   71.06    2.45
   9   1   4   69.11    2.43
 -10  -1  -4    0.41    0.14
  10  -1   4    0.41    0.10
  10   1   4    0.75    0.16
 -10   1  -4    0.33    0.13
  11  -1   4   71.12    2.50
 -11  -1  -4   71.42    2.52
  11   1   4   72.48    2.49
 -12  -1  -4    8.56    0.42
  12  -1   4    9.38    0.41
  12   1   4    9.31    0.40
 -13  -1  -4    3.88    0.26
  13  -1   4    4.25    0.24
  13   1   4    4.03    0.23
 -14  -1  -4    5.76    0.31
  14  -1   4    5.63    0.27
  14   1   4    5.67    0.27
  15  -1   4    4.95    0.24
 -15  -1  -4    5.41    0.30
  15   1   4    5.25    0.24
  16  -1   4    0.05    0.04
  16   1   4   -0.03    0.05
  17  -2  -4   -0.04    0.10
  17  -2  -4    0.10    0.06
 -17  -2   4    0.39    0.14
  17   2  -4    0.11    0.05
  16  -2  -4   10.15    0.40
 -16  -2   4   10.56    0.45
  16  -2  -4   10.25    0.41
  16   2  -4    9.97    0.40
  16   2  -4    9.68    0.39
  15  -2  -4   21.07    0.77
  15  -2  -4   20.25    0.77
 -15  -2   4   20.40    0.81
  15   2  -4   20.93    0.75
  15   2  -4   20.46    0.77
  14  -2  -4    6.91    0.33
  14  -2  -4    6.67    0.32
 -14  -2   4    6.02    0.35
  14   2  -4    7.01    0.33
  14   2  -4    7.23    0.31
  13  -2  -4    5.83    0.30
 -13  -2   4    5.46    0.32
  13  -2  -4    5.93    0.31
  13   2  -4    5.89    0.29
  13   2  -4    5.65    0.29
  12  -2  -4   19.09    0.75
 -12  -2   4   20.66    0.79
  12  -2  -4   19.01    0.74
  12   2  -4   18.73    0.74
  12   2  -4   18.94    0.73
  11  -2  -4    0.30    0.10
  11  -2  -4    0.38    0.12
 -11  -2   4    0.17    0.09
 -11   2   4    0.33    0.16
  11   2  -4    0.24    0.08
  11   2  -4    0.21    0.09
  10  -2  -4   16.19    0.62
  10  -2  -4   15.66    0.64
  10   2  -4   15.69    0.60
  10   2  -4   15.94    0.62
 -10   2   4   14.53    0.62
   9  -2  -4   14.07    0.58
   9  -2  -4   14.82    0.56
   9  -2  -4   13.59    0.59
   9   2  -4   13.31    0.54
   9   2  -4   14.40    0.56
  -9   2   4   14.17    0.57
   8  -2  -4   14.60    0.58
  -8  -2   4   15.91    0.61
   8  -2  -4   14.68    0.61
   8  -2  -4   14.82    0.60
   8   2  -4   15.00    0.58
   8   2  -4   14.97    0.59
   7  -2  -4    5.32    0.27
   7  -2  -4    5.24    0.28
  -6  -2   4    0.39    0.09
   6  -2  -4    0.38    0.10
   6  -2  -4    0.44    0.15
  -6   2   4    0.45    0.12
  -5  -2   4   87.17    2.90
   5  -2  -4   83.15    2.90
  -5  -2   4   87.21    2.92
  -5   2   4   84.47    2.90
   5   2  -4   84.07    2.92
  -4  -2   4    0.16    0.06
   4  -2  -4    0.16    0.07
  -4   2   4    0.22    0.07
  -3  -2   4   76.71    2.72
   3  -2  -4   80.60    2.73
  -3   2   4   83.50    2.73
  -2  -2   4  496.97   17.54
   2  -2  -4  523.11   17.61
  -2   2   4  540.18   17.60
   1  -2  -4   76.14    2.61
  -1  -2   4   76.74    2.61
  -1   2   4   78.39    2.61
   0  -2   4  122.57    4.05
   0  -2  -4  111.52    4.00
   0   2   4  117.23    4.00
   0   2  -4  123.64    4.00
  -1  -2  -4   18.75    0.67
   1  -2   4   18.37    0.66
   1   2   4   19.22    0.67
  -1   2  -4   19.76    0.67
  -2  -2  -4   40.96    1.56
   2  -2   4   47.01    1.53
  -2  -2  -4   46.36    1.55
   2   2   4   45.51    1.55
  -2   2  -4   45.63    1.53
  -3  -2  -4    2.78    0.16
   3  -2   4    2.62    0.12
  -3  -2  -4    2.65    0.13
   3   2   4    2.53    0.14
  -3   2  -4    2.69    0.12
  -4  -2  -4    0.40    0.07
   4  -2   4    0.35    0.05
  -4  -2  -4    0.47    0.10
   4   2   4    0.39    0.09
  -6  -2  -4    4.01    0.22
  -6   2  -4    3.53    0.25
  -7  -2  -4   27.32    0.97
  -7   2  -4   23.92    0.94
  -7   2  -4   25.78    0.97
  -7   2  -4   26.90    0.95
   7   2   4   26.35    0.96
  -8  -2  -4   49.38    1.69
   8  -2   4   45.77    1.66
  -8   2  -4   46.32    1.65
  -8   2  -4   47.11    1.65
   8   2   4   47.25    1.66
  -9  -2  -4   25.45    0.95
   9  -2   4   23.64    0.91
  -9   2  -4   25.13    0.91
   9   2   4   24.34    0.91
 -10  -2  -4    9.18    0.42
  10  -2   4    8.21    0.41
  10   2   4    8.39    0.39
 -10   2  -4    8.70    0.38
  11  -2   4    0.29    0.14
  11  -2   4    0.45    0.15
 -11   2  -4    0.04    0.10
  12  -2   4    2.07    0.19
 -12  -2  -4    1.87    0.19
  12   2   4    2.08    0.18
 -12   2  -4    2.10    0.20
  13  -2   4    9.46    0.41
 -13  -2  -4    9.05    0.43
  13   2   4    9.37    0.40
  14  -2   4    2.52    0.17
 -14  -2  -4    2.68    0.20
  14   2   4    2.54    0.16
  15  -2   4    0.31    0.09
 -15  -2  -4    0.32    0.11
  15   2   4    0.39    0.10
  17  -3  -4    1.10    0.11
  17   3  -4    1.45    0.10
  16  -3  -4    3.79    0.19
 -16  -3   4    3.90    0.23
  16   3  -4    3.92    0.19
  15  -3  -4    0.14    0.10
  15  -3  -4    0.07    0.07
 -15  -3   4    0.07    0.08
  15   3  -4    0.04    0.05
  15   3  -4    0.12    0.08
  14  -3  -4    0.03    0.10
 -14  -3   4    0.10    0.08
  14  -3  -4    0.26    0.08
  14   3  -4    0.16    0.07
  14   3  -4    0.37    0.13
 -13  -3   4   -0.04    0.08
  13  -3  -4   -0.02    0.10
  13  -3  -4    0.10    0.08
  13   3  -4    0.07    0.07
  13   3  -4    0.01    0.08
 -13   3   4   -0.09    0.11
 -12  -3   4    1.00    0.16
  12  -3  -4    1.00    0.16
  12   3  -4    1.45    0.16
  12   3  -4    1.05    0.15
 -12   3   4    1.30    0.19
  11  -3  -4    0.17    0.09
 -11  -3   4    0.13    0.08
  11  -3  -4    0.01    0.12
  11   3  -4    0.14    0.07
 -11   3   4    0.27    0.11
  10  -3  -4    1.45    0.17
 -10  -3   4    1.71    0.18
 -10   3   4    1.86    0.19
  10   3  -4    1.55    0.17
  10   3  -4    1.83    0.16
  -9  -3   4    0.72    0.14
   9  -3  -4    0.67    0.15
  -9   3   4    0.41    0.12
   9   3  -4    0.39    0.13
   9   3  -4    0.71    0.15
  -8  -3   4   24.93    0.88
   8  -3  -4   22.85    0.86
  -8   3   4   22.53    0.85
   8   3  -4   22.41    0.84
   8   3  -4   22.83    0.85
   7  -3  -4    0.70    0.17
   7   3  -4    0.93    0.15
   7   3  -4    0.72    0.15
  -7   3   4    0.51    0.17
  -6  -3   4   61.15    2.08
   6  -3  -4   58.19    2.09
  -5  -3   4   74.89    2.61
   5  -3  -4   77.03    2.62
   4  -3  -4    4.34    0.23
  -4  -3   4    4.40    0.22
  -3  -3   4   97.00    3.15
   3  -3  -4   91.09    3.16
  -3   3   4   89.09    3.15
  -2  -3   4   15.09    0.54
   2  -3  -4   14.94    0.55
   2   3  -4   13.48    0.55
  -2   3   4   14.15    0.55
  -1  -3   4   45.85    1.53
   1  -3  -4   44.69    1.54
   1   3  -4   42.60    1.54
  -1   3   4   43.92    1.54
   0  -3   4    1.30    0.10
   0  -3  -4    1.13    0.11
   0   3  -4    1.28    0.12
  -1  -3  -4    0.17    0.07
  -1  -3  -4    0.18    0.08
   1  -3   4    0.27    0.07
   1   3   4    0.13    0.08
  -1   3  -4    0.38    0.10
   2  -3   4    4.79    0.21
  -2  -3  -4    4.77    0.24
  -2  -3  -4    4.65    0.23
   2   3   4    4.52    0.24
  -2   3  -4    4.76    0.22
  -3  -3  -4   31.37    1.09
  -3  -3  -4   31.09    1.08
   3  -3   4   31.23    1.07
   3   3   4   27.87    1.09
   4  -3   4   23.96    0.84
  -4  -3  -4   25.77    0.87
  -4  -3  -4   24.31    0.86
   4   3   4   19.92    0.87
  -5  -3  -4    5.86    0.30
  -5  -3  -4    6.55    0.29
  -5   3  -4    6.14    0.29
  -5   3  -4    5.42    0.29
  -5   3  -4    5.67    0.32
  -6  -3  -4   37.06    1.27
  -6   3  -4   35.04    1.24
  -6   3  -4   35.42    1.27
  -6   3  -4   34.96    1.24
   6   3   4   32.36    1.25
   7  -3   4   12.03    0.51
  -7  -3  -4   12.99    0.53
  -7   3  -4   12.42    0.50
  -7   3  -4   12.68    0.51
  -7   3  -4   12.70    0.53
   7   3   4   11.73    0.52
   8  -3   4    8.27    0.39
  -8  -3  -4    8.00    0.39
  -8   3  -4    8.42    0.37
   8   3   4    8.05    0.38
  -9  -3  -4    0.91    0.14
   9  -3   4    0.99    0.18
  -9   3  -4    1.08    0.15
  -9   3  -4    0.94    0.18
   9   3   4    0.78    0.18
 -10  -3  -4    2.50    0.20
  10  -3   4    2.64    0.23
  10   3   4    2.57    0.21
 -10   3  -4    2.80    0.19
 -11  -3  -4   12.04    0.57
  11  -3   4   14.05    0.56
  11   3   4   14.67    0.56
 -11   3  -4   14.29    0.55
 -12  -3  -4    2.11    0.19
  12  -3   4    2.39    0.19
  12  -3   4    2.83    0.23
 -12   3  -4    2.33    0.18
  12   3   4    2.56    0.19
  13  -3   4    1.09    0.13
 -13  -3  -4    1.06    0.14
  13   3   4    1.23    0.14
 -13   3  -4    1.10    0.16
 -14  -3  -4    5.21    0.27
  14  -3   4    5.19    0.24
  14   3   4    5.00    0.24
  15  -3   4    0.04    0.05
  16  -4  -4    0.00    0.05
  16   4  -4    0.10    0.04
 -15  -4   4    6.15    0.30
  15  -4  -4    6.00    0.27
  15   4  -4    6.00    0.26
 -14  -4   4    3.53    0.23
  14  -4  -4    3.22    0.20
 -14   4   4    3.19    0.21
  14   4  -4    3.21    0.19
  14   4  -4    3.05    0.19
 -13  -4   4    0.88    0.15
  13  -4  -4    0.87    0.15
  13   4  -4    1.00    0.13
 -13   4   4    0.90    0.15
  13   4  -4    0.92    0.14
 -12  -4   4    4.35    0.27
  12  -4  -4    4.45    0.25
  12   4  -4    4.37    0.25
 -12   4   4    4.11    0.24
  12   4  -4    4.38    0.24
 -11  -4   4    0.02    0.09
  11  -4  -4    0.06    0.09
  11   4  -4    0.14    0.09
  11   4  -4    0.01    0.07
 -11   4   4    0.25    0.09
  10  -4  -4   32.52    1.19
 -10  -4   4   31.10    1.20
  10   4  -4   33.28    1.18
  10   4  -4   33.08    1.16
 -10   4   4   32.27    1.17
  -9  -4   4    9.84    0.45
   9  -4  -4    9.51    0.44
   9   4  -4    9.71    0.42
  -9   4   4   10.33    0.43
   9   4  -4   10.46    0.44
   8  -4  -4    0.06    0.10
  -8  -4   4    0.03    0.09
   8   4  -4    0.28    0.09
   8   4  -4    0.06    0.09
  -8   4   4    0.17    0.08
  -7  -4   4  142.84    4.63
   7  -4  -4  136.91    4.61
  -7   4   4  134.25    4.60
   7   4  -4  131.72    4.61
   7   4  -4  131.85    4.59
  -6  -4   4    0.33    0.11
  -6   4   4    0.18    0.09
   6   4  -4    0.26    0.09
  -6   4   4    0.35    0.12
   6   4  -4    0.45    0.10
   5   4  -4    0.23    0.10
  -5   4   4    0.18    0.09
   5   4  -4    0.04    0.08
  -5   4   4    0.15    0.10
   4   4  -4   14.44    0.57
   4   4  -4   14.48    0.56
  -3  -4   4   18.72    0.73
   3   4  -4   18.89    0.70
   3   4  -4   19.16    0.72
  -2  -4   4    5.86    0.29
   2  -4  -4    5.16    0.30
  -1  -4   4    3.22    0.21
   1  -4  -4    2.72    0.22
   0  -4  -4    9.22    0.42
   0  -4   4   10.26    0.42
   0  -4  -4    9.94    0.44
   1  -4   4    5.65    0.28
  -1  -4  -4    5.68    0.31
  -1  -4  -4    5.49    0.28
   1   4   4    5.67    0.25
  -1   4  -4    5.06    0.27
  -1   4  -4    4.30    0.36
  -1   4  -4    5.35    0.26
   2  -4   4   29.28    1.09
  -2  -4  -4   30.61    1.08
  -2   4  -4   29.44    1.09
  -2   4  -4   28.73    1.07
  -2   4  -4   29.77    1.08
  -2   4  -4   30.67    1.07
   2   4   4   30.86    1.06
   3  -4   4    0.66    0.22
  -3   4  -4    0.54    0.16
  -3   4  -4    0.50    0.15
  -3   4  -4    1.01    0.19
  -3   4  -4    0.66    0.13
   3   4   4    0.75    0.13
  -4  -4  -4    0.69    0.13
   4   4   4    0.79    0.13
  -4   4  -4    0.57    0.15
  -4   4  -4    0.82    0.14
  -4   4  -4    0.63    0.12
  -4   4  -4    0.59    0.11
  -5  -4  -4  108.08    3.63
   5   4   4  108.08    3.60
  -5   4  -4  103.98    3.61
  -5   4  -4  101.09    3.60
  -5   4  -4  107.07    3.63
  -6  -4  -4    1.27    0.15
  -6   4  -4    1.32    0.15
  -6   4  -4    1.44    0.16
   6   4   4    1.12    0.14
  -6   4  -4    1.00    0.18
  -7  -4  -4    8.45    0.39
  -7   4  -4    8.41    0.37
   7   4   4    7.86    0.40
   7   4   4    8.35    0.36
  -7   4  -4    8.39    0.37
  -7   4  -4    7.99    0.39
   8  -4   4   24.73    0.94
  -8  -4  -4   26.67    0.97
   8   4   4   24.89    0.94
  -8   4  -4   25.08    0.96
  -8   4  -4   25.28    0.93
  -8   4  -4   25.51    0.94
  -9  -4  -4    0.06    0.08
   9  -4   4    0.27    0.10
  -9   4  -4    0.16    0.08
   9   4   4    0.34    0.11
  -9   4  -4    0.24    0.10
 -10  -4  -4    5.01    0.29
  10  -4   4    5.44    0.29
 -10   4  -4    5.61    0.27
  10   4   4    5.24    0.29
  11  -4   4   13.14    0.54
 -11  -4  -4   13.05    0.57
  11   4   4   13.80    0.53
 -11   4  -4   13.88    0.53
  12  -4   4   19.37    0.72
  12  -4   4   19.84    0.74
 -12  -4  -4   19.45    0.76
  12   4   4   19.60    0.72
 -12   4  -4   19.48    0.72
  13  -4   4    1.23    0.12
 -13  -4  -4    1.35    0.15
 -13   4  -4    1.17    0.12
  13   4   4    1.00    0.15
  14  -4   4    0.26    0.09
  15   5  -4    0.34    0.08
  14  -5  -4    0.11    0.06
 -14   5   4    0.17    0.07
  14   5  -4    0.03    0.05
 -13  -5   4    0.63    0.19
  13  -5  -4    0.74    0.11
 -13   5   4    0.57    0.11
  13   5  -4    0.45    0.10
  13   5  -4    0.62    0.13
  12  -5  -4    6.79    0.32
 -12  -5   4    6.95    0.36
 -12   5   4    7.11    0.31
  12   5  -4    7.03    0.32
  12   5  -4    7.06    0.31
  11  -5  -4   16.03    0.64
 -11  -5   4   14.97    0.65
  11   5  -4   16.71    0.63
  11   5  -4   16.64    0.61
 -11   5   4   16.32    0.62
  10  -5  -4   13.93    0.57
 -10  -5   4   13.60    0.59
  10   5  -4   14.10    0.54
 -10   5   4   13.91    0.55
  10   5  -4   14.01    0.56
   9  -5  -4    4.02    0.25
  -9  -5   4    4.16    0.29
  -9   5   4    4.48    0.24
   9   5  -4    4.21    0.23
   9   5  -4    4.38    0.25
   8  -5  -4   22.32    0.85
  -8   5   4   22.13    0.84
   8   5  -4   22.83    0.83
   8   5  -4   22.54    0.85
   7  -5  -4    0.61    0.15
  -7   5   4    0.93    0.17
   7   5  -4    0.79    0.15
  -7   5   4    0.75    0.14
   7   5  -4    0.80    0.14
   6  -5  -4    0.62    0.12
   6   5  -4    0.67    0.14
  -6   5   4    0.77    0.15
   6   5  -4    0.66    0.15
  -6   5   4    0.82    0.14
   5   5  -4    2.24    0.20
   5   5  -4    2.34    0.19
  -5   5   4    2.04    0.17
  -5   5   4    1.82    0.17
   5   5  -4    2.03    0.17
   4   5  -4    0.01    0.07
   4   5  -4   -0.04    0.08
  -4   5   4    0.03    0.07
   4   5  -4    0.01    0.09
  -4   5   4   -0.03    0.08
   3   5  -4   12.99    0.53
  -3   5   4   13.87    0.53
   3   5  -4   13.48    0.53
   3   5  -4   13.25    0.54
  -3   5   4   13.63    0.52
   2   5  -4    0.06    0.08
  -2   5   4    0.14    0.07
   2   5  -4   -0.03    0.09
   2   5  -4    0.17    0.08
  -2   5   4    0.11    0.09
  -1   5   4   70.62    2.53
  -1   5   4   76.42    2.54
   1   5  -4   77.13    2.54
   1   5  -4   73.77    2.55
  -1   5   4   68.25    2.54
   1   5  -4   76.91    2.54
   0   5  -4   50.08    1.80
   0   5  -4   51.71    1.79
   0   5  -4   49.21    1.79
   0   5   4   54.55    1.79
   0   5  -4   51.14    1.79
  -1   5  -4    4.04    0.26
   1   5   4    4.26    0.22
  -1   5  -4    4.28    0.22
  -1   5  -4    4.05    0.24
  -1   5  -4    3.97    0.26
  -2   5  -4   22.40    0.86
  -2   5  -4   24.39    0.87
  -2   5  -4   24.72    0.87
   2   5   4   22.81    0.85
  -2   5  -4   23.15    0.88
  -3  -5  -4    6.07    0.33
  -3   5  -4    6.30    0.31
  -3   5  -4    6.58    0.30
  -3   5  -4    6.59    0.31
   3   5   4    6.36    0.29
  -3   5  -4    6.28    0.33
  -4  -5  -4   59.10    2.02
  -4   5  -4   56.01    2.00
  -4   5  -4   59.39    2.00
  -4   5  -4   56.80    2.01
  -4   5  -4   56.26    2.02
   4   5   4   56.72    1.99
  -5  -5  -4    7.72    0.37
  -5   5  -4    7.61    0.37
  -5   5  -4    7.50    0.34
   5   5   4    7.36    0.33
  -5   5  -4    7.40    0.34
  -6  -5  -4    6.56    0.33
  -6   5  -4    6.26    0.33
  -6   5  -4    5.95    0.30
  -6   5  -4    6.34    0.30
   6   5   4    6.07    0.29
  -7  -5  -4    0.53    0.15
  -7   5  -4    0.58    0.13
  -7   5  -4    0.33    0.09
  -7   5  -4    0.21    0.09
   7   5   4    0.32    0.09
  -8  -5  -4    4.34    0.27
   8  -5   4    4.21    0.25
  -8   5  -4    4.42    0.24
  -8   5  -4    4.28    0.24
  -9  -5  -4    6.28    0.33
   9  -5   4    6.51    0.32
  -9   5  -4    6.57    0.30
  -9   5  -4    6.53    0.31
  10  -5   4    0.41    0.10
 -10  -5  -4    0.34    0.14
 -10   5  -4    0.51    0.11
 -11  -5  -4   13.03    0.54
  11  -5   4   13.04    0.51
  11  -5   4   13.16    0.52
 -11   5  -4   13.03    0.50
  12  -5   4    5.65    0.26
 -12  -5  -4    5.81    0.30
  12  -5   4    5.72    0.26
 -12   5  -4    5.90    0.25
  13  -5   4    6.19    0.25
 -13   5  -4    5.87    0.24
  13  -6  -4    4.19    0.19
  13   6  -4    4.13    0.19
 -13   6   4    4.05    0.18
  12  -6  -4    0.10    0.06
 -12   6   4    0.04    0.05
  12   6  -4    0.17    0.10
  12   6  -4    0.01    0.05
  11  -6  -4    0.04    0.06
 -11   6   4    0.10    0.05
  11   6  -4    0.10    0.08
  11   6  -4    0.07    0.05
  10  -6  -4    2.32    0.17
 -10   6   4    2.37    0.16
  10   6  -4    2.03    0.17
  10   6  -4    2.29    0.16
   9  -6  -4   18.72    0.68
   9   6  -4   15.35    0.65
   9   6  -4   17.97    0.67
  -9   6   4   18.35    0.67
   8  -6  -4    1.76    0.17
   8   6  -4    2.05    0.17
  -8   6   4    1.87    0.16
  -8   6   4    2.08    0.18
   8   6  -4    1.85    0.17
   7  -6  -4    7.99    0.39
  -7   6   4    8.11    0.37
   7   6  -4    8.63    0.38
  -7   6   4    8.60    0.37
   7   6  -4    8.92    0.37
   6  -6  -4    0.35    0.10
   6   6  -4    0.25    0.10
  -6   6   4    0.18    0.08
  -6   6   4    0.23    0.08
   6   6  -4    0.03    0.10
   6   6  -4    0.15    0.07
   5   6  -4   41.40    1.47
   5   6  -4   41.24    1.45
  -5   6   4   40.71    1.46
   5   6  -4   41.01    1.45
  -5   6   4   41.30    1.45
  -4   6   4    3.21    0.21
  -4   6   4    3.26    0.20
   4   6  -4    3.29    0.21
   4   6  -4    3.65    0.23
  -3   6   4   23.04    0.86
  -3   6   4   22.59    0.85
   3   6  -4   23.36    0.87
   3   6  -4   23.33    0.86
   3   6  -4   24.07    0.86
  -2   6   4   26.75    0.94
   2   6  -4   24.41    0.95
   2   6  -4   25.18    0.93
   2   6  -4   26.26    0.94
  -2   6   4   25.49    0.93
   1   6  -4    5.85    0.29
   1   6  -4    5.54    0.30
  -1   6   4    5.64    0.30
   1   6  -4    5.72    0.28
  -1   6   4    5.91    0.28
   0   6  -4    9.69    0.43
   0   6  -4    9.32    0.41
   0   6  -4    9.91    0.41
   0   6   4    9.68    0.40
  -1   6  -4    2.34    0.19
  -1   6  -4    2.35    0.18
   1   6   4    2.68    0.17
  -1   6  -4    2.89    0.21
   2   6   4    0.09    0.07
  -2   6  -4    0.17    0.07
  -2   6  -4    0.11    0.10
  -2   6  -4    0.00    0.07
  -2   6  -4    0.32    0.10
  -3   6  -4   42.68    1.59
  -3   6  -4   45.71    1.59
   3   6   4   43.65    1.57
  -3   6  -4   45.24    1.58
  -3   6  -4   45.84    1.57
   4   6   4    0.01    0.06
  -4   6  -4    0.14    0.06
  -4   6  -4    0.08    0.08
  -4   6  -4    0.07    0.08
  -5   6  -4    0.81    0.14
  -5   6  -4    0.79    0.13
  -5   6  -4    0.57    0.17
   5   6   4    0.89    0.12
  -6   6  -4    9.80    0.44
  -6   6  -4   10.20    0.41
   6   6   4    9.15    0.40
  -6   6  -4   10.01    0.41
   7  -6   4   12.01    0.48
  -7   6  -4   11.94    0.49
  -7   6  -4   12.28    0.47
   7   6   4   10.11    0.45
  -7   6  -4   12.20    0.47
   8  -6   4   10.32    0.43
  -8   6  -4   10.67    0.42
  -8   6  -4   10.30    0.42
   9  -6   4   12.93    0.50
  -9   6  -4   13.01    0.49
  -9   6  -4   12.27    0.48
  10  -6   4    1.88    0.14
 -10   6  -4    1.76    0.12
  11  -6   4    1.71    0.13
  11  -6   4    1.71    0.13
 -11   6  -4    1.57    0.11
  11  -7  -4   12.00    0.46
 -11   7   4   12.44    0.45
  11   7  -4   12.55    0.46
  10  -7  -4    0.81    0.10
  10   7  -4    0.79    0.11
  10   7  -4    0.82    0.14
 -10   7   4    0.93    0.09
   9  -7  -4    8.56    0.35
   9   7  -4    8.55    0.35
   9   7  -4    8.47    0.34
  -9   7   4    8.47    0.34
   8  -7  -4    2.93    0.18
  -8   7   4    2.81    0.17
   8   7  -4    2.98    0.18
   8   7  -4    2.91    0.18
   7  -7  -4    0.07    0.07
   7   7  -4    0.02    0.07
  -7   7   4    0.06    0.07
  -7   7   4    0.23    0.07
   7   7  -4    0.14    0.07
   6  -7  -4    4.38    0.24
  -6   7   4    4.31    0.22
   6   7  -4    4.21    0.22
  -6   7   4    4.22    0.22
   6   7  -4    4.35    0.23
   5  -7  -4    0.69    0.14
  -5   7   4    0.56    0.11
   5   7  -4    0.72    0.13
  -5   7   4    0.74    0.12
   5   7  -4    0.86    0.12
   5   7  -4    0.41    0.13
   4  -7  -4    3.47    0.22
   4   7  -4    3.63    0.21
  -4   7   4    3.23    0.20
  -4   7   4    3.08    0.19
   4   7  -4    3.51    0.22
  -3   7   4    0.08    0.06
  -3   7   4    0.07    0.08
   3   7  -4   -0.04    0.08
   3   7  -4    0.09    0.07
   3   7  -4   -0.02    0.07
   2   7  -4    0.43    0.13
   2   7  -4    0.22    0.08
  -2   7   4    0.46    0.15
   2   7  -4    0.46    0.14
   1   7  -4   17.10    0.64
   1   7  -4   16.44    0.64
  -1   7   4   16.35    0.64
   1   7  -4   17.13    0.66
   0   7   4    5.34    0.26
   0   7  -4    5.33    0.26
   0   7  -4    5.16    0.28
   0   7  -4    5.34    0.27
   1   7   4   27.20    0.98
  -1   7  -4   27.15    1.00
  -1   7  -4   27.56    0.99
  -1   7  -4   26.67    0.99
  -2   7  -4    7.46    0.33
   2   7   4    7.22    0.32
  -2   7  -4    7.48    0.35
  -3   7  -4    0.74    0.14
  -3   7  -4    0.71    0.15
  -3   7  -4    0.54    0.11
   3   7   4    0.70    0.11
   4   7   4    3.30    0.18
  -4   7  -4    3.40    0.22
  -4   7  -4    3.26    0.19
  -4   7  -4    3.06    0.18
  -5   7  -4   28.12    1.03
  -5   7  -4   29.25    1.05
   5   7   4   29.01    1.03
  -5   7  -4   29.12    1.03
   6  -7   4    0.14    0.06
  -6   7  -4    0.47    0.13
   6   7   4    0.16    0.06
  -6   7  -4    0.21    0.06
  -6   7  -4    0.23    0.07
   7  -7   4    8.87    0.37
  -7   7  -4    8.64    0.35
  -7   7  -4    9.23    0.36
   8  -7   4    0.04    0.06
  -8   7  -4    0.02    0.06
  -8   7  -4    0.13    0.05
   9  -7   4   18.63    0.63
   9  -7   4   18.34    0.63
  -9   7  -4   15.30    0.62
   8  -8  -4    0.42    0.11
  -8   8   4    0.44    0.08
   7  -8  -4   14.66    0.53
  -7   8   4   14.04    0.53
   7   8  -4   14.57    0.53
   7   8  -4   14.71    0.53
   6  -8  -4    3.54    0.18
  -6   8   4    3.30    0.17
   6   8  -4    3.04    0.19
   6   8  -4    3.68    0.18
  -6   8   4    3.23    0.17
   5  -8  -4    4.13    0.21
  -5   8   4    4.13    0.19
   5   8  -4    3.99    0.20
   5   8  -4    3.95    0.21
  -5   8   4    4.19    0.19
   4   8  -4    1.01    0.11
  -4   8   4    0.92    0.10
   4   8  -4    1.02    0.11
  -4   8   4    0.80    0.12
   4   8  -4    1.15    0.14
   3   8  -4    1.73    0.15
  -3   8   4    1.65    0.12
   3   8  -4    1.65    0.13
   3   8  -4    1.74    0.13
   2   8  -4    7.39    0.32
   2   8  -4    7.98    0.34
  -2   8   4    8.20    0.32
   2   8  -4    8.05    0.33
   1   8  -4    4.64    0.23
   1   8  -4    4.36    0.21
  -1   8   4    4.16    0.21
   0   8  -4    0.14    0.05
   0   8   4    0.07    0.05
   0   8  -4    0.20    0.07
   1   8   4   25.21    0.92
  -1   8  -4   25.92    0.92
  -1   8  -4   26.15    0.93
   2   8   4   12.13    0.46
  -2   8  -4   12.48    0.48
  -2   8  -4   12.14    0.47
  -3   8  -4   14.39    0.55
   3   8   4   14.74    0.54
  -3   8  -4   15.08    0.55
   4  -8   4    0.42    0.09
  -4   8  -4    0.46    0.08
  -4   8  -4    0.30    0.09
   4   8   4    0.34    0.08
   5  -8   4    6.96    0.29
  -5   8  -4    7.43    0.28
   5   8   4    6.89    0.27
  -5   8  -4    6.80    0.28
   6  -8   4    0.60    0.08
  -6   8  -4    0.47    0.10
  -6   8  -4    0.55    0.08
  18   0  -5    0.08    0.08
  18   0  -5    0.01    0.07
  17   0  -5    3.09    0.17
 -17   0   5    2.92    0.23
  17   0  -5    3.27    0.18
 -16   0   5    0.00    0.09
  16   0  -5    0.05    0.06
  16   0  -5    0.05    0.06
 -15   0   5    9.25    0.46
  15   0  -5   10.50    0.42
  15   0  -5   10.04    0.43
 -14   0   5    0.01    0.09
  14   0  -5   -0.03    0.08
  14   0  -5    0.07    0.08
  13   0  -5    9.15    0.41
  13   0  -5   10.02    0.41
 -13   0   5    8.61    0.45
  12   0  -5   -0.03    0.08
  12   0  -5   -0.06    0.08
  11   0  -5   33.45    1.21
  11   0  -5   34.34    1.23
  10   0  -5   -0.08    0.10
  10   0  -5    0.11    0.09
   9   0  -5   35.00    1.22
   9   0  -5   31.30    1.18
   8   0  -5    0.10    0.07
  -7   0   5   14.41    0.56
   7   0  -5   14.12    0.56
   5   0  -5    2.15    0.12
   4   0  -5    0.05    0.04
  -4   0   5    0.00    0.04
   3   0  -5   47.07    1.43
  -3   0   5   36.06    1.42
  -2   0   5    0.12    0.03
   2   0  -5    0.08    0.03
   1   0  -5   54.09    1.87
  -1   0   5   56.70    1.87
   0   0   5    0.11    0.02
   0   0  -5    0.07    0.02
   1   0   5   64.18    2.15
  -4   0  -5    0.08    0.07
  -5   0  -5   44.04    1.54
  -6   0  -5    0.09    0.07
  -7   0  -5   27.45    1.01
  -8   0  -5   -0.04    0.07
  -8   0  -5    0.09    0.12
  -8   0  -5    0.01    0.13
   8   0   5    0.17    0.10
  -9   0  -5  143.26    4.81
   9   0   5  138.37    4.79
  10   0   5    0.09    0.08
 -10   0  -5    0.08    0.09
  11   0   5   17.94    0.68
 -11   0  -5   16.56    0.69
 -12   0  -5   -0.11    0.10
  12   0   5   -0.03    0.07
  13   0   5    1.50    0.15
 -13   0  -5    1.27    0.19
  14   0   5    0.08    0.06
  15   0   5    0.15    0.06
  18   1  -5    0.31    0.10
  17  -1  -5    3.62    0.18
 -17  -1   5    3.52    0.23
  17  -1  -5    3.49    0.20
  17   1  -5    3.50    0.19
  17   1  -5    3.53    0.18
  16  -1  -5   18.59    0.69
  16  -1  -5   18.61    0.69
 -16  -1   5   18.89    0.74
  16   1  -5   18.80    0.68
  16   1  -5   18.59    0.69
 -16   1   5   18.43    0.73
 -15  -1   5    5.68    0.31
  15  -1  -5    5.73    0.28
  15  -1  -5    6.32    0.28
  15   1  -5    5.09    0.26
  15   1  -5    4.85    0.27
 -15   1   5    5.47    0.32
  14  -1  -5    7.56    0.34
  14  -1  -5    7.70    0.36
 -14  -1   5    6.85    0.38
 -14   1   5    6.92    0.38
  14   1  -5    7.71    0.34
  14   1  -5    7.93    0.35
  13  -1  -5   -0.06    0.09
 -13  -1   5    0.07    0.09
  13  -1  -5    0.12    0.08
  13   1  -5    0.02    0.08
  13   1  -5    0.06    0.07
 -13   1   5   -0.02    0.10
  12  -1  -5   17.91    0.72
  12  -1  -5   18.35    0.71
  12   1  -5   18.74    0.72
  12   1  -5   19.27    0.71
  11  -1  -5    0.18    0.11
  11  -1  -5    0.14    0.09
  11   1  -5    0.00    0.09
  11   1  -5    0.00    0.08
  10  -1  -5    0.21    0.09
  10  -1  -5    0.34    0.13
  10  -1  -5    0.24    0.09
  10   1  -5    0.55    0.16
  10   1  -5    0.21    0.09
   9  -1  -5   22.61    0.85
   9  -1  -5   21.68    0.82
   9   1  -5   21.76    0.81
   9   1  -5   22.90    0.85
   9   1  -5   21.36    0.82
   8  -1  -5   28.58    1.09
   8  -1  -5   28.46    1.10
  -8  -1   5   29.79    1.09
   8   1  -5   33.43    1.11
   7  -1  -5   78.44    2.82
  -7  -1   5   89.31    2.82
   7  -1  -5   77.45    2.81
   7   1  -5   83.13    2.83
   6  -1  -5   23.38    0.87
  -6  -1   5   22.61    0.86
   6  -1  -5   23.06    0.85
  -6  -1   5   24.92    0.85
   6   1  -5   23.46    0.86
  -6   1   5   24.18    0.85
   5  -1  -5    4.46    0.22
  -5  -1   5    5.33    0.23
   5   1  -5    5.09    0.24
  -5   1   5    5.54    0.23
   4  -1  -5   65.69    2.33
  -4  -1   5   69.47    2.33
  -4   1   5   69.73    2.33
  -3  -1   5  124.33    4.10
  -3  -1   5  123.47    4.07
   3  -1  -5  111.53    4.06
  -3   1   5  122.94    4.07
  -2  -1   5  500.06   16.86
  -2  -1   5  499.05   16.90
   2  -1  -5  500.70   16.88
  -1  -1   5   12.99    0.47
  -1  -1   5   13.94    0.48
   1  -1  -5   13.22    0.48
  -1   1   5   13.31    0.47
   0  -1  -5  105.12    3.75
   0  -1   5  114.19    3.79
   0  -1   5  119.82    3.77
   0   1   5  107.13    3.75
  -1  -1  -5  113.03    3.81
   1  -1   5  107.53    3.78
   1  -1   5  117.85    3.80
   1   1   5  111.29    3.81
  -2  -1  -5    1.26    0.07
   2   1   5    1.23    0.07
  -3  -1  -5    6.61    0.29
  -3  -1  -5    6.78    0.25
   3   1   5    7.01    0.25
  -5  -1  -5    6.16    0.28
  -5   1  -5    5.39    0.27
  -6  -1  -5    7.15    0.35
  -6   1  -5    9.18    0.37
  -7  -1  -5    1.31    0.15
  -7   1  -5    1.47    0.18
   7   1   5    1.13    0.21
  -7   1  -5    1.07    0.16
  -8  -1  -5    0.91    0.14
  -8  -1  -5    0.77    0.19
  -8   1  -5    0.93    0.18
  -8   1  -5    1.01    0.16
   8   1   5    1.04    0.18
  -8   1  -5    1.11    0.17
  -9  -1  -5    2.16    0.19
  -9   1  -5    1.86    0.21
   9   1   5    2.25    0.19
  10  -1   5   67.66    2.40
 -10  -1  -5   73.33    2.43
 -10   1  -5   66.17    2.37
  10   1   5   67.99    2.39
  11  -1   5   30.31    1.10
 -11  -1  -5   28.19    1.12
  11   1   5   30.69    1.09
  12  -1   5    0.06    0.07
 -12  -1  -5   -0.08    0.09
  12   1   5    0.08    0.07
  13  -1   5    6.10    0.30
 -13  -1  -5    5.86    0.32
  13   1   5    6.23    0.29
  14  -1   5    0.46    0.10
 -14  -1  -5    0.43    0.12
  14   1   5    0.62    0.11
  15  -1   5   12.11    0.45
  15   1   5   11.74    0.45
 -17  -2   5    0.41    0.14
  17  -2  -5    0.45    0.09
  17   2  -5    0.61    0.12
  17   2  -5    0.58    0.09
  16  -2  -5    3.57    0.19
 -16  -2   5    3.62    0.23
  16   2  -5    3.23    0.18
  16   2  -5    3.52    0.19
 -15  -2   5    7.50    0.38
  15  -2  -5    8.27    0.35
  15   2  -5    7.82    0.35
  15   2  -5    7.94    0.34
  14  -2  -5    0.08    0.10
  14  -2  -5    0.25    0.09
 -14   2   5    0.25    0.13
  14   2  -5    0.08    0.07
  14   2  -5    0.42    0.13
  13  -2  -5   26.23    0.97
 -13  -2   5   24.42    1.01
  13   2  -5   26.92    0.97
  13   2  -5   27.41    0.96
  12  -2  -5    1.49    0.23
 -12  -2   5    2.23    0.20
  12  -2  -5    1.73    0.18
  12   2  -5    1.77    0.17
  12   2  -5    1.80    0.17
  11  -2  -5    0.18    0.12
  11  -2  -5    0.13    0.08
  11   2  -5   -0.02    0.07
  11   2  -5    0.04    0.08
  10  -2  -5    1.57    0.20
  10  -2  -5    1.26    0.27
  10  -2  -5    1.45    0.17
  10   2  -5    1.36    0.15
 -10   2   5    1.59    0.24
  10   2  -5    1.47    0.17
   9  -2  -5   15.34    0.61
   9  -2  -5   16.24    0.64
   9   2  -5   16.10    0.61
   9   2  -5   15.59    0.60
  -9   2   5   15.19    0.62
   8  -2  -5   61.90    2.11
   8  -2  -5   59.06    2.14
   8  -2  -5   61.18    2.13
   8   2  -5   60.95    2.10
   8   2  -5   61.02    2.10
   7  -2  -5   73.56    2.56
   7  -2  -5   70.17    2.55
  -7  -2   5   73.87    2.55
   7   2  -5   78.41    2.57
  -6  -2   5    3.71    0.20
   6  -2  -5    3.18    0.21
   6  -2  -5    3.27    0.20
   6   2  -5    3.57    0.21
   5  -2  -5    1.06    0.14
   5  -2  -5    1.23    0.11
  -5  -2   5    1.13    0.14
  -5  -2   5    1.16    0.10
  -5   2   5    1.14    0.13
   5   2  -5    1.13    0.14
   4  -2  -5   54.22    1.84
  -4  -2   5   52.30    1.85
  -4  -2   5   55.13    1.84
  -4   2   5   51.79    1.84
  -3  -2   5   18.31    0.67
   3  -2  -5   20.20    0.68
  -3   2   5   17.84    0.67
   2  -2  -5    0.74    0.08
  -2  -2   5    0.86    0.07
  -2   2   5    0.87    0.08
   1  -2  -5   85.26    2.90
  -1  -2   5   86.14    2.89
  -1   2   5   84.87    2.90
   0  -2   5    6.24    0.23
   0  -2  -5    5.71    0.24
   0   2   5    5.63    0.24
  -1  -2  -5    0.07    0.06
   1  -2   5    0.06    0.03
  -1  -2  -5    0.07    0.04
   1   2   5    0.20    0.06
  -2  -2  -5    9.43    0.38
  -2  -2  -5    9.43    0.35
   2  -2   5    9.31    0.34
   2   2   5    9.28    0.36
   3  -2   5   29.72    1.00
  -3  -2  -5   29.84    1.06
  -3  -2  -5   29.41    1.03
   3   2   5   28.99    1.03
  -4  -2  -5    2.11    0.15
   4   2   5    2.23    0.15
  -5  -2  -5   61.00    2.12
  -6  -2  -5   45.32    1.57
  -6   2  -5   43.06    1.54
  -6   2  -5   44.14    1.55
  -6   2  -5   44.17    1.57
  -7  -2  -5   55.87    1.97
  -7  -2  -5   58.20    2.01
   7   2   5   55.50    1.99
  -7   2  -5   58.59    1.98
  -7   2  -5   56.68    1.98
  -7   2  -5   57.08    2.00
  -8  -2  -5   25.34    0.92
  -8  -2  -5   22.62    0.86
  -8   2  -5   23.15    0.87
  -8   2  -5   24.13    0.87
   8   2   5   23.49    0.88
  -9  -2  -5    0.22    0.09
  -9   2  -5    0.17    0.10
   9   2   5    0.14    0.09
  -9   2  -5    0.27    0.11
 -10  -2  -5    0.40    0.13
 -10   2  -5    0.56    0.11
  10   2   5    0.35    0.10
  11  -2   5   12.05    0.52
 -11  -2  -5   11.67    0.53
 -11   2  -5   11.78    0.49
  11   2   5   12.52    0.50
  12  -2   5    3.61    0.23
 -12  -2  -5    3.17    0.23
 -12   2  -5    3.75    0.23
  12   2   5    3.66    0.22
  13  -2   5    3.70    0.22
 -13  -2  -5    3.78    0.24
  13   2   5    3.65    0.21
 -14  -2  -5    0.71    0.14
  14  -2   5    0.45    0.10
  14   2   5    0.42    0.11
  15  -2   5    1.14    0.10
  15   2   5    1.19    0.12
  17  -3  -5    2.02    0.13
  17   3  -5    2.26    0.13
 -16  -3   5    0.06    0.08
  16  -3  -5   -0.05    0.05
  16   3  -5    0.02    0.07
  16   3  -5   -0.05    0.05
  15  -3  -5    3.75    0.21
 -15  -3   5    3.84    0.23
  15   3  -5    3.73    0.20
  15   3  -5    3.80    0.21
  14  -3  -5    3.23    0.21
 -14  -3   5    3.44    0.23
  14   3  -5    3.67    0.20
  14   3  -5    3.05    0.20
  13  -3  -5    0.33    0.09
 -13  -3   5    0.39    0.14
 -13   3   5    0.49    0.13
  13   3  -5    0.50    0.14
  13   3  -5    0.32    0.09
 -12  -3   5   17.06    0.73
  12  -3  -5   18.17    0.71
  12   3  -5   18.63    0.71
 -12   3   5   18.68    0.70
  12   3  -5   18.53    0.69
  11  -3  -5    4.52    0.27
 -11  -3   5    5.13    0.29
 -11   3   5    5.17    0.28
  11   3  -5    4.89    0.27
  11   3  -5    4.89    0.26
  10  -3  -5   38.04    1.39
 -10  -3   5   39.38    1.42
 -10   3   5   38.91    1.38
  10   3  -5   39.26    1.37
  10   3  -5   38.61    1.39
   9  -3  -5    2.41    0.20
   9  -3  -5    2.12    0.25
   9   3  -5    2.23    0.19
  -9   3   5    2.27    0.20
   9   3  -5    2.58    0.19
   8  -3  -5    1.51    0.17
   8  -3  -5    0.94    0.22
  -8   3   5    1.15    0.17
   8   3  -5    1.30    0.16
   8   3  -5    1.30    0.16
   7  -3  -5    1.71    0.21
   7  -3  -5    1.56    0.19
   7   3  -5    1.77    0.18
   7   3  -5    1.83    0.16
  -7   3   5    1.25    0.18
   6  -3  -5   30.16    1.12
   6  -3  -5   30.29    1.10
   5  -3  -5  151.20    4.99
  -5  -3   5  149.46    4.97
   5  -3  -5  138.71    4.97
  -4  -3   5   46.48    1.58
   4  -3  -5   45.42    1.59
   4  -3  -5   43.21    1.58
  -3  -3   5   85.85    2.81
   3  -3  -5   85.13    2.83
   3  -3  -5   75.71    2.81
   2  -3  -5    1.74    0.13
  -2  -3   5    1.76    0.13
   2  -3  -5    1.52    0.17
  -2   3   5    1.70    0.15
   1  -3  -5   37.16    1.29
   1  -3  -5   37.66    1.28
  -1  -3   5   34.93    1.27
  -1   3   5   35.65    1.28
   0  -3   5   43.79    1.58
   0  -3  -5   48.48    1.59
   0  -3  -5   46.22    1.59
   0   3  -5   45.80    1.58
   0   3   5   43.92    1.59
  -1  -3  -5   95.11    3.21
   1  -3   5   92.70    3.19
  -1  -3  -5   94.51    3.21
   1   3   5   92.25    3.21
  -1   3  -5   95.57    3.20
  -2  -3  -5    5.24    0.25
   2  -3   5    5.15    0.23
  -2  -3  -5    5.11    0.25
   2   3   5    4.78    0.27
  -3  -3  -5   13.43    0.51
  -3  -3  -5   13.62    0.52
   3  -3   5   13.14    0.49
   3   3   5   11.40    0.52
  -4  -3  -5   15.70    0.63
  -4  -3  -5   16.99    0.63
  -4   3  -5   16.29    0.61
  -4   3  -5   15.64    0.64
  -4   3  -5   16.05    0.62
  -5  -3  -5    8.12    0.37
  -5   3  -5    8.36    0.36
  -5   3  -5    8.13    0.35
  -5   3  -5    7.73    0.37
  -6  -3  -5    1.40    0.15
  -6   3  -5    1.24    0.16
  -6   3  -5    1.27    0.16
  -6   3  -5    1.40    0.19
  -7  -3  -5   13.46    0.54
   7  -3   5   12.61    0.53
  -7   3  -5   12.93    0.51
  -7   3  -5   12.76    0.54
  -7   3  -5   12.55    0.51
   7   3   5   12.29    0.54
  -8  -3  -5   13.41    0.54
   8  -3   5   11.98    0.52
   8   3   5   10.52    0.51
  -8   3  -5   12.62    0.50
  -8   3  -5   12.65    0.50
   9  -3   5   28.46    1.08
  -9  -3  -5   30.45    1.12
  -9   3  -5   30.00    1.07
   9   3   5   29.80    1.08
  -9   3  -5   29.41    1.08
  10  -3   5    6.64    0.35
 -10  -3  -5    6.45    0.36
 -10   3  -5    7.73    0.33
  10   3   5    7.53    0.35
  11  -3   5    0.45    0.23
  11  -3   5    0.21    0.08
 -11  -3  -5    0.30    0.10
  11   3   5    0.35    0.09
 -11   3  -5    0.53    0.14
 -12  -3  -5    1.29    0.15
  12  -3   5    1.36    0.15
  12   3   5    1.31    0.16
 -12   3  -5    1.24    0.15
  13  -3   5    9.90    0.40
 -13  -3  -5    9.48    0.42
 -13   3  -5    9.47    0.39
  13   3   5    9.69    0.39
 -14  -3  -5    0.03    0.08
  14  -3   5    0.06    0.05
  14   3   5    0.23    0.08
  16  -4  -5    0.26    0.08
  16   4  -5    0.27    0.09
  15  -4  -5    0.41    0.10
 -15  -4   5    0.38    0.15
  15   4  -5    0.28    0.08
  15   4  -5    0.42    0.10
  14  -4  -5    1.95    0.16
 -14  -4   5    1.76    0.18
 -14   4   5    2.19    0.18
  14   4  -5    1.91    0.15
  14   4  -5    1.85    0.15
  13  -4  -5   12.03    0.48
 -13  -4   5   11.01    0.49
  13   4  -5   11.23    0.45
 -13   4   5   11.82    0.46
  13   4  -5   11.09    0.46
  12  -4  -5    4.59    0.26
 -12  -4   5    4.77    0.28
 -12   4   5    4.78    0.26
  12   4  -5    4.49    0.25
  12   4  -5    5.06    0.26
 -11  -4   5   26.77    1.14
  11  -4  -5   30.96    1.13
  11   4  -5   32.20    1.13
 -11   4   5   32.42    1.12
  11   4  -5   31.41    1.11
 -10  -4   5    6.42    0.34
  10  -4  -5    6.52    0.33
 -10   4   5    6.34    0.32
  10   4  -5    6.35    0.31
  10   4  -5    6.70    0.32
  -9  -4   5   31.01    1.12
   9  -4  -5   28.04    1.09
   9   4  -5   30.71    1.09
  -9   4   5   29.38    1.08
   9   4  -5   30.46    1.08
  -8  -4   5   17.43    0.67
   8  -4  -5   17.11    0.66
   8   4  -5   16.90    0.64
   8   4  -5   14.85    0.64
  -8   4   5   17.22    0.65
   7  -4  -5   10.69    0.45
  -7  -4   5    9.70    0.45
  -7   4   5   10.17    0.43
   7   4  -5   10.50    0.43
   7   4  -5   10.93    0.44
  -6  -4   5   11.41    0.47
   6  -4  -5   10.77    0.46
  -6   4   5   10.42    0.45
   6   4  -5   11.34    0.45
  -6   4   5   10.35    0.45
   6   4  -5   11.04    0.46
   5   4  -5    6.24    0.29
   5   4  -5    5.86    0.30
  -5   4   5    6.37    0.30
   4   4  -5   61.78    2.10
  -4   4   5   60.49    2.10
   4   4  -5   60.30    2.11
   3   4  -5    2.03    0.16
  -3   4   5    1.52    0.15
   3   4  -5    1.92    0.18
   2  -4  -5    0.87    0.20
  -2  -4   5    0.66    0.18
  -2   4   5    0.69    0.13
   2   4  -5    0.74    0.16
   2   4  -5    0.89    0.14
  -1  -4   5    0.72    0.16
   1  -4  -5    0.62    0.18
   1   4  -5    0.26    0.09
   1   4  -5    0.61    0.17
  -1   4   5    0.50    0.09
   1   4  -5    0.42    0.11
   0  -4   5   14.95    0.59
   0  -4  -5   15.52    0.60
   0   4  -5   14.50    0.58
   0   4   5   14.98    0.57
   0   4  -5   15.43    0.58
   0   4  -5   14.79    0.59
  -1  -4  -5   15.11    0.60
   1  -4   5   14.35    0.60
   1   4   5   15.57    0.58
  -1   4  -5   15.32    0.59
  -1   4  -5   15.21    0.61
  -1   4  -5   16.54    0.59
   2  -4   5   23.32    0.95
  -2   4  -5   25.44    0.92
  -2   4  -5   25.28    0.92
  -2   4  -5   25.22    0.94
  -2   4  -5   26.44    0.92
  -3  -4  -5    4.00    0.23
  -3   4  -5    3.94    0.22
  -3   4  -5    4.29    0.27
  -3   4  -5    4.00    0.24
  -3   4  -5    3.93    0.24
  -4  -4  -5   17.03    0.65
  -4   4  -5   16.72    0.64
  -4   4  -5   15.90    0.63
  -4   4  -5   16.13    0.63
  -5  -4  -5    7.08    0.34
  -5   4  -5    6.99    0.33
  -5   4  -5    6.78    0.35
  -5   4  -5    7.03    0.32
  -6  -4  -5    0.51    0.13
  -6   4  -5    0.57    0.14
   6   4   5    0.72    0.14
  -6   4  -5    0.47    0.13
  -6   4  -5    0.54    0.11
  -7  -4  -5    1.56    0.17
  -7   4  -5    1.39    0.16
  -7   4  -5    1.64    0.19
  -7   4  -5    1.48    0.16
   7   4   5    1.12    0.15
   8  -4   5    0.87    0.18
  -8  -4  -5    0.43    0.13
  -8   4  -5    0.58    0.13
   8   4   5    0.50    0.14
  -8   4  -5    0.60    0.15
   9  -4   5   14.11    0.55
  -9  -4  -5   12.70    0.57
  -9   4  -5   13.75    0.54
  -9   4  -5   13.51    0.54
   9   4   5   13.10    0.55
 -10  -4  -5   16.77    0.72
  10  -4   5   18.26    0.69
 -10   4  -5   18.95    0.68
  10   4   5   17.74    0.69
 -11  -4  -5    0.05    0.08
  11  -4   5    0.04    0.07
  11  -4   5    0.00    0.10
  11   4   5    0.07    0.10
 -11   4  -5    0.10    0.07
  12  -4   5    0.03    0.06
 -12  -4  -5    0.00    0.08
  12   4   5   -0.11    0.16
 -12   4  -5    0.07    0.06
 -13  -4  -5    0.07    0.09
  13  -4   5    0.11    0.05
 -13   4  -5   -0.01    0.07
  15  -5  -5    6.82    0.27
  15   5  -5    6.53    0.27
  14  -5  -5    0.44    0.10
 -14   5   5    0.39    0.12
  14   5  -5    0.37    0.09
  14   5  -5    0.46    0.12
  13  -5  -5    0.22    0.07
 -13  -5   5   -0.02    0.14
 -13   5   5    0.14    0.07
  13   5  -5    0.10    0.06
  13   5  -5    0.42    0.11
 -12  -5   5   11.86    0.52
  12  -5  -5   12.09    0.49
  12   5  -5   12.00    0.48
  12   5  -5   12.09    0.47
 -12   5   5   11.96    0.47
 -11  -5   5    6.73    0.38
  11  -5  -5    7.03    0.34
 -11   5   5    7.36    0.33
  11   5  -5    7.52    0.34
  11   5  -5    7.13    0.32
  10  -5  -5   13.03    0.54
 -10  -5   5   12.45    0.57
 -10   5   5   13.51    0.53
  10   5  -5   13.35    0.52
  10   5  -5   13.79    0.54
   9  -5  -5    2.80    0.21
   9   5  -5    2.68    0.20
  -9   5   5    2.84    0.20
   9   5  -5    2.67    0.19
   8  -5  -5   18.52    0.72
  -8   5   5   18.65    0.71
   8   5  -5   18.21    0.70
   8   5  -5   18.86    0.72
   7  -5  -5    3.89    0.26
  -7   5   5    4.17    0.25
   7   5  -5    4.55    0.26
  -7   5   5    4.32    0.24
   7   5  -5    4.16    0.23
   6  -5  -5    1.77    0.20
  -6   5   5    1.61    0.18
  -6   5   5    1.93    0.17
   6   5  -5    1.69    0.17
   6   5  -5    1.81    0.16
   5   5  -5   30.75    1.27
   5   5  -5   30.20    1.26
   5   5  -5   40.17    1.28
  -5   5   5   40.61    1.27
  -5   5   5   37.09    1.28
   4   5  -5   17.31    0.66
  -4   5   5   17.36    0.66
  -4   5   5   16.60    0.64
   4   5  -5   16.94    0.65
   4   5  -5   17.17    0.65
   3   5  -5    0.16    0.09
   3   5  -5    0.10    0.07
  -3   5   5    0.15    0.08
   3   5  -5    0.49    0.13
  -3   5   5    0.15    0.07
   2   5  -5   11.23    0.45
   2   5  -5   11.59    0.47
   2   5  -5   10.69    0.45
  -2   5   5   10.83    0.45
   1   5  -5    1.57    0.15
   1   5  -5    1.50    0.18
   1   5  -5    1.89    0.17
  -1   5   5    1.79    0.14
   0   5  -5    9.96    0.42
   0   5   5   10.34    0.41
   0   5  -5   10.19    0.42
   0   5  -5    9.72    0.45
   0   5  -5    9.62    0.43
   1   5   5    7.69    0.33
  -1   5  -5    7.09    0.35
  -1   5  -5    7.83    0.34
  -1   5  -5    7.55    0.35
  -1   5  -5    7.69    0.37
  -2  -5  -5   17.89    0.72
   2   5   5   18.41    0.69
  -2   5  -5   18.58    0.70
  -2   5  -5   17.95    0.70
  -2   5  -5   18.60    0.72
  -2   5  -5   19.13    0.70
  -3  -5  -5   87.16    2.95
  -3   5  -5   82.48    2.93
  -3   5  -5   85.39    2.93
  -3   5  -5   87.19    2.93
   3   5   5   85.99    2.92
  -3   5  -5   83.55    2.95
  -4  -5  -5    1.30    0.18
  -4   5  -5    1.28    0.16
  -4   5  -5    1.01    0.17
   4   5   5    1.43    0.14
  -4   5  -5    1.50    0.15
  -4   5  -5    1.34    0.16
  -5  -5  -5    5.68    0.31
  -5   5  -5    5.83    0.31
   5   5   5    5.91    0.28
  -5   5  -5    5.82    0.29
  -5   5  -5    5.46    0.29
  -6  -5  -5   29.99    1.27
  -6   5  -5   35.71    1.26
   6   5   5   35.50    1.24
  -6   5  -5   36.65    1.28
  -6   5  -5   36.79    1.26
  -7  -5  -5   25.34    1.02
   7  -5   5   27.08    1.01
  -7   5  -5   28.09    1.00
   7   5   5   26.96    0.98
  -7   5  -5   28.04    1.00
  -7   5  -5   27.56    1.02
  -8  -5  -5    4.02    0.26
   8  -5   5    4.20    0.25
  -8   5  -5    4.26    0.23
  -8   5  -5    4.33    0.23
  -9  -5  -5    1.42    0.18
   9  -5   5    1.63    0.16
  -9   5  -5    1.67    0.16
  -9   5  -5    1.57    0.14
 -10  -5  -5    9.99    0.44
  10  -5   5    9.86    0.41
 -10   5  -5    9.85    0.40
  11  -5   5    2.47    0.17
  11  -5   5    2.76    0.18
 -11  -5  -5    2.56    0.20
 -11   5  -5    2.63    0.15
  12  -5   5    0.13    0.06
 -12   5  -5    0.19    0.06
  13  -6  -5    0.24    0.08
 -13   6   5    0.13    0.06
  12  -6  -5    0.01    0.06
 -12   6   5    0.02    0.05
  12   6  -5    0.03    0.07
  12   6  -5   -0.01    0.05
  11  -6  -5    1.98    0.15
  11   6  -5    1.62    0.14
  11   6  -5    1.68    0.14
 -11   6   5    1.93    0.14
  10  -6  -5    0.60    0.12
 -10   6   5    0.70    0.11
  10   6  -5    0.52    0.11
  10   6  -5    0.56    0.11
   9  -6  -5    0.43    0.13
  -9   6   5    0.51    0.11
   9   6  -5    0.63    0.12
   9   6  -5    0.53    0.12
   8  -6  -5    9.29    0.41
   8   6  -5    9.90    0.41
  -8   6   5    9.28    0.40
   8   6  -5    9.27    0.39
   7  -6  -5    3.06    0.21
   7   6  -5    2.90    0.19
  -7   6   5    2.58    0.20
   7   6  -5    2.93    0.20
  -7   6   5    2.72    0.19
   6  -6  -5   12.75    0.54
   6   6  -5   13.19    0.53
  -6   6   5   12.62    0.52
  -6   6   5   13.28    0.52
   6   6  -5   13.44    0.52
   5  -6  -5   11.78    0.51
   5   6  -5   12.02    0.50
  -5   6   5   12.28    0.49
  -5   6   5   11.86    0.48
   5   6  -5   12.65    0.49
  -4   6   5   20.18    0.75
  -4   6   5   19.80    0.74
   4   6  -5   19.97    0.76
   4   6  -5   19.73    0.74
   4   6  -5   18.97    0.74
   3   6  -5   30.17    1.10
  -3   6   5   31.27    1.10
   3   6  -5   30.27    1.10
   3   6  -5   30.00    1.11
  -3   6   5   30.69    1.10
  -2   6   5    6.82    0.34
   2   6  -5    7.36    0.35
   2   6  -5    7.46    0.33
   2   6  -5    7.37    0.33
  -2   6   5    6.97    0.32
  -1   6   5    3.48    0.20
  -1   6   5    3.67    0.24
   1   6  -5    3.49    0.21
   1   6  -5    3.58    0.22
   1   6  -5    3.91    0.24
   0   6  -5    9.06    0.38
   0   6  -5    9.10    0.40
   0   6  -5    8.51    0.38
   0   6   5    8.25    0.37
  -1   6  -5   21.42    0.81
  -1   6  -5   21.58    0.81
   1   6   5   21.44    0.80
  -1   6  -5   22.04    0.83
  -2   6  -5    7.16    0.33
  -2   6  -5    6.28    0.32
  -2   6  -5    6.92    0.32
  -2   6  -5    6.98    0.34
   2   6   5    6.64    0.31
  -3   6  -5    1.38    0.14
  -3   6  -5    1.19    0.16
  -3   6  -5    1.26    0.17
  -3   6  -5    1.16    0.15
   3   6   5    1.18    0.13
   4   6   5   14.96    0.59
  -4   6  -5   15.85    0.62
  -4   6  -5   14.99    0.60
  -4   6  -5   15.64    0.60
   5   6   5    6.83    0.30
  -5   6  -5    6.95    0.32
  -5   6  -5    6.77    0.31
  -5   6  -5    6.57    0.34
  -6   6  -5    0.31    0.09
  -6   6  -5    0.46    0.12
   6   6   5    0.58    0.11
  -6   6  -5    0.42    0.12
  -7  -6  -5   -0.04    0.16
   7  -6   5    0.05    0.07
  -7   6  -5    0.00    0.06
  -7   6  -5   -0.05    0.06
   7   6   5    0.08    0.07
  -7   6  -5   -0.05    0.07
  -8  -6  -5    0.15    0.16
   8  -6   5   -0.09    0.07
  -8   6  -5    0.03    0.06
  -8   6  -5    0.11    0.06
   8   6   5    0.12    0.08
   9  -6   5    8.35    0.34
  -9   6  -5    8.35    0.34
  -9   6  -5    8.10    0.34
  10  -6   5    0.70    0.11
  10  -6   5    0.61    0.11
 -10   6  -5    0.68    0.09
  11  -6   5    1.20    0.12
 -11   6  -5    1.24    0.09
  11  -7  -5    7.57    0.30
 -11   7   5    7.47    0.30
  11   7  -5    7.86    0.30
  10  -7  -5   10.71    0.41
 -10   7   5   10.31    0.40
  10   7  -5   10.24    0.40
  10   7  -5   10.47    0.40
   9  -7  -5    1.62    0.14
  -9   7   5    1.63    0.12
   9   7  -5    1.53    0.13
   9   7  -5    1.47    0.13
   8  -7  -5   10.14    0.42
  -8   7   5   10.44    0.41
   8   7  -5   10.41    0.41
   8   7  -5   10.66    0.42
   7  -7  -5    0.56    0.13
   7   7  -5    0.45    0.10
   7   7  -5    0.66    0.12
  -7   7   5    0.54    0.10
  -7   7   5    0.49    0.12
   6  -7  -5   20.40    0.77
   6   7  -5   21.08    0.78
  -6   7   5   21.23    0.76
   6   7  -5   20.98    0.77
  -6   7   5   20.77    0.77
   5  -7  -5    0.76    0.16
  -5   7   5    0.46    0.10
  -5   7   5    0.71    0.12
   5   7  -5    0.59    0.11
   5   7  -5    0.46    0.13
   4   7  -5    3.24    0.20
  -4   7   5    4.22    0.22
   4   7  -5    4.16    0.22
   4   7  -5    3.88    0.23
  -4   7   5    3.89    0.21
  -3   7   5    7.68    0.34
   3   7  -5    7.85    0.34
  -3   7   5    7.73    0.33
   3   7  -5    7.91    0.35
   3   7  -5    7.39    0.34
   2   7  -5    4.15    0.23
  -2   7   5    4.00    0.21
   2   7  -5    3.77    0.21
   2   7  -5    4.31    0.24
  -2   7   5    4.03    0.23
   1   7  -5    4.63    0.26
   1   7  -5    4.52    0.24
   1   7  -5    4.71    0.24
  -1   7   5    4.56    0.23
   0   7   5   14.96    0.58
   0   7  -5   15.08    0.59
   0   7  -5   15.02    0.58
   0   7  -5   15.17    0.60
  -1   7  -5   26.11    0.96
   1   7   5   25.95    0.95
  -1   7  -5   25.75    0.96
  -1   7  -5   27.36    0.98
  -2   7  -5    3.25    0.19
   2   7   5    3.06    0.19
  -2   7  -5    3.57    0.22
  -3   7  -5    6.03    0.29
  -3   7  -5    6.18    0.28
  -3   7  -5    5.73    0.27
   3   7   5    5.91    0.27
  -4   7  -5    1.20    0.15
  -4   7  -5    1.36    0.12
   4   7   5    1.22    0.12
  -4   7  -5    1.40    0.14
  -5   7  -5    1.76    0.13
  -5   7  -5    2.04    0.14
   5   7   5    1.94    0.14
  -5   7  -5    2.28    0.17
   6  -7   5   49.39    1.72
  -6   7  -5   49.36    1.72
  -6   7  -5   47.54    1.71
   6   7   5   50.76    1.70
  -6   7  -5   49.77    1.70
   7  -7   5    0.19    0.06
   7   7   5    0.11    0.07
  -7   7  -5    0.12    0.05
   8  -7   5    0.91    0.10
  -8   7  -5    0.91    0.10
  -8   7  -5    0.88    0.09
   9  -7   5   -0.02    0.06
   9  -7   5    0.13    0.08
  -9   7  -5    0.04    0.04
   8   8  -5   18.99    0.70
  -8   8   5   20.92    0.70
   7  -8  -5    1.12    0.16
  -7   8   5    1.13    0.10
   7   8  -5    1.25    0.12
  -6   8   5    0.54    0.09
  -6   8   5    0.55    0.10
   6   8  -5    0.53    0.12
  -5   8   5    3.58    0.18
  -5   8   5    3.45    0.17
   5   8  -5    3.19    0.17
   5   8  -5    3.46    0.19
  -4   8   5   13.69    0.50
   4   8  -5   13.52    0.51
   4   8  -5   13.35    0.50
  -4   8   5   13.62    0.50
   4   8  -5   13.23    0.51
   3   8  -5   27.57    0.98
   3   8  -5   27.29    0.97
  -3   8   5   27.04    0.97
   3   8  -5   27.76    0.97
   2   8  -5    0.27    0.06
  -2   8   5    0.32    0.07
   2   8  -5    0.29    0.09
   2   8  -5    0.24    0.07
   1   8  -5    5.06    0.24
  -1   8   5    5.16    0.23
   1   8  -5    4.90    0.23
   0   8   5    1.25    0.10
   0   8  -5    1.23    0.11
   0   8  -5    1.46    0.14
   1   8   5    6.64    0.28
  -1   8  -5    6.85    0.30
  -1   8  -5    7.12    0.29
  -2   8  -5    9.29    0.36
   2   8   5    9.38    0.36
  -2   8  -5    9.04    0.37
  -3   8  -5    4.42    0.22
  -3   8  -5    4.13    0.19
   3   8   5    4.34    0.19
   4  -8   5   18.74    0.66
   4   8   5   18.90    0.65
  -4   8  -5   17.30    0.66
   5  -8   5    1.42    0.11
   5   8   5    1.69    0.11
  -5   8  -5    1.60    0.10
  -5   8  -5    1.66    0.14
   6  -8   5    1.35    0.10
  -6   8  -5    1.23    0.09
  18   0  -6    0.47    0.09
 -17   0   6    0.39    0.16
  17   0  -6    0.03    0.06
  17   0  -6    0.12    0.07
  16   0  -6    5.93    0.29
  16   0  -6    6.03    0.27
 -16   0   6    6.02    0.32
  15   0  -6   -0.04    0.08
 -15   0   6   -0.04    0.09
  15   0  -6    0.17    0.08
 -14   0   6    0.74    0.16
  14   0  -6    0.83    0.17
  14   0  -6    1.03    0.14
  13   0  -6   -0.06    0.08
  12   0  -6   41.21    1.45
  12   0  -6   40.19    1.45
  11   0  -6    0.15    0.10
  11   0  -6   -0.07    0.07
  10   0  -6   32.81    1.18
  10   0  -6   32.62    1.17
   9   0  -6   -0.04    0.09
   9   0  -6    0.10    0.07
   8   0  -6    0.22    0.08
   7   0  -6    0.01    0.06
   6   0  -6   19.51    0.73
  -6   0   6   19.68    0.73
  -5   0   6    0.05    0.06
   5   0  -6    0.01    0.06
   5   0  -6    0.08    0.05
   4   0  -6  119.81    4.27
  -4   0   6  133.40    4.28
   3   0  -6    0.22    0.05
  -3   0   6    0.14    0.06
   2   0  -6   17.78    0.66
  -2   0   6   19.95    0.67
   1   0  -6    0.04    0.02
  -1   0   6    0.00    0.03
   0   0   6  125.69    4.26
   1   0   6    0.06    0.02
  -3   0  -6    0.03    0.07
  -4   0  -6  209.82    7.08
  -5   0  -6    0.06    0.07
  -6   0  -6    0.33    0.11
  -7   0  -6   -0.03    0.10
  -7   0  -6   -0.02    0.12
  -8   0  -6   95.68    3.23
  -8   0  -6   93.49    3.19
   8   0   6   95.75    3.22
  -8   0  -6   89.51    3.19
   9   0   6    0.07    0.09
  -9   0  -6    0.21    0.10
  -9   0  -6    0.16    0.15
  -9   0  -6   -0.06    0.09
 -10   0  -6    2.17    0.21
  10   0   6    2.51    0.20
 -11   0  -6    0.06    0.10
  11   0   6   -0.02    0.07
  12   0   6   16.91    0.62
 -12   0  -6   14.18    0.63
 -13   0  -6    0.05    0.13
  13   0   6   -0.03    0.05
  14   0   6    4.37    0.22
  15   0   6   -0.02    0.05
  18  -1  -6    4.06    0.18
  18   1  -6    3.94    0.20
  17  -1  -6    0.78    0.10
  17  -1  -6    0.71    0.16
 -17  -1   6    0.76    0.15
  17   1  -6    0.68    0.12
  17   1  -6    0.83    0.10
  16  -1  -6    1.25    0.12
  16  -1  -6    1.25    0.16
 -16  -1   6    1.37    0.16
  16   1  -6    1.25    0.12
  16   1  -6    1.42    0.14
 -16   1   6    1.09    0.19
 -15  -1   6    1.12    0.17
  15  -1  -6    1.09    0.18
  15  -1  -6    1.18    0.13
  15   1  -6    1.26    0.14
 -15   1   6    1.06    0.18
  15   1  -6    1.18    0.15
  14  -1  -6   32.42    1.14
  14  -1  -6   31.24    1.14
 -14  -1   6   30.60    1.19
  14   1  -6   32.73    1.14
 -14   1   6   29.46    1.18
  14   1  -6   31.61    1.13
  13  -1  -6    6.67    0.32
  13  -1  -6    6.52    0.34
  13   1  -6    6.70    0.32
  13   1  -6    7.20    0.33
  12  -1  -6    3.05    0.21
  12  -1  -6    3.32    0.25
  12   1  -6    2.98    0.20
  12   1  -6    3.09    0.23
  11  -1  -6    4.34    0.25
  11  -1  -6    4.71    0.30
  11   1  -6    4.71    0.27
  11   1  -6    4.53    0.25
  10  -1  -6    2.79    0.22
  10  -1  -6    2.56    0.20
  10  -1  -6    2.58    0.28
  10   1  -6    2.82    0.19
  10   1  -6    2.58    0.21
   9  -1  -6   16.33    0.64
   9  -1  -6   16.13    0.62
   9   1  -6   15.51    0.60
   9   1  -6   15.42    0.62
   8  -1  -6   28.02    1.07
   8  -1  -6   28.66    1.07
  -8  -1   6   30.65    1.07
   8   1  -6   28.70    1.07
   7  -1  -6    0.24    0.09
  -7  -1   6    0.52    0.12
   7  -1  -6    0.34    0.11
   7   1  -6    0.35    0.12
  -6  -1   6   52.31    1.84
  -6  -1   6   56.44    1.83
   6  -1  -6   50.61    1.84
   6  -1  -6   53.56    1.83
   6   1  -6   52.81    1.84
  -6   1   6   50.93    1.83
  -5  -1   6  107.19    3.67
   5  -1  -6  105.12    3.68
   5  -1  -6  108.45    3.67
  -5   1   6  110.53    3.67
   5   1  -6  108.93    3.68
   4  -1  -6    2.65    0.14
   4  -1  -6    2.20    0.16
  -4  -1   6    2.86    0.15
  -4   1   6    2.73    0.14
  -3  -1   6   14.63    0.52
   3  -1  -6   14.15    0.52
  -3  -1   6   13.36    0.51
  -3   1   6   14.59    0.52
  -2  -1   6   30.53    1.06
  -2  -1   6   31.06    1.06
   2  -1  -6   30.71    1.06
  -2   1   6   30.26    1.06
  -1  -1   6   14.84    0.52
   1  -1  -6   15.23    0.53
  -1  -1   6   15.10    0.53
  -1   1   6   13.99    0.52
   0  -1  -6   98.63    3.30
   0  -1   6   95.42    3.29
   0  -1   6  101.70    3.30
   0   1   6   96.24    3.30
   1  -1   6   31.33    1.01
  -1  -1  -6   27.66    1.05
  -1  -1  -6   31.02    1.02
   1  -1   6   29.22    1.01
   1   1   6   29.92    1.02
  -2  -1  -6    0.23    0.07
  -2  -1  -6    0.20    0.04
   2   1   6    0.19    0.05
  -3  -1  -6   29.13    1.06
   3   1   6   30.07    1.01
  -4  -1  -6  122.91    4.09
  -4   1  -6  117.16    4.07
  -5  -1  -6   10.49    0.43
  -5   1  -6   10.13    0.43
  -6  -1  -6   21.86    0.78
  -6   1  -6   17.90    0.75
  -6   1  -6   21.37    0.76
  -6   1  -6   20.93    0.77
  -7  -1  -6   42.62    1.47
  -7  -1  -6   41.19    1.43
  -7   1  -6   39.47    1.43
  -7   1  -6   40.54    1.43
  -7   1  -6   41.54    1.46
   7   1   6   39.60    1.45
  -8  -1  -6    1.64    0.19
  -8  -1  -6    1.92    0.17
  -8   1  -6    1.54    0.19
   8   1   6    1.47    0.20
  -8   1  -6    1.89    0.18
  -9  -1  -6   13.68    0.57
  -9  -1  -6   15.43    0.61
  -9   1  -6   12.88    0.53
  -9   1  -6   12.57    0.53
   9   1   6   13.30    0.55
 -10  -1  -6    4.06    0.27
  10  -1   6    4.09    0.25
 -10   1  -6    4.20    0.25
  10   1   6    4.34    0.26
 -11  -1  -6    4.87    0.30
  11  -1   6    5.32    0.29
  11   1   6    5.11    0.28
 -11   1  -6    5.23    0.29
 -12  -1  -6    6.50    0.35
  12  -1   6    6.81    0.33
  12   1   6    7.05    0.32
  13  -1   6    0.91    0.12
 -13  -1  -6    0.97    0.16
  13   1   6    1.05    0.13
  14  -1   6   -0.03    0.05
 -14  -1  -6    0.06    0.13
  14   1   6    0.01    0.06
  15  -1   6    6.32    0.26
  15   1   6    5.98    0.25
  17  -2  -6    6.29    0.26
 -17  -2   6    6.40    0.31
  17   2  -6    6.39    0.26
  17   2  -6    6.14    0.27
  16  -2  -6    0.88    0.11
 -16  -2   6    0.81    0.14
  16   2  -6    0.98    0.11
  16   2  -6    0.96    0.12
  15  -2  -6   19.39    0.72
 -15  -2   6   18.54    0.76
  15   2  -6   18.97    0.70
  15   2  -6   19.46    0.72
  14  -2  -6    0.59    0.13
 -14  -2   6    0.47    0.15
  14   2  -6    0.37    0.13
  14   2  -6    0.58    0.13
  13  -2  -6    0.34    0.10
 -13  -2   6    0.25    0.10
  13   2  -6    0.29    0.09
  13   2  -6    0.34    0.09
  12  -2  -6   48.83    1.75
  12   2  -6   51.12    1.75
  12   2  -6   48.82    1.74
  11  -2  -6   35.01    1.26
  11   2  -6   34.93    1.24
  11   2  -6   34.46    1.25
  10  -2  -6    0.11    0.09
  10  -2  -6    0.17    0.11
  10   2  -6    0.16    0.08
  10   2  -6    0.14    0.08
 -10   2   6   -0.11    0.14
   9  -2  -6   13.61    0.56
   9  -2  -6   13.50    0.54
  -9   2   6   12.87    0.54
   9   2  -6   13.40    0.53
   9   2  -6   13.19    0.52
   8  -2  -6   25.34    0.91
   8  -2  -6   24.24    0.88
   8   2  -6   22.87    0.87
   8   2  -6   23.57    0.87
   8   2  -6   23.33    0.90
   7  -2  -6    5.12    0.29
   7  -2  -6    5.03    0.28
  -7  -2   6    5.26    0.28
   7   2  -6    5.57    0.28
  -6  -2   6    2.37    0.17
   6  -2  -6    2.27    0.18
   6  -2  -6    2.37    0.18
   6   2  -6    2.36    0.18
  -5  -2   6   13.63    0.52
   5  -2  -6   12.94    0.53
   5  -2  -6   14.16    0.53
   5   2  -6   13.62    0.54
  -4  -2   6   21.02    0.78
   4  -2  -6   22.33    0.80
  -4  -2   6   22.54    0.81
   4  -2  -6   21.34    0.81
  -4   2   6   22.16    0.80
  -3  -2   6  105.62    3.70
  -3  -2   6  113.03    3.71
   3  -2  -6  109.53    3.72
   3  -2  -6  109.88    3.71
  -3   2   6  108.19    3.70
  -2  -2   6  107.42    3.62
  -2   2   6  106.39    3.62
  -1  -2   6   11.49    0.40
   1  -2  -6   10.18    0.43
   1  -2  -6   11.05    0.42
  -1   2   6   10.84    0.41
   0  -2  -6   11.20    0.44
   0  -2   6   10.76    0.40
   0  -2  -6   10.81    0.41
   0   2   6   11.03    0.41
  -1  -2  -6   13.60    0.49
  -1  -2  -6   13.51    0.51
   1  -2   6   12.85    0.47
   1   2   6   12.90    0.49
  -2  -2  -6   14.79    0.54
   2  -2   6   15.84    0.53
  -2  -2  -6   14.20    0.57
   2  -2   6   14.96    0.52
   2   2   6   14.86    0.55
  -3  -2  -6   22.32    0.79
   3   2   6   20.00    0.75
  -5  -2  -6    0.20    0.09
  -5  -2  -6    0.42    0.11
  -5   2  -6    0.32    0.10
  -5   2  -6    0.46    0.10
  -5   2  -6    0.37    0.12
  -6  -2  -6    3.84    0.22
  -6  -2  -6    3.77    0.22
  -6   2  -6    3.65    0.22
   6   2   6    3.29    0.46
  -6   2  -6    4.03    0.25
  -6   2  -6    3.45    0.22
  -7  -2  -6    1.79    0.18
  -7  -2  -6    2.12    0.18
  -7   2  -6    2.08    0.18
  -7   2  -6    2.27    0.18
   7   2   6    2.05    0.24
  -8  -2  -6   49.10    1.67
  -8  -2  -6   47.18    1.61
  -8   2  -6   40.12    1.61
   8   2   6   46.37    1.63
  -8   2  -6   48.13    1.62
  -9  -2  -6   11.10    0.47
  -9   2  -6    9.90    0.42
   9   2   6    9.60    0.44
  -9   2  -6    9.48    0.42
 -10  -2  -6   36.97    1.44
 -10   2  -6   40.58    1.39
  10   2   6   40.30    1.40
 -11  -2  -6    1.94    0.19
  11  -2   6    1.94    0.18
 -11   2  -6    2.04    0.18
  11   2   6    2.06    0.19
 -12  -2  -6    3.24    0.24
  12  -2   6    3.78    0.23
 -12   2  -6    3.46    0.22
  12   2   6    3.55    0.22
 -13  -2  -6    2.79    0.20
  13  -2   6    2.80    0.17
  13   2   6    2.61    0.17
 -14  -2  -6    0.91    0.17
  14  -2   6    0.82    0.10
  14   2   6    0.87    0.12
  17  -3  -6    1.75    0.12
  17   3  -6    1.79    0.12
 -16  -3   6    9.51    0.40
  16  -3  -6    9.35    0.37
  16   3  -6    9.17    0.36
  16   3  -6    9.03    0.37
  15  -3  -6    0.12    0.06
 -15  -3   6    0.15    0.08
  15   3  -6    0.14    0.06
  15   3  -6    0.10    0.07
 -14  -3   6    1.28    0.16
  14  -3  -6    1.11    0.14
  14   3  -6    1.44    0.15
  14   3  -6    1.34    0.14
  13  -3  -6    0.04    0.07
 -13  -3   6    0.02    0.08
 -13   3   6    0.23    0.12
  13   3  -6    0.02    0.07
  13   3  -6    0.01    0.07
 -12  -3   6    9.21    0.45
  12  -3  -6    9.53    0.43
  12   3  -6    9.57    0.41
 -12   3   6    9.61    0.42
  12   3  -6    9.93    0.42
  11  -3  -6   18.88    0.73
 -11  -3   6   19.37    0.77
  11   3  -6   18.61    0.73
 -11   3   6   19.29    0.73
  11   3  -6   18.69    0.72
  10  -3  -6   26.51    0.99
  10  -3  -6   25.54    0.95
  10   3  -6   27.84    0.95
 -10   3   6   21.64    0.93
  10   3  -6   26.21    0.93
   9  -3  -6   13.19    0.55
   9  -3  -6   13.82    0.58
   9   3  -6   13.41    0.54
  -9   3   6   13.57    0.54
   9   3  -6   13.36    0.53
   8  -3  -6    0.21    0.10
   8  -3  -6    0.18    0.12
  -8   3   6    0.12    0.10
   8   3  -6    0.08    0.08
   8   3  -6    0.03    0.08
   7  -3  -6    3.47    0.25
   7  -3  -6    3.33    0.23
   7   3  -6    3.81    0.23
   7   3  -6    3.37    0.21
   6  -3  -6    9.65    0.43
   6   3  -6    9.73    0.40
   6   3  -6    9.67    0.42
  -5  -3   6   48.29    1.68
   5  -3  -6   46.98    1.67
   5  -3  -6   47.34    1.69
   4  -3  -6    4.47    0.25
   4  -3  -6    3.94    0.25
  -4  -3   6    4.19    0.23
   3  -3  -6   50.56    1.74
   3  -3  -6   49.03    1.74
  -3  -3   6   49.48    1.73
   2  -3  -6   53.73    1.79
   2  -3  -6   51.29    1.78
  -2  -3   6   47.95    1.76
   1  -3  -6   12.43    0.50
  -1  -3   6   12.13    0.47
   1  -3  -6   12.73    0.50
   0  -3  -6    4.97    0.25
   0  -3   6    4.91    0.23
   0  -3  -6    4.95    0.25
  -1  -3  -6   31.63    1.09
  -1  -3  -6   32.10    1.09
   1  -3   6   30.71    1.06
   1   3   6   26.50    1.08
  -2  -3  -6   48.54    1.72
  -2  -3  -6   49.73    1.73
   2  -3   6   49.78    1.70
  -3  -3  -6   28.98    1.01
  -3  -3  -6   27.78    1.00
  -3   3  -6   26.63    0.99
  -3   3  -6   27.70    1.01
  -3   3  -6   26.54    0.99
  -4  -3  -6    6.47    0.32
  -4   3  -6    6.45    0.31
  -4   3  -6    6.46    0.35
  -4   3  -6    6.93    0.31
  -5  -3  -6    3.82    0.22
  -5   3  -6    3.23    0.25
  -5   3  -6    3.67    0.22
  -5   3  -6    3.67    0.22
  -6  -3  -6    5.85    0.30
  -6   3  -6    5.60    0.32
  -6   3  -6    5.68    0.29
  -6   3  -6    5.95    0.29
  -7  -3  -6   25.21    0.94
   7  -3   6   22.90    0.91
  -7   3  -6   23.53    0.92
  -7   3  -6   24.55    0.90
  -7   3  -6   25.52    0.90
   8  -3   6    0.17    0.13
  -8  -3  -6    0.32    0.13
  -8   3  -6    0.70    0.14
  -8   3  -6    0.13    0.09
   8   3   6    0.36    0.13
   9  -3   6    5.59    0.34
  -9  -3  -6    5.79    0.33
  -9   3  -6    6.68    0.31
  -9   3  -6    6.44    0.31
   9   3   6    6.77    0.34
 -10  -3  -6    2.70    0.22
 -10   3  -6    3.09    0.20
 -10   3  -6    3.36    0.22
  10   3   6    2.81    0.23
 -11  -3  -6    0.39    0.13
  11  -3   6    0.53    0.14
 -11   3  -6    0.40    0.12
  11   3   6    0.29    0.10
 -12  -3  -6    1.00    0.14
  12  -3   6    1.10    0.13
  12   3   6    0.75    0.16
 -12   3  -6    1.01    0.14
 -13  -3  -6    1.02    0.14
  13  -3   6    0.93    0.11
  13   3   6    0.62    0.16
 -13   3  -6    0.88    0.17
  14  -3   6    0.02    0.04
  16  -4  -6    1.65    0.11
  16   4  -6    1.65    0.11
  15  -4  -6    1.71    0.13
 -15  -4   6    1.61    0.18
  15   4  -6    1.76    0.13
  15   4  -6    1.79    0.13
  14  -4  -6    5.65    0.27
 -14  -4   6    5.71    0.30
  14   4  -6    5.75    0.26
  14   4  -6    5.66    0.27
 -14   4   6    5.86    0.28
  13  -4  -6   11.47    0.47
 -13  -4   6   10.95    0.49
  13   4  -6   11.56    0.45
 -13   4   6   11.14    0.45
  13   4  -6   11.20    0.46
 -12  -4   6    2.92    0.22
  12  -4  -6    2.95    0.21
 -12   4   6    2.88    0.21
  12   4  -6    3.30    0.21
  12   4  -6    3.03    0.19
 -11  -4   6    0.26    0.10
  11  -4  -6    0.25    0.09
 -11   4   6    0.49    0.14
  11   4  -6    0.13    0.08
  11   4  -6    0.09    0.07
  10  -4  -6   10.23    0.46
 -10  -4   6   11.34    0.49
  10   4  -6   10.96    0.46
  10   4  -6   10.02    0.44
 -10   4   6   10.83    0.45
   9  -4  -6    1.62    0.18
  -9  -4   6    1.82    0.20
   9   4  -6    1.85    0.18
   9   4  -6    1.77    0.16
  -9   4   6    1.83    0.17
   8  -4  -6    2.03    0.20
  -8  -4   6    2.64    0.22
   8   4  -6    2.31    0.19
   8   4  -6    2.47    0.18
  -8   4   6    2.45    0.19
   7  -4  -6   15.92    0.65
  -7  -4   6   18.09    0.67
  -7   4   6   15.90    0.64
   7   4  -6   16.97    0.65
   7   4  -6   16.77    0.64
   6  -4  -6    4.62    0.29
  -6   4   6    4.51    0.27
   6   4  -6    5.26    0.25
   6   4  -6    4.62    0.26
   5  -4  -6   10.72    0.49
  -5   4   6   11.40    0.46
   5   4  -6   11.12    0.46
   5   4  -6   12.16    0.47
   4  -4  -6  109.55    4.21
  -4   4   6  131.92    4.17
   4   4  -6  123.85    4.18
   4   4  -6  124.33    4.17
   4   4  -6  124.89    4.17
   3  -4  -6    3.82    0.25
   3   4  -6    3.36    0.23
  -3   4   6    3.29    0.20
   3   4  -6    3.29    0.20
   3   4  -6    3.30    0.22
   2  -4  -6    0.72    0.17
  -2   4   6    0.56    0.12
   2   4  -6    0.60    0.15
   2   4  -6    0.43    0.10
   2   4  -6    0.44    0.14
  -1  -4   6    0.23    0.14
   1  -4  -6    0.30    0.11
   1  -4  -6    0.08    0.09
   1   4  -6    0.15    0.09
  -1   4   6    0.17    0.07
   1   4  -6    0.19    0.09
   1   4  -6    0.12    0.10
   0  -4  -6    5.21    0.27
   0  -4   6    5.17    0.29
   0  -4  -6    5.21    0.28
   0   4  -6    5.00    0.27
   0   4   6    5.39    0.25
   0   4  -6    5.08    0.28
   0   4  -6    4.91    0.26
  -1  -4  -6   11.67    0.50
  -1  -4  -6   12.75    0.51
  -1   4  -6   12.89    0.52
  -1   4  -6   12.16    0.51
  -1   4  -6   12.42    0.50
  -1   4  -6   12.94    0.50
  -2  -4  -6   14.65    0.61
  -2  -4  -6   15.72    0.62
  -2   4  -6   15.26    0.61
  -2   4  -6   16.31    0.63
  -2   4  -6   15.77    0.61
  -2   4  -6   16.53    0.61
  -3  -4  -6   34.10    1.22
  -3   4  -6   33.25    1.20
  -3   4  -6   31.99    1.21
  -3   4  -6   33.35    1.19
  -3   4  -6   34.01    1.19
  -4  -4  -6    4.48    0.25
  -4   4  -6    4.15    0.26
  -4   4  -6    4.41    0.24
  -4   4  -6    4.10    0.23
  -4   4  -6    4.48    0.27
  -5  -4  -6   14.23    0.58
  -5   4  -6   13.50    0.58
  -5   4  -6   14.48    0.55
  -5   4  -6   13.65    0.55
  -6  -4  -6   17.33    0.69
  -6   4  -6   17.10    0.66
  -6   4  -6   17.25    0.66
  -6   4  -6   16.30    0.68
   7  -4   6    0.89    0.17
  -7  -4  -6    0.65    0.14
  -7   4  -6    0.87    0.14
   7   4   6    0.56    0.13
  -7   4  -6    0.52    0.17
  -7   4  -6    0.56    0.13
  -8  -4  -6   44.52    1.68
   8  -4   6   46.06    1.65
  -8   4  -6   48.23    1.65
  -8   4  -6   48.02    1.65
  -9  -4  -6    1.29    0.16
   9  -4   6    1.38    0.19
  -9   4  -6    1.09    0.14
  -9   4  -6    1.09    0.16
  10  -4   6   10.87    0.46
 -10  -4  -6   10.85    0.48
 -10   4  -6   10.25    0.44
 -10   4  -6   10.84    0.44
  11  -4   6    0.31    0.11
 -11  -4  -6    0.25    0.09
 -11   4  -6    0.31    0.08
  12  -4   6    2.31    0.16
 -12  -4  -6    2.57    0.19
 -12   4  -6    2.38    0.15
  13  -4   6    9.01    0.36
 -13   4  -6    9.25    0.35
  15  -5  -6    1.43    0.10
  15   5  -6    1.31    0.10
  14  -5  -6   -0.02    0.05
  14   5  -6   -0.07    0.06
 -14   5   6    0.02    0.08
  14   5  -6    0.06    0.05
  13  -5  -6   16.47    0.64
  13   5  -6   17.07    0.64
  13   5  -6   17.20    0.62
 -13   5   6   17.30    0.63
  12  -5  -6    0.07    0.07
  12   5  -6    0.03    0.07
 -12   5   6    0.16    0.07
  12   5  -6    0.03    0.06
  11  -5  -6    7.80    0.36
 -11   5   6    7.80    0.35
  11   5  -6    8.12    0.36
  11   5  -6    7.92    0.34
  10  -5  -6    6.41    0.32
  10   5  -6    6.31    0.30
 -10   5   6    6.08    0.30
  10   5  -6    6.32    0.31
   9  -5  -6    0.19    0.10
   9   5  -6    0.05    0.07
   9   5  -6    0.15    0.07
  -9   5   6    0.19    0.08
   8  -5  -6    2.77    0.21
   8   5  -6    2.74    0.20
  -8   5   6    2.78    0.19
   8   5  -6    2.37    0.18
   7  -5  -6   45.91    1.64
  -7   5   6   44.89    1.62
   7   5  -6   46.77    1.63
   7   5  -6   45.97    1.64
  -7   5   6   48.19    1.64
   6  -5  -6    2.71    0.24
   6   5  -6    3.06    0.20
  -6   5   6    2.64    0.19
   6   5  -6    2.54    0.19
  -6   5   6    2.60    0.20
   5  -5  -6    0.13    0.11
   5   5  -6    0.13    0.09
   5   5  -6    0.08    0.11
  -5   5   6    0.20    0.09
  -5   5   6    0.15    0.09
   4  -5  -6   -0.07    0.12
   4   5  -6    0.22    0.10
  -4   5   6   -0.08    0.07
   4   5  -6    0.02    0.07
  -4   5   6    0.07    0.08
   4   5  -6    0.19    0.08
   3   5  -6   10.15    0.42
  -3   5   6    9.69    0.41
   3   5  -6   10.03    0.43
   3   5  -6    9.97    0.42
   2   5  -6    0.51    0.14
  -2   5   6    0.71    0.12
   2   5  -6    0.68    0.14
   2   5  -6    0.69    0.15
  -1   5   6   58.43    2.02
   1   5  -6   58.27    2.03
   1   5  -6   57.78    2.04
   1   5  -6   58.87    2.03
   0  -5  -6   32.03    1.27
   0   5   6   29.88    1.10
   0   5  -6   30.94    1.12
   0   5  -6   29.32    1.11
   0   5  -6   30.67    1.10
   0   5  -6   31.16    1.11
  -1  -5  -6    1.82    0.22
  -1   5  -6    2.31    0.20
  -1   5  -6    1.52    0.18
  -1   5  -6    1.92    0.16
   1   5   6    1.63    0.14
  -1   5  -6    1.87    0.20
  -2  -5  -6   -0.09    0.11
   2   5   6    0.15    0.07
  -2   5  -6   -0.05    0.10
  -2   5  -6    0.02    0.08
  -2   5  -6   -0.03    0.09
  -2   5  -6    0.03    0.09
  -3  -5  -6   21.99    0.86
  -3   5  -6   22.58    0.84
  -3   5  -6   23.11    0.84
   3   5   6   22.36    0.83
  -3   5  -6   22.59    0.86
  -3   5  -6   22.32    0.84
  -4  -5  -6    0.01    0.10
  -4   5  -6    0.11    0.07
   4   5   6    0.12    0.07
  -4   5  -6    0.13    0.08
  -4   5  -6    0.19    0.09
  -5  -5  -6   21.64    0.83
  -5   5  -6   21.36    0.83
  -5   5  -6   21.88    0.80
   5   5   6   20.94    0.79
  -5   5  -6   20.81    0.80
  -6  -5  -6    1.04    0.17
  -6   5  -6    0.96    0.15
   6   5   6    1.06    0.14
  -6   5  -6    0.94    0.17
  -6   5  -6    1.04    0.14
  -7  -5  -6   38.10    1.44
   7  -5   6   39.75    1.41
  -7   5  -6   40.58    1.43
  -7   5  -6   39.69    1.41
   7   5   6   39.56    1.39
  -7   5  -6   39.74    1.41
   8  -5   6    0.40    0.10
  -8  -5  -6    0.28    0.10
  -8   5  -6    0.27    0.08
  -8   5  -6    0.38    0.11
  -9  -5  -6    4.44    0.27
   9  -5   6    4.84    0.25
  -9   5  -6    4.79    0.24
  -9   5  -6    4.60    0.24
  10  -5   6    3.23    0.20
 -10  -5  -6    3.20    0.22
 -10   5  -6    2.99    0.17
 -11  -5  -6    2.32    0.19
  11  -5   6    2.32    0.15
 -11   5  -6    2.20    0.13
  12  -5   6    1.24    0.11
 -12   5  -6    1.37    0.10
  13  -6  -6    0.73    0.10
 -13   6   6    0.71    0.09
  13   6  -6    0.58    0.08
  13   6  -6    0.39    0.08
  12  -6  -6    1.75    0.14
  12   6  -6    1.82    0.13
  12   6  -6    1.91    0.13
 -12   6   6    1.71    0.12
  11  -6  -6    0.13    0.07
  11   6  -6    0.09    0.05
  11   6  -6    0.35    0.10
 -11   6   6    0.24    0.06
  10  -6  -6    3.08    0.20
  10   6  -6    3.03    0.18
 -10   6   6    2.87    0.17
  10   6  -6    3.13    0.18
   9  -6  -6    3.42    0.22
   9   6  -6    3.87    0.20
   9   6  -6    3.14    0.20
  -9   6   6    3.20    0.19
   8  -6  -6    2.39    0.19
   8   6  -6    2.09    0.17
  -8   6   6    2.31    0.17
   8   6  -6    2.11    0.17
   7  -6  -6   28.08    1.03
   7   6  -6   29.34    1.03
   7   6  -6   28.19    1.04
  -7   6   6   27.14    1.01
  -7   6   6   28.44    1.03
   6  -6  -6    1.03    0.18
  -6   6   6    0.44    0.12
  -6   6   6    0.66    0.13
   6   6  -6    0.57    0.13
   6   6  -6    0.54    0.13
   5  -6  -6    3.09    0.25
   5   6  -6    3.36    0.22
  -5   6   6    3.40    0.20
  -5   6   6    3.17    0.21
   5   6  -6    3.18    0.21
   4  -6  -6   -0.01    0.12
  -4   6   6    0.05    0.07
   4   6  -6   -0.06    0.08
  -4   6   6    0.08    0.08
   4   6  -6    0.04    0.07
   4   6  -6   -0.03    0.07
   3   6  -6   43.29    1.56
  -3   6   6   43.19    1.56
  -3   6   6   44.99    1.55
   3   6  -6   45.13    1.56
   3   6  -6   44.30    1.57
   2   6  -6    0.21    0.07
   2   6  -6    0.26    0.08
  -2   6   6    0.60    0.11
  -2   6   6    0.30    0.09
   2   6  -6    0.39    0.12
   1   6  -6   66.27    2.28
   1   6  -6   64.60    2.27
   1   6  -6   67.78    2.29
  -1   6   6   64.47    2.27
  -1   6   6   64.84    2.27
   0   6  -6   14.24    0.56
   0   6  -6   13.25    0.54
   0   6  -6   13.83    0.55
   0   6   6   13.11    0.53
  -1   6  -6    0.95    0.13
  -1   6  -6    1.13    0.17
   1   6   6    0.92    0.12
  -2   6  -6    0.77    0.13
  -2   6  -6    0.94    0.16
   2   6   6    0.89    0.12
  -2   6  -6    0.81    0.14
  -2   6  -6    1.03    0.16
  -3   6  -6   15.88    0.62
  -3   6  -6   16.49    0.62
   3   6   6   15.86    0.62
  -3   6  -6   16.06    0.65
  -4   6  -6    4.30    0.24
  -4   6  -6    4.41    0.24
  -4   6  -6    4.48    0.26
   4   6   6    4.47    0.23
  -5   6  -6   12.37    0.52
  -5   6  -6   12.76    0.50
   5   6   6   12.43    0.49
  -5   6  -6   12.06    0.50
  -6  -6  -6    2.25    0.26
  -6   6  -6    2.19    0.17
  -6   6  -6    2.99    0.20
  -6   6  -6    2.52    0.17
   6   6   6    2.29    0.16
   7  -6   6    5.07    0.25
  -7  -6  -6    4.87    0.32
  -7   6  -6    4.94    0.24
   7   6   6    5.13    0.24
  -7   6  -6    4.96    0.24
  -8  -6  -6    0.62    0.24
   8  -6   6    0.66    0.12
  -8   6  -6    0.40    0.10
   9  -6   6    1.10    0.12
  -9   6  -6    0.93    0.11
  -9   6  -6    0.91    0.10
  10  -6   6    0.61    0.15
  10  -6   6    0.63    0.10
 -10   6  -6    0.63    0.08
  11  -7  -6    7.81    0.31
 -11   7   6    7.68    0.30
  11   7  -6    7.60    0.30
  11   7  -6    7.99    0.31
  10  -7  -6    0.58    0.11
 -10   7   6    0.63    0.08
  10   7  -6    0.79    0.10
  10   7  -6    0.62    0.09
   9  -7  -6    7.13    0.30
  -9   7   6    6.93    0.29
   9   7  -6    6.99    0.30
   9   7  -6    6.90    0.29
   8  -7  -6    1.05    0.14
  -8   7   6    0.99    0.10
   8   7  -6    0.94    0.12
   8   7  -6    0.92    0.11
   7  -7  -6    1.24    0.15
   7   7  -6    1.15    0.12
  -7   7   6    1.06    0.14
  -7   7   6    1.13    0.12
   7   7  -6    1.08    0.12
   6  -7  -6   -0.03    0.09
   6   7  -6    0.05    0.06
   6   7  -6   -0.08    0.06
  -6   7   6    0.06    0.07
  -6   7   6    0.01    0.06
   5   7  -6    1.61    0.14
  -5   7   6    1.62    0.13
   5   7  -6    1.54    0.15
  -5   7   6    1.81    0.15
  -4   7   6    0.89    0.12
  -4   7   6    1.35    0.14
   4   7  -6    1.62    0.15
   4   7  -6    1.23    0.13
   4   7  -6    1.26    0.14
  -3   7   6   23.07    0.81
   3   7  -6   23.03    0.82
   3   7  -6   20.27    0.81
  -3   7   6   21.55    0.81
   3   7  -6   22.76    0.83
  -2   7   6    7.34    0.32
   2   7  -6    7.53    0.33
   2   7  -6    7.62    0.33
   2   7  -6    7.80    0.35
  -2   7   6    7.20    0.33
   1   7  -6   25.38    0.92
  -1   7   6   24.18    0.90
   1   7  -6   25.13    0.91
   1   7  -6   24.03    0.90
   0   7   6    0.93    0.11
   0   7  -6    0.78    0.11
   0   7  -6    0.85    0.15
  -1   7  -6    1.08    0.12
  -1   7  -6    0.97    0.13
  -1   7  -6    0.90    0.13
   1   7   6    0.99    0.12
  -2   7  -6   11.43    0.46
  -2   7  -6   11.44    0.47
   2   7   6   11.23    0.45
  -3   7  -6   20.86    0.76
  -3   7  -6   20.42    0.74
   3   7   6   19.73    0.74
  -3   7  -6   19.55    0.74
  -4   7  -6    1.98    0.14
  -4   7  -6    1.68    0.16
  -4   7  -6    1.97    0.15
   4   7   6    2.28    0.14
  -5   7  -6   25.26    0.92
  -5   7  -6   25.93    0.92
   5   7   6   26.41    0.92
  -5   7  -6   25.27    0.93
   6  -7   6    1.79    0.13
  -6   7  -6    1.58    0.12
  -6   7  -6    1.65    0.12
   6   7   6    1.65    0.12
   7  -7   6    2.54    0.14
  -7   7  -6    2.18    0.13
   7   7   6    2.10    0.14
  -7   7  -6    2.28    0.13
   8  -7   6    1.72    0.13
  -8   7  -6    1.79    0.11
  -8   7  -6    1.66    0.11
  -8   8   6    8.87    0.33
   8   8  -6    8.54    0.34
  -7   8   6   10.42    0.39
   7   8  -6   10.36    0.40
  -6   8   6    0.29    0.07
   6   8  -6    0.54    0.10
  -6   8   6    0.29    0.09
   6   8  -6    0.42    0.08
  -5   8   6    1.59    0.12
   5   8  -6    1.64    0.13
  -5   8   6    1.80    0.12
   4   8  -6    1.83    0.12
  -4   8   6    1.81    0.12
   4   8  -6    1.43    0.13
  -4   8   6    1.50    0.14
   4   8  -6    1.78    0.14
   3   8  -6    9.98    0.39
  -3   8   6    9.95    0.39
   3   8  -6   10.35    0.40
   3   8  -6    9.94    0.39
   2   8  -6    0.07    0.07
  -2   8   6    0.06    0.05
   2   8  -6    0.08    0.06
   2   8  -6   -0.01    0.05
   1   8  -6    0.19    0.05
   1   8  -6    0.35    0.10
  -1   8   6    0.15    0.05
   0   8  -6    3.98    0.21
   0   8  -6    3.98    0.19
   0   8   6    3.70    0.18
  -1   8  -6    3.23    0.17
  -1   8  -6    3.61    0.19
   1   8   6    3.44    0.17
  -2   8  -6    1.53    0.14
  -2   8  -6    1.58    0.11
   2   8   6    1.75    0.11
  -3   8  -6    1.88    0.11
   3   8   6    2.04    0.11
  -3   8  -6    1.96    0.15
   4  -8   6    7.02    0.28
   4   8   6    6.90    0.27
  -4   8  -6    6.84    0.27
   5  -8   6    4.25    0.19
  -5   8  -6    4.25    0.18
   5   8   6    4.13    0.18
  18   0  -7    0.04    0.05
  17   0  -7    0.01    0.05
 -17   0   7    0.05    0.10
  17   0  -7   -0.07    0.08
  16   0  -7    0.14    0.08
  16   0  -7   -0.01    0.06
 -16   0   7    0.06    0.09
  15   0  -7    1.92    0.16
  15   0  -7    1.99    0.18
 -15   0   7    1.65    0.19
  14   0  -7   -0.03    0.07
  14   0  -7   -0.04    0.09
  13   0  -7   12.67    0.51
  13   0  -7   12.60    0.53
  12   0  -7    0.12    0.09
  12   0  -7    0.07    0.10
  11   0  -7    9.08    0.39
  11   0  -7    8.87    0.41
  11   0  -7    9.19    0.44
  10   0  -7    0.07    0.08
  10   0  -7    0.14    0.09
  10   0  -7    0.08    0.12
   9   0  -7  179.66    6.17
   9   0  -7  183.25    6.13
   8   0  -7    0.07    0.07
   7   0  -7   33.12    1.20
  -6   0   7   -0.02    0.08
   6   0  -7    0.07    0.06
  -5   0   7   48.78    1.66
   5   0  -7   46.47    1.67
   4   0  -7    0.22    0.07
   4   0  -7    0.27    0.11
   3   0  -7    0.39    0.07
  -3   0   7    0.31    0.07
   2   0  -7    0.03    0.04
  -2   0   7    0.02    0.04
  -1   0   7  224.18    7.52
   0   0   7    0.14    0.04
   1   0   7    0.30    0.03
  -1   0  -7    0.55    0.11
  -2   0  -7    0.05    0.06
  -3   0  -7  207.61    7.00
  -4   0  -7    0.14    0.08
  -5   0  -7  175.44    5.95
  -6   0  -7   -0.08    0.07
  -6   0  -7    0.09    0.09
  -7   0  -7    0.08    0.08
  -7   0  -7    0.17    0.10
   7   0   7    0.12    0.09
  -7   0  -7    0.02    0.09
   8   0   7    0.21    0.09
  -8   0  -7    0.05    0.09
  -8   0  -7    0.09    0.09
  -8   0  -7    0.11    0.11
  -9   0  -7    0.11    0.11
   9   0   7    0.07    0.09
  -9   0  -7    0.09    0.09
  -9   0  -7   -0.04    0.09
 -10   0  -7   -0.14    0.09
  10   0   7    0.14    0.08
 -11   0  -7    7.19    0.37
  11   0   7    8.16    0.36
  12   0   7    0.12    0.07
 -12   0  -7   -0.03    0.12
  13   0   7   11.52    0.46
  14   0   7    0.02    0.05
  18  -1  -7    0.86    0.09
  18   1  -7    0.67    0.09
 -17  -1   7    4.37    0.25
  17  -1  -7    4.03    0.20
  17   1  -7    4.15    0.21
  17   1  -7    4.01    0.19
  16  -1  -7    0.01    0.06
  16  -1  -7    0.19    0.10
 -16  -1   7    0.02    0.08
  16   1  -7   -0.09    0.05
 -16   1   7    0.02    0.11
  16   1  -7   -0.07    0.07
  15  -1  -7    3.37    0.19
 -15  -1   7    2.95    0.23
 -15   1   7    2.95    0.23
  15   1  -7    2.94    0.19
  15   1  -7    2.92    0.20
 -14  -1   7    0.34    0.14
  14  -1  -7    0.26    0.09
  14   1  -7    0.30    0.09
  14   1  -7    0.20    0.08
  13  -1  -7   19.51    0.74
  13   1  -7   19.88    0.75
  13   1  -7   19.26    0.74
  12  -1  -7    1.06    0.16
  12   1  -7    0.97    0.16
  12   1  -7    1.21    0.15
  11  -1  -7    0.74    0.15
  11   1  -7    0.66    0.14
  11   1  -7    1.08    0.18
  10  -1  -7   15.05    0.62
  10  -1  -7   14.58    0.57
  10   1  -7   15.02    0.57
  10   1  -7   14.13    0.58
  10   1  -7   14.10    0.61
   9  -1  -7   40.94    1.39
   9  -1  -7   38.90    1.42
   9   1  -7   37.50    1.42
   9   1  -7   39.12    1.39
   9   1  -7   39.31    1.38
   8  -1  -7    6.94    0.34
   8   1  -7    7.20    0.33
   8   1  -7    7.65    0.35
   7  -1  -7    0.10    0.08
   7  -1  -7    0.15    0.09
  -7  -1   7    0.29    0.11
   6  -1  -7    1.21    0.13
   6  -1  -7    1.24    0.14
  -6  -1   7    1.39    0.13
   6   1  -7    1.51    0.14
  -5  -1   7    4.09    0.22
   5  -1  -7    3.85    0.22
   5  -1  -7    3.85    0.20
  -5   1   7    3.89    0.21
   5   1  -7    3.92    0.22
   4  -1  -7    4.88    0.22
  -4  -1   7    4.72    0.23
   4  -1  -7    4.58    0.24
   4   1  -7    4.81    0.24
  -4   1   7    4.68    0.22
   3  -1  -7   37.54    1.33
  -3  -1   7   36.42    1.31
  -3  -1   7   39.79    1.32
  -3   1   7   37.45    1.31
   1  -1  -7    1.49    0.09
   1  -1  -7    1.25    0.12
  -1  -1   7    1.48    0.09
  -1  -1   7    1.47    0.08
  -1   1   7    1.30    0.09
   0  -1   7    0.15    0.04
   0  -1  -7    0.17    0.05
   0  -1   7    0.12    0.05
   0  -1  -7    0.09    0.06
   0   1   7    0.12    0.04
   1  -1   7   73.12    2.45
   1  -1   7   70.81    2.45
  -1  -1  -7   72.31    2.46
  -1  -1  -7   75.82    2.50
   1   1   7   71.98    2.46
  -2  -1  -7    1.80    0.14
   2   1   7    1.95    0.10
  -3  -1  -7   86.20    2.90
  -3   1  -7   82.79    2.89
  -4  -1  -7    1.14    0.13
  -4   1  -7    0.93    0.15
  -5  -1  -7    1.73    0.16
  -5  -1  -7    1.55    0.15
  -5   1  -7    1.55    0.17
  -5   1  -7    1.47    0.16
  -5   1  -7    1.72    0.16
  -5   1  -7    2.08    0.27
  -6  -1  -7    4.77    0.29
  -6  -1  -7    5.32    0.25
  -6  -1  -7    5.09    0.27
  -6   1  -7    5.19    0.27
  -6   1  -7    4.97    0.26
  -6   1  -7    4.42    0.26
   6   1   7    4.88    0.33
  -7  -1  -7    2.16    0.18
  -7  -1  -7    1.99    0.18
  -7  -1  -7    2.10    0.23
   7   1   7    1.84    0.23
  -7   1  -7    2.07    0.18
  -7   1  -7    2.22    0.19
  -8  -1  -7    0.11    0.09
  -8  -1  -7    0.08    0.09
   8   1   7    0.08    0.10
  -8   1  -7    0.16    0.08
  -8   1  -7    0.03    0.09
  -8   1  -7    0.03    0.11
  -9  -1  -7   34.25    1.21
   9  -1   7   32.41    1.18
  -9  -1  -7   30.85    1.14
   9   1   7   31.53    1.17
  -9   1  -7   32.11    1.15
  -9   1  -7   32.07    1.15
 -10  -1  -7    0.12    0.09
  10  -1   7    0.08    0.08
 -10   1  -7    0.13    0.10
  10   1   7    0.14    0.09
 -11  -1  -7   11.95    0.54
  11  -1   7   12.80    0.53
  11   1   7   12.79    0.51
 -11   1  -7   13.13    0.50
  12  -1   7    0.39    0.12
 -12  -1  -7    0.39    0.15
  12   1   7    0.48    0.13
  13  -1   7    3.79    0.20
 -13  -1  -7    3.69    0.25
  13   1   7    3.67    0.20
  14  -1   7    0.73    0.10
  14   1   7    0.75    0.11
 -17  -2   7    2.09    0.17
  17  -2  -7    1.98    0.13
  17   2  -7    2.00    0.14
  17   2  -7    1.92    0.13
 -16  -2   7    0.22    0.09
  16  -2  -7    0.33    0.11
  16   2  -7    0.20    0.06
  16   2  -7    0.35    0.11
 -15  -2   7    3.03    0.22
  15  -2  -7    3.21    0.19
  15   2  -7    3.22    0.20
  15   2  -7    3.37    0.19
 -14  -2   7    0.34    0.11
  14  -2  -7    0.33    0.11
 -14   2   7    0.11    0.12
  14   2  -7    0.37    0.12
  14   2  -7    0.40    0.13
  13  -2  -7   10.02    0.42
 -13  -2   7    8.97    0.45
  13   2  -7    9.74    0.41
  13   2  -7    9.72    0.42
  12  -2  -7    0.13    0.09
  12   2  -7    0.07    0.07
  12   2  -7    0.23    0.08
  11  -2  -7   22.05    0.84
  11  -2  -7   22.94    0.89
  11   2  -7   22.33    0.84
  11   2  -7   21.65    0.82
  10  -2  -7    7.04    0.37
  10  -2  -7    6.91    0.34
  10   2  -7    7.07    0.34
 -10   2   7    7.31    0.37
  10   2  -7    7.02    0.32
   9  -2  -7    1.34    0.17
   9  -2  -7    1.17    0.18
   9   2  -7    1.54    0.17
  -9   2   7    1.03    0.16
   9   2  -7    1.17    0.14
   8  -2  -7   -0.08    0.10
   8  -2  -7    0.03    0.09
   8   2  -7    0.02    0.08
   8   2  -7    0.02    0.09
   8   2  -7    0.00    0.07
   7  -2  -7    0.86    0.15
   7   2  -7    0.63    0.14
   7   2  -7    0.55    0.14
  -6  -2   7   11.83    0.46
   6  -2  -7   10.98    0.47
   6  -2  -7   10.69    0.47
   6   2  -7   11.11    0.47
   5  -2  -7   33.13    1.16
   5  -2  -7   31.69    1.16
  -5  -2   7   31.64    1.15
   5   2  -7   32.30    1.16
   4  -2  -7  119.93    4.13
  -4  -2   7  118.99    4.12
  -4  -2   7  123.95    4.11
   4  -2  -7  123.34    4.12
   4   2  -7  119.36    4.12
   3  -2  -7   34.13    1.18
  -3  -2   7   32.41    1.16
   3  -2  -7   33.71    1.17
  -3  -2   7   32.64    1.17
  -3   2   7   32.09    1.16
   2  -2  -7    2.12    0.17
  -2  -2   7    2.04    0.12
   2  -2  -7    2.03    0.14
  -2  -2   7    2.10    0.14
  -2   2   7    2.59    0.15
   1  -2  -7   21.69    0.79
   1  -2  -7   22.38    0.81
  -1  -2   7   23.02    0.78
  -1  -2   7   21.80    0.79
  -1   2   7   21.19    0.79
   0  -2  -7    1.07    0.10
   0  -2   7    1.04    0.10
   0  -2  -7    0.90    0.12
   0  -2   7    0.97    0.08
   0   2   7    0.87    0.11
  -1  -2  -7  139.98    4.69
   1  -2   7  140.73    4.67
  -1  -2  -7  141.43    4.71
   1  -2   7  134.80    4.66
   1   2   7  136.79    4.69
  -2  -2  -7    4.42    0.23
   2  -2   7    4.74    0.17
  -2  -2  -7    4.33    0.21
   2  -2   7    4.71    0.17
   2   2   7    4.42    0.22
  -4  -2  -7    0.93    0.13
  -4   2  -7    0.65    0.14
  -4   2  -7    0.56    0.15
  -4   2  -7    0.35    0.10
  -5  -2  -7    5.77    0.27
  -5  -2  -7    5.82    0.29
  -5   2  -7    5.32    0.27
  -5   2  -7    5.13    0.30
  -5   2  -7    5.43    0.27
  -6  -2  -7    7.97    0.38
  -6  -2  -7    8.20    0.35
  -6   2  -7    7.74    0.36
  -6   2  -7    8.18    0.38
  -6   2  -7    7.83    0.35
  -7  -2  -7    2.02    0.17
  -7  -2  -7    1.77    0.18
  -7   2  -7    2.01    0.18
   7   2   7    1.73    0.24
  -7   2  -7    2.02    0.17
  -8  -2  -7   26.95    1.03
  -8  -2  -7   27.24    0.97
  -8   2  -7   27.60    0.98
   8   2   7   25.94    0.99
  -8   2  -7   27.03    0.98
  -9  -2  -7   29.04    1.12
  -9   2  -7   30.21    1.07
  -9   2  -7   30.23    1.07
   9   2   7   29.13    1.08
 -10  -2  -7    4.56    0.28
  10  -2   7    5.22    0.28
 -10   2  -7    4.80    0.25
  10   2   7    4.58    0.27
 -10   2  -7    4.39    0.25
  11  -2   7    0.71    0.14
 -11  -2  -7    0.40    0.14
  11   2   7    0.67    0.15
 -11   2  -7    0.49    0.14
  12  -2   7    0.37    0.11
 -12  -2  -7    0.12    0.09
  12   2   7    0.04    0.08
 -12   2  -7    0.25    0.10
  13  -2   7    8.43    0.36
 -13  -2  -7    9.06    0.40
  13   2   7    8.43    0.35
  14  -2   7    0.15    0.05
  17   3  -7   17.33    0.61
  17   3  -7   17.32    0.62
  16  -3  -7    4.21    0.20
 -16  -3   7    4.01    0.23
  16   3  -7    4.01    0.20
  16   3  -7    4.24    0.19
 -15  -3   7    1.64    0.16
  15  -3  -7    1.95    0.14
  15   3  -7    1.75    0.13
  15   3  -7    1.71    0.14
 -14  -3   7   18.51    0.74
  14  -3  -7   19.03    0.71
  14   3  -7   18.43    0.69
  14   3  -7   18.59    0.71
  13  -3  -7   10.26    0.45
 -13  -3   7    9.83    0.47
  13   3  -7   10.84    0.43
  13   3  -7   10.65    0.45
 -13   3   7   10.49    0.45
  12  -3  -7   11.50    0.48
 -12  -3   7   10.90    0.51
  12   3  -7   11.47    0.48
  12   3  -7   11.23    0.46
 -12   3   7   11.39    0.48
  11  -3  -7    1.60    0.17
 -11  -3   7    1.22    0.18
  11   3  -7    1.34    0.18
  11   3  -7    1.41    0.15
 -11   3   7    1.39    0.19
  10  -3  -7   41.56    1.50
  10  -3  -7   42.66    1.53
  10   3  -7   42.06    1.50
  10   3  -7   41.21    1.48
 -10   3   7   42.56    1.49
   9  -3  -7   61.77    2.18
   9  -3  -7   63.90    2.15
  -9   3   7   61.55    2.14
   9   3  -7   60.75    2.14
   9   3  -7   60.86    2.15
   8  -3  -7    0.10    0.11
   8  -3  -7    0.42    0.12
  -8   3   7   -0.01    0.09
   8   3  -7   -0.03    0.08
   8   3  -7    0.38    0.13
   7  -3  -7    0.21    0.11
   7  -3  -7    0.19    0.12
   7   3  -7    0.04    0.08
   7   3  -7    0.27    0.09
   6   3  -7   -0.03    0.09
   6   3  -7    0.13    0.09
   5  -3  -7  281.20    9.69
   5   3  -7  280.62    9.67
   5   3  -7  306.34    9.69
   5   3  -7  281.23    9.66
   4  -3  -7  311.01   10.27
  -4  -3   7  306.34   10.25
   4  -3  -7  295.83   10.26
  -3  -3   7   84.19    2.90
   3  -3  -7   82.28    2.91
   3  -3  -7   87.12    2.92
  -2  -3   7    4.08    0.21
   2  -3  -7    3.43    0.23
   2  -3  -7    3.72    0.23
   1  -3  -7    0.04    0.10
   1  -3  -7    0.17    0.08
  -1  -3   7    0.06    0.07
   0  -3   7    3.43    0.19
   0  -3  -7    3.01    0.20
   0  -3  -7    3.22    0.21
   1  -3   7   37.45    1.32
  -1  -3  -7   37.52    1.35
  -1  -3  -7   38.91    1.35
  -2  -3  -7   10.00    0.41
  -2  -3  -7    9.03    0.41
  -2   3  -7    9.37    0.40
  -2   3  -7    9.72    0.40
  -2   3  -7    9.01    0.43
  -3  -3  -7   74.26    2.66
  -3   3  -7   76.53    2.64
  -3   3  -7   79.10    2.66
  -3   3  -7   77.61    2.64
  -4  -3  -7   16.51    0.64
  -4   3  -7   14.69    0.60
  -4   3  -7   16.11    0.61
  -4   3  -7   16.04    0.63
  -5  -3  -7   20.76    0.79
  -5   3  -7   19.91    0.76
  -5   3  -7   20.11    0.76
  -5   3  -7   20.11    0.78
  -6  -3  -7   22.70    0.83
  -6   3  -7   21.08    0.78
  -6   3  -7   20.74    0.81
  -6   3  -7   19.38    0.78
  -7  -3  -7    7.29    0.37
  -7   3  -7    7.39    0.37
  -7   3  -7    7.22    0.33
  -7   3  -7    6.96    0.33
  -8  -3  -7   19.19    0.80
  -8   3  -7   20.65    0.76
  -8   3  -7   20.99    0.77
  -9  -3  -7   28.18    1.13
  -9   3  -7   31.38    1.09
  -9   3  -7   30.80    1.09
 -10  -3  -7    2.43    0.20
  10   3   7    2.17    0.27
 -10   3  -7    2.56    0.18
 -10   3  -7    2.34    0.20
  11  -3   7    1.04    0.14
 -11  -3  -7    1.03    0.15
 -11   3  -7    0.84    0.13
 -12  -3  -7    0.30    0.09
  12  -3   7    0.34    0.11
 -12   3  -7    0.24    0.08
  13  -3   7    5.13    0.24
 -13  -3  -7    5.56    0.28
  16  -4  -7    4.29    0.19
  16   4  -7    4.36    0.20
  16   4  -7    4.46    0.19
  15  -4  -7    0.65    0.10
 -15  -4   7    0.85    0.17
  15   4  -7    0.70    0.10
  15   4  -7    0.63    0.09
 -14  -4   7    1.06    0.17
  14  -4  -7    0.92    0.12
  14   4  -7    1.16    0.12
 -14   4   7    1.34    0.18
  14   4  -7    1.21    0.12
  13  -4  -7    3.26    0.20
 -13  -4   7    3.06    0.23
  13   4  -7    3.18    0.19
 -13   4   7    3.30    0.21
  13   4  -7    3.40    0.20
  12  -4  -7    0.64    0.15
 -12  -4   7    0.75    0.16
  12   4  -7    1.00    0.13
 -12   4   7    0.70    0.15
  12   4  -7    0.89    0.15
 -11  -4   7    2.25    0.21
  11  -4  -7    2.30    0.19
 -11   4   7    2.15    0.19
  11   4  -7    2.23    0.19
  11   4  -7    2.08    0.17
 -10  -4   7    0.46    0.17
  10  -4  -7    0.65    0.15
  10   4  -7    0.74    0.16
 -10   4   7    0.44    0.11
  10   4  -7    0.46    0.13
  -9  -4   7    0.69    0.18
   9  -4  -7    0.80    0.17
   9   4  -7    0.60    0.14
  -9   4   7    0.79    0.15
   9   4  -7    0.65    0.16
  -8  -4   7    1.96    0.22
   8  -4  -7    2.13    0.21
  -8   4   7    1.87    0.18
   8   4  -7    1.98    0.19
   8   4  -7    2.08    0.17
  -7  -4   7    4.40    0.30
   7  -4  -7    4.85    0.28
   7   4  -7    5.08    0.27
  -7   4   7    5.13    0.26
   7   4  -7    5.04    0.26
   6  -4  -7   32.64    1.20
   6   4  -7   33.52    1.20
   6   4  -7   34.45    1.19
  -6   4   7   32.58    1.19
   5  -4  -7    2.08    0.27
   5  -4  -7    2.20    0.22
  -5   4   7    2.41    0.19
   5   4  -7    2.00    0.17
   5   4  -7    2.17    0.19
   4  -4  -7    0.39    0.12
   4   4  -7    0.22    0.12
  -4   4   7    0.20    0.09
   4   4  -7    0.26    0.09
   4   4  -7    0.09    0.07
   3  -4  -7   18.36    0.70
   3   4  -7   18.38    0.66
  -3   4   7   16.50    0.65
   3   4  -7   17.20    0.67
   3   4  -7   17.71    0.68
   2  -4  -7    2.07    0.17
   2  -4  -7    1.91    0.21
   2   4  -7    2.49    0.19
   2   4  -7    2.28    0.20
   2   4  -7    2.25    0.19
  -2   4   7    2.03    0.16
  -1  -4   7    0.03    0.18
   1  -4  -7    0.54    0.15
  -1   4   7    0.24    0.07
   1   4  -7    0.18    0.08
   1   4  -7    0.20    0.09
   1   4  -7    0.22    0.10
   0  -4  -7   18.48    0.68
   0  -4  -7   16.79    0.65
   0   4  -7   16.80    0.67
   0   4  -7   17.82    0.66
   0   4  -7   17.19    0.67
   0   4  -7   16.90    0.66
  -1  -4  -7    1.67    0.17
  -1   4  -7    1.67    0.19
  -1   4  -7    1.81    0.20
  -1   4  -7    1.41    0.15
  -1   4  -7    1.47    0.19
  -2  -4  -7    0.00    0.08
  -2  -4  -7    0.24    0.12
  -2   4  -7    0.18    0.10
  -2   4  -7    0.26    0.10
  -2   4  -7    0.09    0.12
  -2   4  -7    0.08    0.07
  -3  -4  -7    0.36    0.10
  -3   4  -7    0.29    0.10
  -3   4  -7    0.39    0.10
  -3   4  -7    0.59    0.13
  -3   4  -7    0.33    0.12
  -4   4  -7   31.29    1.20
  -4   4  -7   31.67    1.22
  -4   4  -7   37.51    1.21
  -5  -4  -7    5.27    0.29
  -5   4  -7    4.66    0.29
  -5   4  -7    4.79    0.26
  -5   4  -7    5.15    0.26
  -6  -4  -7    5.44    0.30
  -6   4  -7    4.98    0.27
  -6   4  -7    5.02    0.30
  -6   4  -7    4.64    0.26
   7  -4   7    0.09    0.11
  -7  -4  -7    0.08    0.08
  -7   4  -7    0.09    0.07
  -7   4  -7   -0.02    0.07
  -7   4  -7    0.11    0.09
   7   4   7    0.12    0.08
   8  -4   7    1.86    0.22
  -8  -4  -7    1.94    0.19
   8   4   7    1.58    0.15
  -8   4  -7    2.01    0.17
  -8   4  -7    2.44    0.17
  -9  -4  -7    0.19    0.09
   9  -4   7    0.24    0.14
  -9   4  -7    0.53    0.13
  -9   4  -7    0.12    0.07
 -10  -4  -7    0.04    0.08
 -10   4  -7    0.11    0.09
 -10   4  -7    0.09    0.07
  11  -4   7    0.30    0.10
 -11  -4  -7    0.33    0.12
 -11   4  -7    0.42    0.10
  12  -4   7    6.04    0.26
 -12  -4  -7    5.83    0.29
 -12   4  -7    5.72    0.25
  15  -5  -7    0.08    0.05
  15   5  -7    0.31    0.08
  14  -5  -7    7.26    0.30
  14   5  -7    7.20    0.30
 -14   5   7    6.99    0.30
  14   5  -7    7.33    0.29
  13  -5  -7    3.22    0.19
 -13   5   7    2.97    0.18
  13   5  -7    3.40    0.17
  13   5  -7    3.15    0.18
  12  -5  -7    3.45    0.21
  12   5  -7    3.69    0.20
 -12   5   7    3.75    0.20
  12   5  -7    3.69    0.21
  11  -5  -7    1.58    0.17
 -11   5   7    1.88    0.16
  11   5  -7    1.85    0.16
  11   5  -7    1.92    0.15
  10  -5  -7    6.48    0.33
  10   5  -7    6.63    0.32
 -10   5   7    6.92    0.32
  10   5  -7    6.93    0.31
   9  -5  -7    2.68    0.21
   9   5  -7    2.64    0.18
   9   5  -7    2.36    0.19
  -9   5   7    2.53    0.18
   8  -5  -7    0.54    0.17
   8   5  -7    0.26    0.08
   8   5  -7    0.53    0.14
  -8   5   7    0.28    0.09
   7  -5  -7   41.84    1.48
   7   5  -7   41.88    1.47
  -7   5   7   42.17    1.47
  -7   5   7   39.32    1.47
   7   5  -7   42.30    1.48
   6  -5  -7   11.59    0.51
   6   5  -7   12.22    0.49
  -6   5   7   12.53    0.49
  -6   5   7   11.38    0.49
   6   5  -7   13.09    0.51
   5  -5  -7   -0.19    0.13
  -5   5   7    0.03    0.07
   5   5  -7    0.00    0.06
   5   5  -7    0.09    0.11
   5   5  -7    0.08    0.08
  -5   5   7    0.00    0.07
   4   5  -7    2.75    0.19
   4   5  -7    2.82    0.21
   4   5  -7    2.57    0.20
  -4   5   7    2.82    0.18
   3   5  -7    1.53    0.17
   3   5  -7    1.59    0.18
  -3   5   7    1.90    0.15
   3   5  -7    1.45    0.16
   2   5  -7   73.44    2.57
   2   5  -7   75.42    2.56
  -2   5   7   72.98    2.55
   2   5  -7   74.98    2.56
   1  -5  -7   -0.05    0.14
   1   5  -7   -0.15    0.07
   1   5  -7    0.02    0.09
  -1   5   7    0.03    0.06
   1   5  -7    0.14    0.08
   0  -5  -7   20.53    0.80
   0   5  -7   19.86    0.76
   0   5  -7   20.73    0.78
   0   5  -7   18.85    0.77
   0   5  -7   20.80    0.76
   0   5   7   21.14    0.76
  -1  -5  -7    2.32    0.22
  -1   5  -7    1.97    0.20
   1   5   7    2.35    0.16
  -1   5  -7    2.06    0.20
  -1   5  -7    2.18    0.17
  -1   5  -7    2.04    0.19
  -2  -5  -7    3.37    0.25
   2   5   7    2.97    0.19
  -2   5  -7    3.23    0.23
  -2   5  -7    2.88    0.22
  -2   5  -7    3.45    0.20
  -2   5  -7    3.08    0.22
  -3  -5  -7   18.96    0.73
  -3   5  -7   17.34    0.71
  -3   5  -7   17.63    0.69
   3   5   7   18.23    0.68
  -3   5  -7   17.89    0.70
  -3   5  -7   18.61    0.70
  -4  -5  -7    1.01    0.17
  -4   5  -7    1.04    0.14
  -4   5  -7    0.97    0.15
   4   5   7    0.99    0.12
  -4   5  -7    0.73    0.16
  -5  -5  -7   79.66    2.92
  -5   5  -7   85.79    2.90
  -5   5  -7   84.30    2.92
   5   5   7   82.81    2.88
  -5   5  -7   87.68    2.90
  -6  -5  -7    4.94    0.31
  -6   5  -7    6.42    0.33
  -6   5  -7    5.86    0.29
   6   5   7    5.89    0.27
  -6   5  -7    6.30    0.29
  -7  -5  -7   27.26    1.08
   7  -5   7   29.81    1.05
   7   5   7   28.64    1.03
  -7   5  -7   29.09    1.04
  -7   5  -7   29.31    1.05
  -7   5  -7   28.85    1.07
   8  -5   7    4.17    0.24
  -8  -5  -7    4.28    0.26
  -8   5  -7    4.30    0.22
  -8   5  -7    4.21    0.22
   9  -5   7    0.16    0.10
  -9  -5  -7    0.19    0.09
  -9   5  -7    0.18    0.07
  -9   5  -7    0.09    0.06
 -10  -5  -7   10.39    0.44
 -10   5  -7    9.62    0.39
  11  -5   7    2.40    0.14
 -11   5  -7    2.14    0.13
  13  -6  -7    7.96    0.32
 -13   6   7    8.59    0.32
  13   6  -7    8.20    0.33
  13   6  -7    8.45    0.32
  12  -6  -7    0.04    0.06
 -12   6   7    0.05    0.05
  12   6  -7    0.02    0.06
  12   6  -7    0.12    0.05
  11  -6  -7   -0.05    0.07
  11   6  -7    0.05    0.06
  11   6  -7    0.01    0.05
 -11   6   7    0.05    0.06
  10  -6  -7    8.52    0.36
 -10   6   7    8.08    0.35
  10   6  -7    8.28    0.34
  10   6  -7    8.26    0.36
   9  -6  -7    1.45    0.16
   9   6  -7    1.65    0.14
  -9   6   7    1.65    0.14
   9   6  -7    1.69    0.14
   8  -6  -7    2.36    0.20
  -8   6   7    2.28    0.17
   8   6  -7    2.89    0.19
   8   6  -7    2.73    0.17
   7  -6  -7    0.83    0.17
   7   6  -7    0.71    0.13
  -7   6   7    0.59    0.15
  -7   6   7    0.91    0.13
   7   6  -7    0.82    0.13
  -6   6   7    9.06    0.39
   6   6  -7    9.35    0.40
   6   6  -7    9.59    0.41
  -6   6   7    8.99    0.40
   5   6  -7   42.11    1.48
  -5   6   7   41.15    1.49
   5   6  -7   41.62    1.50
  -5   6   7   43.06    1.48
   4   6  -7   49.52    1.71
  -4   6   7   47.32    1.70
   4   6  -7   50.96    1.71
   4   6  -7   47.95    1.72
  -4   6   7   47.13    1.70
   3   6  -7   13.86    0.55
   3   6  -7   13.49    0.55
   3   6  -7   13.79    0.56
  -3   6   7   13.97    0.55
  -3   6   7   13.93    0.54
   2   6  -7    2.41    0.18
   2   6  -7    2.19    0.18
  -2   6   7    2.29    0.19
   2   6  -7    2.53    0.20
  -2   6   7    2.17    0.16
   1   6  -7   39.62    1.40
  -1   6   7   39.05    1.40
   1   6  -7   38.96    1.40
   1   6  -7   39.48    1.42
  -1   6   7   40.14    1.40
   0   6  -7   41.58    1.46
   0   6   7   40.89    1.45
   0   6  -7   41.35    1.47
   0   6  -7   40.21    1.45
  -1   6  -7    3.51    0.21
  -1   6  -7    3.36    0.23
  -1   6  -7    3.42    0.20
   1   6   7    3.19    0.19
  -2   6  -7   16.83    0.66
   2   6   7   17.21    0.65
  -2   6  -7   17.17    0.66
  -2   6  -7   16.26    0.67
  -2   6  -7   17.36    0.65
  -3   6  -7    5.50    0.29
  -3   6  -7    5.41    0.27
  -3   6  -7    5.00    0.26
   3   6   7    5.09    0.25
  -4   6  -7    2.25    0.17
  -4   6  -7    2.35    0.20
  -4   6  -7    2.41    0.17
   4   6   7    2.16    0.16
  -5  -6  -7    2.47    0.27
  -5   6  -7    2.60    0.17
   5   6   7    2.45    0.16
  -5   6  -7    2.41    0.17
  -5   6  -7    2.84    0.20
   6  -6   7    0.79    0.12
  -6  -6  -7    0.78    0.23
  -6   6  -7    0.92    0.14
   6   6   7    0.74    0.11
  -6   6  -7    0.75    0.12
  -6   6  -7    0.61    0.11
   7  -6   7   11.09    0.43
  -7  -6  -7   10.28    0.48
  -7   6  -7   10.88    0.42
  -7   6  -7   10.20    0.42
   7   6   7   10.05    0.41
  -8  -6  -7    5.97    0.37
   8  -6   7    5.51    0.26
  -8   6  -7    5.65    0.25
  -8   6  -7    5.76    0.25
   9  -6   7    0.08    0.10
  -9   6  -7    0.06    0.07
  -9   6  -7    0.10    0.05
  10  -6   7   18.97    0.67
 -10   6  -7   18.65    0.66
 -11   7   7    1.94    0.11
  11   7  -7    2.00    0.12
  11   7  -7    1.76    0.13
  10  -7  -7    0.52    0.12
  10   7  -7    0.87    0.10
  10   7  -7    0.56    0.09
 -10   7   7    0.75    0.08
   9  -7  -7    2.36    0.17
   9   7  -7    2.62    0.15
  -9   7   7    2.65    0.15
   9   7  -7    2.54    0.14
   8  -7  -7    1.88    0.17
   8   7  -7    2.31    0.14
  -8   7   7    2.19    0.14
   8   7  -7    2.44    0.15
   7   7  -7    3.35    0.19
  -7   7   7    3.39    0.18
  -7   7   7    3.15    0.19
   7   7  -7    3.15    0.18
  -6   7   7    6.71    0.29
   6   7  -7    6.53    0.29
   6   7  -7    6.42    0.30
  -6   7   7    6.50    0.28
  -5   7   7    0.25    0.08
  -5   7   7    0.20    0.07
   5   7  -7    0.28    0.07
   5   7  -7    0.15    0.07
   5   7  -7    0.07    0.08
  -4   7   7    1.09    0.12
   4   7  -7    1.17    0.13
   4   7  -7    1.13    0.13
   4   7  -7    0.84    0.12
  -4   7   7    0.83    0.13
   3   7  -7    0.54    0.12
  -3   7   7    0.47    0.09
   3   7  -7    0.32    0.08
   3   7  -7    0.40    0.12
  -3   7   7    0.62    0.10
  -2   7   7    6.47    0.31
   2   7  -7    6.52    0.32
  -2   7   7    6.63    0.30
   2   7  -7    6.72    0.30
   2   7  -7    7.38    0.31
   1   7  -7    0.10    0.07
   1   7  -7    0.09    0.06
  -1   7   7    0.06    0.06
   1   7  -7   -0.04    0.06
  -1   7   7    0.06    0.10
   0   7   7   10.16    0.43
   0   7  -7   10.87    0.44
   0   7  -7   11.01    0.44
   0   7  -7   11.18    0.45
  -1   7  -7    2.80    0.17
  -1   7  -7    2.99    0.19
   1   7   7    2.68    0.16
  -1   7  -7    2.38    0.16
  -2   7  -7    2.00    0.16
  -2   7  -7    2.15    0.14
   2   7   7    1.84    0.13
  -3   7  -7    0.00    0.05
  -3   7  -7    0.07    0.08
   3   7   7   -0.02    0.04
  -3   7  -7    0.05    0.06
  -4   7  -7    0.13    0.05
   4   7   7    0.10    0.05
  -4   7  -7    0.12    0.07
  -4   7  -7    0.10    0.06
   5  -7   7   20.87    0.75
   5   7   7   20.25    0.74
  -5   7  -7   21.50    0.75
  -5   7  -7   20.36    0.75
  -5   7  -7   20.56    0.76
   6  -7   7    1.10    0.11
  -6   7  -7    0.99    0.09
  -6   7  -7    1.15    0.10
   6   7   7    1.15    0.10
   7  -7   7    0.38    0.10
   7   7   7    0.37    0.10
  -7   7  -7    0.60    0.08
  -7   7  -7    0.48    0.08
   7   8  -7   -0.01    0.05
   7   8  -7    0.00    0.05
  -6   8   7    4.56    0.21
  -6   8   7    4.80    0.21
   6   8  -7    4.77    0.21
  -5   8   7    2.04    0.13
  -5   8   7    1.77    0.12
   5   8  -7    1.76    0.13
  -4   8   7    0.08    0.07
   4   8  -7   -0.05    0.07
  -4   8   7   -0.04    0.04
   4   8  -7    0.08    0.06
   4   8  -7    0.01    0.05
   3   8  -7    3.73    0.19
   3   8  -7    3.48    0.17
  -3   8   7    3.42    0.17
   3   8  -7    3.52    0.18
   2   8  -7    9.97    0.39
  -2   8   7    9.96    0.38
   2   8  -7    9.60    0.39
   2   8  -7   10.09    0.38
   1   8  -7    3.90    0.20
   1   8  -7    3.70    0.18
  -1   8   7    3.86    0.18
   0   8   7    0.53    0.07
   0   8  -7    0.57    0.08
   0   8  -7    0.40    0.11
   1   8   7    0.49    0.07
  -1   8  -7    0.37    0.11
  -1   8  -7    0.39    0.08
  -2   8  -7    5.61    0.25
   2   8   7    5.65    0.23
  -2   8  -7    5.35    0.23
   3  -8   7    0.32    0.08
  -3   8  -7    0.34    0.10
  -3   8  -7    0.29    0.07
   3   8   7    0.41    0.06
   4  -8   7    0.39    0.08
  -4   8  -7    0.41    0.06
   4   8   7    0.27    0.07
  18   0  -8   11.19    0.41
  17   0  -8    0.09    0.05
 -17   0   8    0.00    0.10
  16   0  -8    4.61    0.23
 -16   0   8    4.86    0.28
 -15   0   8    0.05    0.09
  15   0  -8    0.10    0.07
  15   0  -8   -0.04    0.09
  14   0  -8    1.35    0.15
  13   0  -8    0.02    0.10
  13   0  -8    0.00    0.08
  12   0  -8    6.73    0.32
  12   0  -8    6.64    0.34
  11   0  -8    0.55    0.14
  11   0  -8    0.17    0.13
  11   0  -8   -0.03    0.08
  10   0  -8   15.01    0.65
  10   0  -8   16.75    0.67
  10   0  -8   16.39    0.62
   9   0  -8    0.04    0.09
   9   0  -8    0.13    0.08
   8   0  -8    4.00    0.24
   8   0  -8    4.14    0.24
   7   0  -8    0.06    0.06
   6   0  -8    5.24    0.26
  -4   0   8   15.08    0.57
   4   0  -8   15.34    0.59
  -3   0   8    0.01    0.05
   3   0  -8    0.01    0.06
   2   0  -8  226.64    7.69
  -2   0   8  229.86    7.67
   1   0  -8    0.09    0.07
  -1   0   8    0.16    0.06
   0   0  -8    2.44    0.16
   0   0   8    2.41    0.12
  -1   0  -8   -0.01    0.06
   1   0   8    0.05    0.03
   1   0   8    0.00    0.03
  -2   0  -8   45.59    1.60
  -3   0  -8    0.10    0.07
  -4   0  -8  127.71    4.41
  -4   0  -8  132.62    4.44
  -5   0  -8    0.03    0.08
  -5   0  -8    0.06    0.09
  -6   0  -8    0.13    0.09
  -6   0  -8    0.11    0.08
  -6   0  -8    0.14    0.08
  -7   0  -8   -0.02    0.08
  -7   0  -8    0.15    0.10
  -7   0  -8    0.25    0.09
   7   0   8    0.04    0.10
  -8   0  -8    3.28    0.23
  -8   0  -8    3.26    0.22
   8   0   8    3.21    0.23
  -8   0  -8    2.95    0.20
   9   0   8   -0.04    0.09
  -9   0  -8    0.01    0.09
  -9   0  -8   -0.16    0.08
  -9   0  -8    0.11    0.11
 -10   0  -8    2.33    0.19
  10   0   8    2.42    0.20
 -10   0  -8    2.12    0.22
 -11   0  -8    0.05    0.12
  11   0   8    0.03    0.08
  12   0   8    0.77    0.13
  13   0   8    0.04    0.06
  14   0   8    5.93    0.25
  18  -1  -8    3.34    0.16
  18   1  -8    3.33    0.15
  17  -1  -8    0.60    0.09
 -17  -1   8    0.44    0.10
  17   1  -8    0.70    0.14
  17   1  -8    0.64    0.09
 -16  -1   8    1.22    0.16
  16  -1  -8    1.08    0.12
 -16   1   8    1.20    0.19
  16   1  -8    1.14    0.11
  16   1  -8    1.03    0.15
  15  -1  -8   -0.02    0.07
 -15  -1   8    0.06    0.09
  15   1  -8    0.01    0.06
 -15   1   8    0.13    0.10
  15   1  -8   -0.05    0.08
  14  -1  -8    4.68    0.25
  14   1  -8    4.73    0.25
  14   1  -8    4.95    0.27
  13  -1  -8    3.25    0.21
  13   1  -8    3.33    0.23
  13   1  -8    3.04    0.20
  12  -1  -8    0.23    0.09
  12  -1  -8    0.22    0.11
  12   1  -8    0.32    0.09
  12   1  -8    0.16    0.10
  11  -1  -8    5.21    0.28
  11  -1  -8    5.51    0.33
  11   1  -8    5.52    0.27
  11   1  -8    5.32    0.30
  10  -1  -8    0.51    0.16
  10  -1  -8    0.96    0.18
  10   1  -8    0.81    0.15
  10   1  -8    0.88    0.15
  10   1  -8    0.82    0.20
   9  -1  -8    2.06    0.19
   9  -1  -8    2.04    0.19
   9   1  -8    2.04    0.19
   9   1  -8    2.03    0.18
   9   1  -8    2.19    0.23
   8  -1  -8   59.61    2.15
   8  -1  -8   64.40    2.20
   8   1  -8   62.49    2.15
   8   1  -8   62.74    2.19
   7  -1  -8    1.19    0.14
  -7  -1   8    0.55    0.17
   7  -1  -8    0.92    0.17
   7   1  -8    0.89    0.14
   6  -1  -8   10.59    0.44
  -6  -1   8   10.28    0.43
   6  -1  -8   10.32    0.44
   6   1  -8   10.38    0.44
   5  -1  -8    3.45    0.20
   5  -1  -8    3.44    0.21
  -5  -1   8    3.29    0.19
   5   1  -8    3.36    0.20
   4  -1  -8    7.97    0.35
  -4  -1   8    8.20    0.35
  -4  -1   8    8.56    0.34
   4  -1  -8    7.76    0.34
  -4   1   8    7.71    0.34
   4   1  -8    8.13    0.35
   3  -1  -8   19.34    0.70
   3  -1  -8   19.52    0.73
  -3  -1   8   18.71    0.70
  -3  -1   8   19.83    0.71
  -3   1   8   19.14    0.71
   3   1  -8   19.60    0.72
  -2  -1   8    1.58    0.12
   2  -1  -8    1.62    0.11
   2  -1  -8    1.48    0.13
  -2  -1   8    1.73    0.11
   2   1  -8    1.53    0.15
  -2   1   8    1.48    0.12
  -1  -1   8   16.23    0.57
   1  -1  -8   15.78    0.57
   1  -1  -8   15.50    0.60
  -1  -1   8   16.09    0.56
   1   1  -8   15.27    0.60
  -1   1   8   15.89    0.57
   0  -1   8    3.38    0.15
   0  -1  -8    3.24    0.15
   0  -1   8    3.35    0.14
   0  -1  -8    3.62    0.19
   0   1   8    3.23    0.15
   0   1  -8    2.79    0.20
   1  -1   8   67.18    2.19
   1  -1   8   64.11    4.41
  -1  -1  -8   66.81    2.25
  -1   1  -8   64.05    2.24
   1   1   8   63.38    2.21
  -2  -1  -8    8.21    0.35
   2   1   8    8.07    0.29
  -2   1  -8    7.87    0.35
  -3  -1  -8    3.24    0.19
  -3   1  -8    3.04    0.20
  -4  -1  -8   21.41    0.76
  -4  -1  -8   20.91    0.79
  -4   1  -8   20.97    0.76
  -4   1  -8   20.86    0.77
  -4   1  -8   19.21    0.76
  -5  -1  -8   14.85    0.59
  -5  -1  -8   16.38    0.59
  -5  -1  -8   16.00    0.62
  -5   1  -8   16.05    0.59
  -5   1  -8   14.04    0.61
  -5   1  -8   15.50    0.59
  -6  -1  -8    5.91    0.30
  -6  -1  -8    5.66    0.27
  -6  -1  -8    6.07    0.30
  -6   1  -8    5.71    0.29
   6   1   8    5.35    0.36
  -6   1  -8    5.62    0.28
  -7  -1  -8   21.03    0.75
  -7  -1  -8   21.12    0.80
  -7  -1  -8   19.48    0.75
  -7   1  -8   20.49    0.75
   7   1   8   19.18    0.77
  -7   1  -8   19.74    0.75
  -8  -1  -8    2.97    0.20
  -8  -1  -8    3.01    0.22
  -8   1  -8    3.33    0.20
   8   1   8    2.64    0.23
  -8   1  -8    3.01    0.21
   9  -1   8   32.41    1.17
  -9  -1  -8   30.49    1.19
  -9  -1  -8   31.60    1.14
  -9   1  -8   32.18    1.14
  -9   1  -8   32.36    1.14
   9   1   8   32.30    1.16
 -10  -1  -8    0.47    0.14
 -10  -1  -8    0.69    0.20
  10  -1   8    0.26    0.09
 -10   1  -8    0.48    0.10
  10   1   8    0.41    0.10
 -10   1  -8    0.47    0.15
  11  -1   8   10.01    0.43
 -11  -1  -8    9.76    0.46
  11   1   8   10.39    0.43
 -11   1  -8   10.54    0.42
 -12  -1  -8    3.91    0.25
  12  -1   8    3.92    0.21
  12   1   8    3.72    0.22
 -13  -1  -8    6.84    0.37
  13  -1   8    7.25    0.30
  13   1   8    7.14    0.30
  14  -1   8    1.20    0.11
  17  -2  -8    7.33    0.30
 -17  -2   8    7.44    0.34
  17   2  -8    7.10    0.29
  17   2  -8    7.57    0.30
 -16  -2   8    0.32    0.12
  16  -2  -8    0.09    0.06
  16   2  -8    0.09    0.06
  16   2  -8    0.19    0.06
 -15  -2   8    6.35    0.34
  15  -2  -8    6.50    0.30
  15   2  -8    6.45    0.30
  15   2  -8    6.31    0.28
  14  -2  -8    0.33    0.09
 -14  -2   8    0.33    0.13
  14   2  -8    0.45    0.11
  14   2  -8    0.32    0.09
  13  -2  -8   14.37    0.58
  13   2  -8   14.30    0.57
  13   2  -8   14.93    0.59
  12  -2  -8   19.94    0.75
  12   2  -8   19.56    0.75
  12   2  -8   19.09    0.73
  11  -2  -8    4.54    0.26
  11  -2  -8    4.26    0.29
  11   2  -8    4.24    0.26
  11   2  -8    4.12    0.23
  10  -2  -8    0.02    0.10
  10  -2  -8    0.24    0.11
  10   2  -8    0.04    0.09
 -10   2   8   -0.08    0.13
   9  -2  -8    2.25    0.21
   9  -2  -8    2.90    0.22
   9   2  -8    2.38    0.21
   9   2  -8    2.42    0.18
   9   2  -8    2.49    0.21
   8  -2  -8    1.00    0.16
   8  -2  -8    1.17    0.19
   8   2  -8    1.30    0.15
   8   2  -8    0.73    0.20
   8   2  -8    1.15    0.16
   7  -2  -8   36.51    1.34
   7   2  -8   36.90    1.30
   7   2  -8   35.36    1.31
   7   2  -8   38.54    1.34
   6  -2  -8   33.01    1.17
   6  -2  -8   29.68    1.17
  -6  -2   8   31.54    1.16
   6   2  -8   34.00    1.17
  -5  -2   8  136.52    4.57
   5  -2  -8  133.64    4.59
   5  -2  -8  133.46    4.59
   5   2  -8  134.49    4.58
   4  -2  -8   28.32    1.01
   4  -2  -8   27.01    1.00
  -4  -2   8   27.88    0.99
   4   2  -8   27.08    1.00
  -3  -2   8   62.31    2.19
  -3  -2   8   64.88    2.18
   3  -2  -8   61.88    2.19
   3   2  -8   64.12    2.19
   2  -2  -8  137.22    4.49
  -2  -2   8  132.80    4.46
  -2  -2   8  133.94    4.47
   2  -2  -8  132.83    4.48
  -2   2   8  122.74    4.47
  -1  -2   8    9.19    0.36
   1  -2  -8    9.15    0.38
   1  -2  -8    9.95    0.40
  -1  -2   8    9.19    0.37
  -1   2   8    8.65    0.37
   0  -2  -8   18.05    0.65
   0  -2   8   17.99    0.63
   0  -2  -8   18.05    0.67
   0  -2   8   17.84    0.63
   0   2   8   15.59    0.64
   1  -2   8   12.87    0.45
  -1  -2  -8   13.32    0.50
  -1  -2  -8   11.51    0.47
   1  -2   8   12.29    0.46
   1   2   8   11.87    0.48
  -3  -2  -8    9.35    0.40
  -3  -2  -8    9.27    0.37
  -3   2  -8    8.66    0.41
  -3   2  -8    8.76    0.37
  -3   2  -8    8.40    0.38
  -4  -2  -8    6.02    0.30
  -4  -2  -8    6.07    0.27
  -4  -2  -8    6.04    0.30
  -4   2  -8    5.89    0.33
  -4   2  -8    5.90    0.28
  -4   2  -8    5.75    0.29
  -5  -2  -8    8.62    0.41
  -5  -2  -8   10.03    0.40
  -5  -2  -8    9.72    0.43
  -5   2  -8    9.97    0.40
  -5   2  -8    9.47    0.44
  -5   2  -8    9.39    0.40
  -6  -2  -8   10.86    0.43
  -6  -2  -8   10.39    0.47
  -6   2  -8   10.88    0.44
  -6   2  -8   10.60    0.47
  -6   2  -8   10.53    0.44
  -7  -2  -8    0.46    0.13
  -7  -2  -8    0.80    0.15
  -7   2  -8    0.48    0.14
  -7   2  -8    0.87    0.14
  -8  -2  -8    2.70    0.18
  -8  -2  -8    3.04    0.22
  -8   2  -8    2.68    0.19
   8   2   8    2.32    0.26
  -8   2  -8    2.59    0.19
  -9  -2  -8   26.56    1.10
  -9   2  -8   30.94    1.06
  -9   2  -8   30.75    1.06
   9   2   8   29.31    1.07
 -10  -2  -8    6.29    0.35
  10  -2   8    7.17    0.34
  10   2   8    7.22    0.34
 -10   2  -8    7.03    0.32
 -10   2  -8    7.17    0.32
  11  -2   8    0.98    0.14
 -11  -2  -8    1.20    0.16
 -11   2  -8    1.06    0.13
  11   2   8    0.73    0.18
  12  -2   8    0.60    0.11
 -12  -2  -8    0.67    0.15
 -12   2  -8    0.55    0.15
  12   2   8    0.81    0.17
  13  -2   8    5.05    0.23
 -13  -2  -8    5.23    0.28
  17  -3  -8    1.67    0.11
  17   3  -8    1.82    0.12
  17   3  -8    1.77    0.11
  16  -3  -8   28.97    1.05
 -16  -3   8   30.21    1.08
  16   3  -8   29.83    1.04
  16   3  -8   29.96    1.05
 -15  -3   8    1.74    0.17
  15  -3  -8    1.86    0.15
  15   3  -8    1.98    0.15
  15   3  -8    1.80    0.14
 -14  -3   8    0.11    0.09
  14  -3  -8    0.07    0.07
  14   3  -8    0.18    0.07
  14   3  -8    0.02    0.06
 -13  -3   8    3.48    0.25
  13  -3  -8    3.88    0.23
  13   3  -8    4.35    0.24
  13   3  -8    3.98    0.22
 -12  -3   8   20.15    0.85
  12  -3  -8   21.38    0.81
 -12   3   8   21.47    0.81
  12   3  -8   22.36    0.82
  12   3  -8   22.01    0.80
  11  -3  -8    0.55    0.16
  11  -3  -8    0.67    0.23
  11   3  -8    0.66    0.14
  11   3  -8    0.83    0.16
 -11   3   8    0.73    0.17
  10  -3  -8   13.10    0.54
  10  -3  -8   12.95    0.58
  10   3  -8   12.69    0.53
  10   3  -8   13.16    0.52
 -10   3   8   13.34    0.53
   9  -3  -8   22.96    0.93
   9  -3  -8   25.82    0.90
   9   3  -8   23.86    0.88
  -9   3   8   23.28    0.89
   8  -3  -8    0.20    0.11
   8   3  -8    0.03    0.09
   8   3  -8    0.16    0.08
   7  -3  -8    9.78    0.44
   7  -3  -8   10.00    0.45
   7   3  -8   10.39    0.41
   7   3  -8    9.70    0.43
   6  -3  -8    3.62    0.29
   6  -3  -8    4.08    0.25
   6   3  -8    3.68    0.25
   6   3  -8    4.09    0.23
   6   3  -8    3.85    0.26
   5  -3  -8   93.96    3.16
   5   3  -8   94.66    3.18
   5   3  -8   89.77    3.16
  -4  -3   8  233.09    7.78
   4  -3  -8  227.26    7.74
   4  -3  -8  228.92    7.78
   4   3  -8  231.93    7.75
   4   3  -8  228.98    7.76
   3  -3  -8   21.49    0.84
   3  -3  -8   22.81    0.83
  -3  -3   8   21.35    0.81
   3  -3  -8   20.98    0.79
   2  -3  -8    6.66    0.33
   2  -3  -8    6.53    0.35
  -2  -3   8    7.15    0.32
  -1  -3   8   16.23    0.71
   1  -3  -8   19.27    0.71
   1  -3  -8   18.14    0.71
  -1  -3   8   19.43    0.69
   0  -3  -8    2.24    0.18
   0  -3   8    2.20    0.18
   0  -3  -8    2.50    0.22
   0  -3  -8    1.64    0.26
   0   3  -8    2.10    0.22
   0   3  -8    2.07    0.17
  -1  -3  -8    2.15    0.23
  -1  -3  -8    2.13    0.17
  -1  -3  -8    2.02    0.18
  -1   3  -8    2.07    0.23
  -1   3  -8    2.28    0.17
  -1   3  -8    1.76    0.19
  -2  -3  -8   16.59    0.65
  -2  -3  -8   17.44    0.64
  -2  -3  -8   17.32    0.68
  -2   3  -8   17.66    0.66
  -2   3  -8   17.74    0.65
  -2   3  -8   16.85    0.68
  -3  -3  -8   40.22    1.40
  -3  -3  -8   38.98    1.36
  -3  -3  -8   38.48    1.36
  -3   3  -8   38.95    1.37
  -3   3  -8   39.10    1.37
  -3   3  -8   36.60    1.41
  -3   3  -8   38.54    1.39
  -4  -3  -8    4.39    0.30
  -4  -3  -8    4.69    0.27
  -4  -3  -8    5.13    0.24
  -4   3  -8    4.70    0.25
  -4   3  -8    4.97    0.25
  -4   3  -8    4.85    0.28
  -5  -3  -8    4.58    0.27
  -5   3  -8    4.60    0.25
  -5   3  -8    4.25    0.24
  -5   3  -8    4.73    0.28
  -6  -3  -8    9.17    0.43
  -6   3  -8    8.77    0.39
  -6   3  -8    9.07    0.39
  -6   3  -8    8.98    0.42
  -7  -3  -8   55.80    1.94
  -7   3  -8   53.50    1.89
  -7   3  -8   52.96    1.89
  -8  -3  -8    2.77    0.22
  -8   3  -8    3.23    0.20
  -8   3  -8    3.19    0.20
  -9  -3  -8    0.51    0.14
  -9   3  -8    0.55    0.13
  -9   3  -8    0.48    0.13
 -10  -3  -8    0.23    0.10
 -10   3  -8    0.12    0.09
 -10   3  -8    0.22    0.08
  11  -3   8    0.41    0.11
 -11  -3  -8    0.08    0.08
 -11   3  -8    0.21    0.07
 -12  -3  -8    9.59    0.42
  12  -3   8    9.61    0.39
 -12   3  -8    9.59    0.37
  13  -3   8    0.41    0.09
  16  -4  -8    1.02    0.10
  16   4  -8    1.10    0.10
  16   4  -8    1.25    0.10
 -15  -4   8    0.22    0.12
  15  -4  -8    0.18    0.06
  15   4  -8    0.25    0.08
  15   4  -8    0.17    0.06
 -14  -4   8    5.86    0.31
  14  -4  -8    5.95    0.27
  14   4  -8    6.06    0.27
  14   4  -8    5.68    0.26
 -13  -4   8    5.14    0.29
  13  -4  -8    5.25    0.26
 -13   4   8    5.14    0.26
  13   4  -8    4.98    0.25
  13   4  -8    5.21    0.26
  12  -4  -8    9.33    0.41
 -12  -4   8    8.71    0.43
  12   4  -8    9.23    0.40
 -12   4   8    9.65    0.39
  12   4  -8    8.76    0.38
 -11  -4   8    3.11    0.25
  11  -4  -8    3.41    0.22
  11   4  -8    3.14    0.21
  11   4  -8    3.16    0.20
 -11   4   8    3.19    0.21
  10  -4  -8    6.05    0.31
 -10  -4   8    6.04    0.33
  10   4  -8    5.66    0.30
 -10   4   8    5.91    0.29
  10   4  -8    5.68    0.28
  -9  -4   8   18.36    0.74
   9  -4  -8   18.11    0.71
   9   4  -8   18.80    0.71
  -9   4   8   18.49    0.70
   9   4  -8   18.00    0.69
  -8  -4   8   30.43    1.13
   8  -4  -8   30.56    1.11
   8   4  -8   30.13    1.09
  -8   4   8   30.09    1.10
   8   4  -8   30.49    1.11
   7  -4  -8   13.24    0.59
   7  -4  -8   13.34    0.56
   7   4  -8   14.27    0.55
   7   4  -8   13.57    0.54
   6  -4  -8   22.28    0.84
   6  -4  -8   21.25    0.82
   6   4  -8   22.29    0.80
  -6   4   8   19.13    0.85
   6   4  -8   22.14    0.81
   5  -4  -8   89.23    3.19
   5   4  -8   95.76    3.16
  -5   4   8   90.63    3.15
   5   4  -8   93.61    3.17
   4  -4  -8   35.58    1.31
   4   4  -8   37.61    1.30
   4   4  -8   33.73    1.28
   4   4  -8   37.33    1.28
  -4   4   8   36.37    1.27
   3  -4  -8    0.21    0.10
   3   4  -8    0.01    0.08
   3   4  -8   -0.02    0.10
  -3   4   8   -0.02    0.08
   3   4  -8    0.26    0.09
   2  -4  -8   15.95    0.63
   2  -4  -8   14.88    0.59
   2   4  -8   15.20    0.59
   2   4  -8   15.19    0.61
  -2   4   8   15.07    0.58
   2   4  -8   16.05    0.60
   1  -4  -8    7.62    0.34
   1  -4  -8    7.88    0.38
   1   4  -8    8.23    0.37
   1   4  -8    8.03    0.35
   1   4  -8    7.20    0.39
   1   4  -8    7.97    0.35
   0  -4  -8    5.58    0.30
   0  -4  -8    5.11    0.27
   0   4  -8    5.59    0.28
   0   4  -8    5.27    0.30
   0   4  -8    5.40    0.27
   0   4  -8    5.13    0.29
  -1  -4  -8   16.03    0.63
  -1  -4  -8   15.51    0.60
  -1   4  -8   15.32    0.60
  -1   4  -8   15.15    0.61
  -1   4  -8   15.99    0.61
  -1   4  -8   15.79    0.63
  -2  -4  -8    1.01    0.15
  -2  -4  -8    1.14    0.19
  -2   4  -8    1.37    0.19
  -2   4  -8    0.87    0.18
  -2   4  -8    0.89    0.16
  -2   4  -8    1.04    0.14
  -3  -4  -8   84.44    2.82
  -3  -4  -8   77.64    2.76
  -3   4  -8   79.48    2.80
  -3   4  -8   79.76    2.78
  -3   4  -8   81.92    2.78
  -4  -4  -8    9.45    0.44
  -4   4  -8    9.40    0.44
  -4   4  -8   10.16    0.41
  -4   4  -8    9.21    0.41
  -5  -4  -8    0.15    0.09
  -5   4  -8    0.30    0.10
  -5   4  -8    0.23    0.09
  -5   4  -8    0.05    0.09
  -6  -4  -8   68.55    2.51
  -6   4  -8   71.78    2.50
  -6   4  -8   72.95    2.47
  -6   4  -8   72.39    2.47
  -7  -4  -8    6.20    0.34
   7  -4   8    6.40    0.35
  -7   4  -8    7.09    0.35
  -7   4  -8    7.08    0.32
  -7   4  -8    6.49    0.31
   7   4   8    6.96    0.30
  -8  -4  -8   16.31    0.72
  -8   4  -8   18.82    0.69
  -8   4  -8   19.39    0.69
   8   4   8   17.78    0.67
  -9  -4  -8    3.09    0.22
  -9   4  -8    3.17    0.19
  -9   4  -8    3.22    0.19
 -10  -4  -8    0.36    0.12
 -10   4  -8    0.42    0.09
 -10   4  -8    0.41    0.10
  11  -4   8   14.73    0.56
 -11  -4  -8   14.29    0.58
 -11   4  -8   14.86    0.54
  12  -4   8    0.03    0.05
 -12   4  -8   -0.08    0.06
  15  -5  -8    0.13    0.05
  15   5  -8    0.09    0.07
  15   5  -8    0.03    0.04
  14  -5  -8    1.73    0.12
  14   5  -8    1.89    0.13
  14   5  -8    1.74    0.12
 -14   5   8    1.98    0.15
  13  -5  -8    5.86    0.26
 -13   5   8    5.87    0.25
  13   5  -8    5.32    0.25
  13   5  -8    5.56    0.25
  12  -5  -8    0.29    0.08
  12   5  -8    0.22    0.06
 -12   5   8    0.22    0.07
  12   5  -8    0.19    0.07
  11  -5  -8   12.10    0.49
 -11   5   8   12.04    0.47
  11   5  -8   11.98    0.47
  11   5  -8   11.65    0.48
  10  -5  -8   -0.14    0.09
 -10   5   8    0.08    0.08
  10   5  -8    0.17    0.07
  10   5  -8   -0.05    0.07
   9  -5  -8    6.57    0.32
  -9   5   8    6.39    0.30
   9   5  -8    6.40    0.31
   9   5  -8    5.98    0.29
   8  -5  -8    2.24    0.21
  -8   5   8    2.14    0.18
   8   5  -8    2.12    0.18
   8   5  -8    2.16    0.17
   7  -5  -8    0.26    0.13
   7   5  -8    0.07    0.07
  -7   5   8    0.08    0.08
   7   5  -8    0.08    0.08
   6   5  -8    1.43    0.16
  -6   5   8    1.79    0.18
  -6   5   8    1.74    0.16
   6   5  -8    1.74    0.16
   5   5  -8    1.58    0.17
  -5   5   8    1.89    0.16
   5   5  -8    1.75    0.17
   4   5  -8   19.41    0.72
  -4   5   8   18.90    0.71
   4   5  -8   19.05    0.74
   4   5  -8   18.75    0.72
   3   5  -8   23.85    0.89
   3   5  -8   24.67    0.88
  -3   5   8   23.45    0.87
   3   5  -8   23.53    0.88
   2  -5  -8   11.24    0.53
   2   5  -8   12.28    0.49
  -2   5   8   11.90    0.48
   2   5  -8   12.42    0.49
   2   5  -8   12.29    0.51
   1  -5  -8   11.94    0.52
   1   5  -8   11.30    0.47
   1   5  -8   11.52    0.48
   1   5  -8   11.45    0.49
  -1   5   8   11.84    0.47
   0  -5  -8    0.16    0.12
   0   5  -8    0.31    0.10
   0   5   8    0.46    0.11
   0   5  -8    0.38    0.13
   0   5  -8    0.23    0.09
   0   5  -8    0.18    0.08
  -1  -5  -8   38.95    1.40
  -1   5  -8   39.46    1.37
   1   5   8   37.47    1.36
  -1   5  -8   38.98    1.39
  -1   5  -8   37.97    1.37
  -1   5  -8   37.99    1.37
  -2  -5  -8    7.60    0.37
   2   5   8    7.13    0.32
  -2   5  -8    6.93    0.33
  -2   5  -8    7.41    0.34
  -2   5  -8    7.00    0.34
  -2   5  -8    7.27    0.36
  -3  -5  -8   10.51    0.47
  -3   5  -8   10.47    0.46
   3   5   8   10.14    0.42
  -3   5  -8    9.88    0.43
  -3   5  -8   10.15    0.43
  -3   5  -8    9.77    0.43
  -4  -5  -8    0.28    0.11
  -4   5  -8    0.56    0.13
  -4   5  -8    0.18    0.08
   4   5   8    0.21    0.07
  -4   5  -8    0.27    0.09
  -5  -5  -8    0.80    0.17
  -5   5  -8    1.34    0.17
   5   5   8    0.99    0.12
  -5   5  -8    0.86    0.14
  -5   5  -8    1.05    0.14
   6  -5   8    0.20    0.10
  -6  -5  -8    0.27    0.11
  -6   5  -8    0.23    0.08
   6   5   8    0.37    0.10
  -6   5  -8    0.26    0.09
  -6   5  -8    0.39    0.14
  -7  -5  -8    3.52    0.24
   7  -5   8    3.20    0.23
   7   5   8    3.49    0.19
  -7   5  -8    3.66    0.20
  -7   5  -8    3.53    0.20
  -8  -5  -8    3.97    0.25
   8  -5   8    4.02    0.24
  -8   5  -8    3.99    0.21
   8   5   8    3.68    0.20
  -8   5  -8    4.07    0.21
  -9  -5  -8    8.33    0.38
  -9   5  -8    8.51    0.34
  -9   5  -8    8.25    0.34
 -10  -5  -8    0.49    0.16
  10  -5   8    0.19    0.06
 -10   5  -8    0.29    0.07
  11  -5   8    0.06    0.05
 -11   5  -8    0.05    0.05
  13   6  -8   13.42    0.50
  13   6  -8   13.15    0.49
 -13   6   8   14.06    0.49
  12  -6  -8    6.55    0.28
  12   6  -8    6.35    0.27
  12   6  -8    6.37    0.28
 -12   6   8    6.88    0.27
  11  -6  -8    4.15    0.21
  11   6  -8    3.93    0.20
  11   6  -8    4.11    0.20
 -11   6   8    3.76    0.19
  10  -6  -8    3.62    0.21
 -10   6   8    3.50    0.19
  10   6  -8    3.61    0.19
  10   6  -8    3.77    0.20
   9  -6  -8   15.91    0.62
   9   6  -8   16.38    0.62
   9   6  -8   17.13    0.63
  -9   6   8   16.10    0.62
   8   6  -8    2.47    0.18
  -8   6   8    2.53    0.17
   8   6  -8    2.57    0.17
  -7   6   8   24.65    0.90
  -7   6   8   23.64    0.88
   7   6  -8   24.62    0.91
   7   6  -8   24.66    0.89
  -6   6   8    0.18    0.08
   6   6  -8    0.09    0.08
   6   6  -8    0.14    0.07
   5   6  -8    0.36    0.13
   5   6  -8    0.59    0.13
  -5   6   8    0.11    0.07
  -5   6   8    0.27    0.08
   4   6  -8    1.78    0.16
   4   6  -8    1.94    0.18
  -4   6   8    2.45    0.18
   4   6  -8    1.70    0.17
  -4   6   8    2.05    0.15
  -3   6   8   13.87    0.56
  -3   6   8   13.24    0.55
   3   6  -8   14.65    0.56
   3   6  -8   14.50    0.57
   3   6  -8   14.26    0.56
   2   6  -8    2.69    0.18
   2   6  -8    2.66    0.20
  -2   6   8    2.57    0.19
   2   6  -8    2.58    0.19
  -2   6   8    2.73    0.17
  -1   6   8    0.49    0.11
   1   6  -8    0.42    0.14
   1   6  -8    0.51    0.12
  -1   6   8    0.68    0.15
   0   6  -8    3.28    0.20
   0   6  -8    3.41    0.21
   0   6   8    3.28    0.20
   0   6  -8    3.39    0.23
  -1   6  -8   36.09    1.28
  -1   6  -8   36.70    1.30
   1   6   8   34.86    1.27
  -1   6  -8   35.33    1.28
  -2   6  -8    0.99    0.13
  -2   6  -8    1.06    0.16
  -2   6  -8    1.06    0.15
   2   6   8    1.21    0.12
  -2   6  -8    0.83    0.14
   3   6   8   15.67    0.60
  -3   6  -8   15.29    0.62
  -3   6  -8   16.29    0.60
  -3   6  -8   15.12    0.60
  -4  -6  -8    2.48    0.27
  -4   6  -8    2.91    0.18
   4   6   8    2.63    0.17
  -4   6  -8    2.33    0.17
  -4   6  -8    2.61    0.20
  -5  -6  -8    0.62    0.22
  -5   6  -8    0.89    0.14
   5   6   8    0.96    0.11
  -5   6  -8    0.82    0.12
  -5   6  -8    0.79    0.11
   6  -6   8    0.84    0.13
  -6  -6  -8    0.65    0.21
  -6   6  -8    0.60    0.10
  -6   6  -8    0.54    0.11
  -6   6  -8    0.52    0.12
   6   6   8    0.48    0.09
   7  -6   8    1.05    0.14
  -7  -6  -8    1.11    0.23
  -7   6  -8    1.19    0.11
   7   6   8    1.27    0.11
  -7   6  -8    1.18    0.11
   8  -6   8    0.45    0.11
  -8   6  -8    0.46    0.08
  -8   6  -8    0.41    0.09
  -9   6  -8    2.02    0.11
  11   7  -8    3.37    0.16
 -11   7   8    3.29    0.15
  10   7  -8    0.81    0.09
  10   7  -8    0.84    0.10
 -10   7   8    0.95    0.09
   9   7  -8   10.99    0.42
  -9   7   8   11.03    0.42
   9   7  -8   11.02    0.43
   8   7  -8    1.51    0.13
   8   7  -8    1.57    0.11
  -8   7   8    1.54    0.12
   7   7  -8    2.90    0.18
   7   7  -8    2.99    0.16
  -7   7   8    3.05    0.17
   6   7  -8    0.25    0.07
  -6   7   8    0.28    0.07
   6   7  -8    0.13    0.07
  -6   7   8    0.28    0.07
   5   7  -8   11.87    0.46
  -5   7   8   11.34    0.46
   5   7  -8   11.70    0.47
  -5   7   8   12.10    0.46
  -4   7   8    3.05    0.18
   4   7  -8    3.27    0.19
   4   7  -8    2.96    0.19
  -4   7   8    3.31    0.17
   4   7  -8    3.09    0.18
  -3   7   8    0.14    0.06
   3   7  -8    0.28    0.08
   3   7  -8    0.13    0.07
   3   7  -8    0.21    0.07
  -3   7   8    0.22    0.08
   2   7  -8    0.42    0.12
   2   7  -8    0.47    0.11
  -2   7   8    0.36    0.09
   2   7  -8    0.45    0.11
  -2   7   8    0.83    0.14
  -1   7   8   43.34    1.55
   1   7  -8   45.82    1.56
   1   7  -8   44.54    1.57
   1   7  -8   44.50    1.56
   0   7  -8    0.36    0.10
   0   7  -8    0.47    0.10
   0   7  -8    0.41    0.11
   0   7   8    0.24    0.06
  -1   7  -8    0.82    0.12
  -1   7  -8    0.96    0.11
   1   7   8    1.01    0.10
  -2   7  -8    1.37    0.13
  -2   7  -8    1.23    0.11
   2   7   8    1.21    0.11
   3   7   8    0.05    0.04
  -3   7  -8    0.02    0.05
  -3   7  -8    0.00    0.08
  -3   7  -8    0.02    0.07
  -4   7  -8    0.53    0.11
  -4   7  -8    0.52    0.11
  -4   7  -8    0.64    0.09
   4   7   8    0.62    0.09
   5  -7   8   10.49    0.39
  -5   7  -8    9.82    0.38
   5   7   8   10.12    0.38
  -5   7  -8   10.06    0.40
  -5   7  -8    9.50    0.38
   6  -7   8    2.88    0.16
   6   7   8    2.74    0.14
  -6   7  -8    2.71    0.14
  -6   7  -8    2.81    0.14
  -7   7  -8    4.07    0.18
  -7   7  -8    4.37    0.18
  -7   8   8   14.52    0.51
   7   8  -8   14.29    0.52
   6   8  -8    0.03    0.04
  -6   8   8    0.27    0.06
   6   8  -8    0.11    0.05
  -5   8   8    1.61    0.12
   5   8  -8    1.44    0.12
  -5   8   8    1.41    0.11
  -4   8   8    1.98    0.12
   4   8  -8    2.13    0.14
  -4   8   8    2.16    0.14
  -3   8   8   -0.01    0.04
   3   8  -8    0.04    0.05
   3   8  -8    0.07    0.05
   3   8  -8    0.12    0.06
   2   8  -8    0.79    0.09
  -2   8   8    0.73    0.08
   2   8  -8    0.75    0.10
  -1   8   8    0.82    0.08
   1   8  -8    0.84    0.10
   1   8  -8    0.90    0.09
   0   8   8    6.32    0.26
   0   8  -8    6.75    0.28
   0   8  -8    6.65    0.27
   1   8   8    1.03    0.08
  -1   8  -8    1.20    0.09
  -1   8  -8    0.86    0.11
  -2   8  -8    3.42    0.18
  -2   8  -8    3.52    0.16
   2   8   8    3.73    0.16
   3  -8   8    5.23    0.22
   3   8   8    5.32    0.21
  -3   8  -8    5.40    0.22
  18   0  -9    0.05    0.05
  17   0  -9    0.03    0.05
 -17   0   9   -0.10    0.10
 -16   0   9   -0.08    0.09
  16   0  -9    0.10    0.06
  15   0  -9   11.65    0.46
 -15   0   9   11.42    0.52
  14   0  -9    0.15    0.12
  14   0  -9    0.02    0.07
  12   0  -9   -0.06    0.12
  12   0  -9    0.02    0.09
  12   0  -9    0.00    0.10
  11   0  -9   17.08    0.71
  11   0  -9   16.15    0.64
  10   0  -9    0.01    0.09
  10   0  -9    0.08    0.10
   9   0  -9   96.28    3.28
   9   0  -9   95.97    3.34
   8   0  -9    0.09    0.08
   8   0  -9    0.17    0.11
   7   0  -9    0.04    0.07
   6   0  -9    0.10    0.07
   5   0  -9  107.76    3.69
   4   0  -9    0.01    0.06
  -4   0   9    0.05    0.09
  -3   0   9   21.34    0.80
   3   0  -9   22.76    0.82
  -2   0   9    0.15    0.06
   2   0  -9    0.08    0.06
   1   0  -9   45.34    1.56
  -1   0   9   43.29    1.52
   0   0   9    0.08    0.05
   0   0  -9    0.01    0.07
   1   0   9   10.96    0.37
   1   0   9   10.65    0.37
  -1   0  -9   10.75    0.44
  -2   0  -9    0.06    0.07
  -3   0  -9    5.02    0.26
  -3   0  -9    5.34    0.27
  -3   0  -9    6.02    0.28
  -4   0  -9   -0.06    0.07
  -4   0  -9    0.14    0.08
  -4   0  -9    0.08    0.09
  -5   0  -9   26.46    0.94
  -5   0  -9   24.49    0.93
  -5   0  -9   26.75    0.97
  -6   0  -9    0.21    0.09
  -6   0  -9   -0.14    0.07
  -6   0  -9    0.03    0.09
  -7   0  -9  178.93    5.99
  -7   0  -9  176.91    5.99
  -7   0  -9  178.36    6.03
   7   0   9  174.20    6.01
   8   0   9    0.06    0.10
  -8   0  -9    0.17    0.08
  -8   0  -9    0.06    0.11
   9   0   9    0.26    0.10
  -9   0  -9    0.61    0.17
  -9   0  -9    0.34    0.10
  -9   0  -9    0.11    0.08
 -10   0  -9    0.01    0.08
  10   0   9    0.09    0.08
 -10   0  -9   -0.12    0.11
 -11   0  -9   -0.02    0.14
  11   0   9    0.48    0.13
  12   0   9   -0.02    0.06
  13   0   9    1.46    0.14
  17  -1  -9    0.24    0.08
 -17  -1   9    0.55    0.14
  17   1  -9    0.24    0.08
  17   1  -9    0.09    0.10
 -16  -1   9   11.92    0.50
  16  -1  -9   11.40    0.45
  16   1  -9   10.89    0.45
  16   1  -9   11.14    0.44
 -16   1   9   11.70    0.50
 -15  -1   9   22.03    0.86
  15  -1  -9   22.08    0.81
 -15   1   9   21.62    0.86
  15   1  -9   22.26    0.80
  15   1  -9   21.62    0.81
  14  -1  -9    0.12    0.08
  14   1  -9    0.19    0.07
  14   1  -9    0.29    0.10
  13  -1  -9    5.48    0.28
  13   1  -9    5.33    0.27
  13   1  -9    5.08    0.30
  12  -1  -9   33.50    1.22
  12  -1  -9   30.87    1.15
  12   1  -9   30.93    1.14
  12   1  -9   31.41    1.15
  11  -1  -9   23.09    0.91
  11  -1  -9   22.66    0.85
  11   1  -9   21.51    0.86
  11   1  -9   23.52    0.92
  11   1  -9   23.28    0.85
  10  -1  -9    2.14    0.21
  10  -1  -9    2.08    0.19
  10   1  -9    1.92    0.24
  10   1  -9    2.25    0.21
  10   1  -9    2.24    0.18
   9  -1  -9    0.49    0.12
   9   1  -9    1.05    0.24
   8  -1  -9    3.70    0.24
   8  -1  -9    3.51    0.23
   8   1  -9    3.64    0.23
   8   1  -9    3.22    0.22
   7  -1  -9  104.09    3.54
   7   1  -9  102.11    3.50
   7   1  -9  102.00    3.53
   6  -1  -9    1.02    0.14
  -6  -1   9    0.91    0.16
   6  -1  -9    1.16    0.18
   6   1  -9    1.03    0.14
   5  -1  -9   23.07    0.87
   5  -1  -9   23.13    0.88
  -5  -1   9   24.26    0.86
   5   1  -9   22.98    0.87
   4  -1  -9    0.65    0.11
  -4  -1   9    0.50    0.11
  -4  -1   9    0.58    0.16
   4  -1  -9    0.68    0.12
   4   1  -9    0.39    0.12
   3  -1  -9    4.20    0.21
  -3  -1   9    3.92    0.20
  -3  -1   9    3.69    0.22
   3  -1  -9    4.69    0.23
   3   1  -9    4.00    0.23
  -3   1   9    3.88    0.22
   2  -1  -9    2.35    0.15
   2  -1  -9    2.34    0.17
  -2  -1   9    2.58    0.15
  -2  -1   9    2.38    0.16
   2   1  -9    2.25    0.17
  -2   1   9    2.39    0.16
  -1  -1   9   51.34    1.77
   1  -1  -9   52.85    1.81
   1  -1  -9   50.99    1.78
  -1  -1   9   51.95    1.77
  -1   1   9   50.19    1.78
   1   1  -9   53.18    1.81
   0  -1   9    0.96    0.08
   0  -1  -9    0.97    0.13
   0  -1   9    0.88    0.09
   0   1   9    1.01    0.11
  -1  -1  -9   54.92    1.89
  -1   1  -9   53.79    1.88
   1   1   9   53.08    1.85
  -3  -1  -9    0.13    0.08
  -3  -1  -9    0.02    0.09
  -3  -1  -9    0.06    0.07
  -3   1  -9    0.24    0.10
  -3   1  -9    0.09    0.08
  -3   1  -9    0.03    0.07
  -4  -1  -9    0.51    0.10
  -4  -1  -9    0.36    0.08
  -4  -1  -9    0.57    0.12
  -4   1  -9    0.32    0.13
  -4   1  -9    0.61    0.10
  -4   1  -9    0.53    0.16
  -4   1  -9    0.43    0.12
  -5  -1  -9    7.44    0.32
  -5  -1  -9    7.49    0.36
  -5  -1  -9    6.89    0.33
  -5   1  -9    7.63    0.33
  -5   1  -9    6.94    0.33
  -6  -1  -9   21.92    0.80
  -6  -1  -9   21.35    0.84
  -6  -1  -9   22.45    0.80
  -6   1  -9   22.25    0.81
  -6   1  -9   20.89    0.80
  -7  -1  -9    0.08    0.09
  -7  -1  -9    0.03    0.07
  -7  -1  -9    0.16    0.10
   7   1   9    0.14    0.12
  -7   1  -9   -0.02    0.12
  -7   1  -9    0.07    0.08
  -7   1  -9    0.14    0.08
  -8  -1  -9   16.49    0.64
  -8  -1  -9   16.51    0.69
  -8  -1  -9   16.82    0.64
   8   1   9   16.25    0.67
  -8   1  -9   16.96    0.64
  -8   1  -9   17.58    0.64
   9  -1   9   24.14    0.90
  -9  -1  -9   24.50    0.87
   9   1   9   23.50    0.89
  -9   1  -9   23.67    0.87
  -9   1  -9   23.25    0.87
  10  -1   9   17.90    0.65
 -10  -1  -9   15.46    0.66
 -10   1  -9   15.01    0.62
  10   1   9   15.62    0.63
 -10   1  -9   17.70    0.62
  11  -1   9   11.15    0.45
 -11  -1  -9   10.66    0.48
 -11   1  -9   11.20    0.44
  11   1   9   10.70    0.44
 -12  -1  -9    3.52    0.25
  12  -1   9    3.21    0.19
  12   1   9    3.57    0.21
  13  -1   9    6.53    0.27
 -17  -2   9    1.63    0.17
  17   2  -9    1.67    0.15
  17   2  -9    1.75    0.11
  16  -2  -9    4.76    0.23
 -16  -2   9    4.93    0.27
  16   2  -9    4.93    0.24
  16   2  -9    4.67    0.22
  15  -2  -9    8.93    0.38
 -15  -2   9    8.91    0.42
  15   2  -9    9.31    0.38
 -15   2   9    8.16    0.43
  15   2  -9    9.45    0.37
 -14  -2   9    9.35    0.44
  14  -2  -9    9.90    0.41
  14   2  -9    8.47    0.40
  14   2  -9   10.01    0.40
  13  -2  -9    1.79    0.17
  13   2  -9    1.62    0.15
  13   2  -9    1.68    0.19
  12  -2  -9    0.29    0.10
  12  -2  -9    0.26    0.12
  12   2  -9    0.54    0.13
  12   2  -9    0.73    0.17
  11  -2  -9   20.16    0.82
  11  -2  -9   20.51    0.77
  11   2  -9   19.82    0.76
 -11   2   9   20.78    0.80
  11   2  -9   19.65    0.77
  10  -2  -9    6.95    0.37
  10  -2  -9    6.38    0.33
  10   2  -9    7.05    0.36
 -10   2   9    6.67    0.35
  10   2  -9    6.84    0.31
  10   2  -9    5.34    0.32
   9  -2  -9    1.97    0.20
   9  -2  -9    1.90    0.20
   9   2  -9    1.50    0.21
   9   2  -9    1.83    0.19
   9   2  -9    1.63    0.16
   8  -2  -9    2.46    0.23
   8  -2  -9    2.40    0.21
   8   2  -9    2.51    0.18
   8   2  -9    2.43    0.21
   8   2  -9    2.43    0.23
   7  -2  -9    6.29    0.32
   7  -2  -9    5.17    0.34
   7   2  -9    6.60    0.33
   7   2  -9    6.19    0.29
   7   2  -9    6.33    0.34
   6  -2  -9   72.53    2.44
   6  -2  -9   69.45    2.39
   6   2  -9   66.63    2.42
   6   2  -9   70.00    2.39
   5  -2  -9    3.46    0.24
   5  -2  -9    4.35    0.28
  -5  -2   9    4.13    0.25
   5   2  -9    4.39    0.25
   4  -2  -9    2.22    0.20
   4  -2  -9    2.27    0.18
  -4  -2   9    2.36    0.18
   4   2  -9    2.21    0.19
   3  -2  -9    4.74    0.26
   3  -2  -9    4.89    0.26
  -3  -2   9    4.89    0.24
   3   2  -9    4.73    0.27
   2  -2  -9   19.52    0.74
  -2  -2   9   19.41    0.70
   2  -2  -9   19.66    0.73
  -2  -2   9   18.10    0.72
   2   2  -9   19.21    0.73
  -1  -2   9    4.42    0.22
  -1  -2   9    4.43    0.24
   1  -2  -9    4.67    0.25
   1  -2  -9    4.91    0.25
  -1   2   9    4.11    0.25
   0  -2  -9    0.18    0.10
   0  -2  -9   -0.06    0.07
   0  -2   9    0.09    0.07
   0   2   9    0.10    0.12
  -1  -2  -9    5.86    0.27
  -1  -2  -9    6.11    0.29
  -1   2  -9    5.58    0.29
  -1   2  -9    6.20    0.28
  -2  -2  -9    2.52    0.16
  -2  -2  -9    2.07    0.19
  -2  -2  -9    2.51    0.18
  -2   2  -9    2.67    0.23
  -2   2  -9    1.93    0.17
  -2   2  -9    2.03    0.19
  -3  -2  -9    1.97    0.15
  -3  -2  -9    2.19    0.17
  -3  -2  -9    1.90    0.19
  -3   2  -9    1.83    0.22
  -3   2  -9    2.07    0.16
  -3   2  -9    1.84    0.17
  -4  -2  -9    3.20    0.19
  -4  -2  -9    3.02    0.23
  -4  -2  -9    3.13    0.21
  -4   2  -9    3.03    0.20
  -4   2  -9    2.96    0.25
  -4   2  -9    3.14    0.19
  -5  -2  -9    9.58    0.43
  -5  -2  -9    9.60    0.39
  -5  -2  -9    9.30    0.40
  -5   2  -9    8.85    0.42
  -5   2  -9    8.79    0.39
  -5   2  -9    8.87    0.39
  -6  -2  -9   15.77    0.65
  -6  -2  -9   16.34    0.60
  -6  -2  -9   15.18    0.61
  -6   2  -9   15.42    0.61
  -6   2  -9   15.69    0.61
  -7  -2  -9    0.57    0.13
  -7  -2  -9    0.48    0.15
  -7   2  -9    0.53    0.11
  -7   2  -9    0.45    0.13
  -8  -2  -9    2.25    0.20
  -8  -2  -9    2.13    0.16
  -8   2  -9    1.86    0.16
  -8   2  -9    2.01    0.18
  -9  -2  -9    9.20    0.45
  -9   2  -9    9.99    0.41
  -9   2  -9    9.80    0.40
  10  -2   9    1.79    0.16
 -10  -2  -9    1.64    0.18
 -10   2  -9    1.94    0.15
 -10   2  -9    1.57    0.16
 -11  -2  -9    0.20    0.09
  11  -2   9    0.19    0.07
 -11   2  -9    0.18    0.08
  12  -2   9    0.29    0.10
 -12  -2  -9    0.45    0.12
  13  -2   9    0.01    0.05
  16  -3  -9    1.63    0.12
 -16  -3   9    2.01    0.17
  16   3  -9    1.71    0.11
  16   3  -9    1.46    0.13
 -15  -3   9    1.55    0.16
  15  -3  -9    1.24    0.13
  15   3  -9    1.33    0.11
 -14  -3   9   11.52    0.51
  14  -3  -9   12.04    0.48
  14   3  -9   11.76    0.47
  14   3  -9   12.39    0.48
  13  -3  -9    1.71    0.17
 -13  -3   9    1.44    0.18
  13   3  -9    1.63    0.14
  13   3  -9    1.77    0.18
 -12  -3   9    1.06    0.17
  12  -3  -9    1.36    0.16
  12   3  -9    1.07    0.17
  12   3  -9    0.98    0.14
 -12   3   9    1.16    0.20
  11  -3  -9   19.16    0.78
  11  -3  -9   19.44    0.74
 -11   3   9   19.04    0.73
  11   3  -9   19.01    0.73
  11   3  -9   18.96    0.72
  10  -3  -9   51.85    1.79
  10  -3  -9   50.68    1.83
 -10   3   9   50.39    1.78
  10   3  -9   51.28    1.79
  10   3  -9   49.60    1.78
   9  -3  -9   80.30    2.73
   9  -3  -9   78.58    2.78
   9   3  -9   80.53    2.72
   9   3  -9   80.16    2.73
  -9   3   9   76.19    2.72
   8  -3  -9    0.03    0.12
   8  -3  -9    0.14    0.11
   8   3  -9    0.18    0.09
   8   3  -9    0.09    0.09
   7  -3  -9    0.76    0.16
   7  -3  -9    0.68    0.22
   7   3  -9    0.58    0.16
   7   3  -9    0.70    0.17
   6  -3  -9   35.86    1.30
   6   3  -9   35.30    1.27
   6   3  -9   35.29    1.25
   5  -3  -9    0.41    0.13
   5  -3  -9    0.37    0.11
   5   3  -9    0.59    0.15
   5   3  -9    0.54    0.18
   4  -3  -9   66.52    2.32
   4  -3  -9   68.17    2.36
   4   3  -9   68.27    2.34
   4   3  -9   66.95    2.32
   3  -3  -9    0.25    0.09
  -3  -3   9    0.27    0.15
   3  -3  -9    0.40    0.14
   3   3  -9    0.75    0.19
   3   3  -9    0.55    0.16
   2  -3  -9   10.63    0.43
  -2  -3   9   10.80    0.47
   2  -3  -9   11.53    0.47
   2   3  -9   10.78    0.45
   2   3  -9   10.22    0.44
   2   3  -9   10.91    0.47
   1  -3  -9    7.29    0.44
   1  -3  -9    8.48    0.35
   1  -3  -9    9.34    0.39
   1   3  -9    7.98    0.40
   1   3  -9    7.85    0.39
   1   3  -9    8.31    0.39
   1   3  -9    8.58    0.36
   0  -3  -9    0.31    0.19
   0  -3  -9   -0.04    0.08
   0  -3  -9    0.03    0.08
   0   3  -9   -0.01    0.08
   0   3  -9   -0.02    0.11
   0   3  -9    0.11    0.11
   0   3  -9    0.18    0.15
  -1  -3  -9    8.04    0.37
  -1  -3  -9    8.18    0.33
  -1  -3  -9    7.06    0.34
  -1   3  -9    8.13    0.35
  -1   3  -9    6.70    0.40
  -1   3  -9    7.70    0.38
  -1   3  -9    8.06    0.36
  -2  -3  -9   12.50    0.52
  -2  -3  -9   13.59    0.52
  -2  -3  -9   13.61    0.56
  -2   3  -9   13.03    0.53
  -2   3  -9   13.70    0.53
  -2   3  -9   13.75    0.56
  -3  -3  -9   26.45    0.95
  -3  -3  -9   25.32    0.96
  -3  -3  -9   26.33    1.00
  -3   3  -9   26.30    0.99
  -3   3  -9   26.51    0.96
  -3   3  -9   27.41    0.97
  -4  -3  -9    6.86    0.34
  -4  -3  -9    6.42    0.29
  -4  -3  -9    6.19    0.32
  -4   3  -9    7.23    0.31
  -4   3  -9    7.28    0.35
  -4   3  -9    5.38    0.30
  -5  -3  -9    2.94    0.26
  -5  -3  -9    3.12    0.23
  -5   3  -9    3.24    0.21
  -5   3  -9    3.40    0.25
  -5   3  -9    3.50    0.21
  -6  -3  -9    9.07    0.44
  -6   3  -9    9.25    0.40
  -6   3  -9    9.01    0.43
  -6   3  -9    8.80    0.39
  -7  -3  -9    4.46    0.29
  -7   3  -9    5.39    0.26
  -7   3  -9    5.05    0.26
  -8  -3  -9   23.09    0.96
  -8   3  -9   25.64    0.91
  -8   3  -9   25.85    0.91
  -9  -3  -9    0.04    0.08
  -9   3  -9    0.13    0.07
  -9   3  -9    0.08    0.07
  10  -3   9    0.22    0.07
 -10  -3  -9    0.30    0.10
 -10   3  -9    0.31    0.08
 -10   3  -9    0.47    0.10
  11  -3   9   10.67    0.43
 -11  -3  -9   10.86    0.46
 -11   3  -9   10.77    0.41
  12  -3   9    2.74    0.16
 -12  -3  -9    2.57    0.20
 -12   3  -9    2.48    0.16
  16   4  -9    1.12    0.10
  16   4  -9    1.38    0.10
  15  -4  -9    0.42    0.09
  15   4  -9    0.44    0.09
  15   4  -9    0.50    0.08
 -14  -4   9    7.56    0.36
  14  -4  -9    7.29    0.32
  14   4  -9    7.39    0.31
  14   4  -9    7.59    0.32
  13  -4  -9    0.46    0.12
 -13  -4   9    0.16    0.11
  13   4  -9    0.14    0.07
  13   4  -9    0.18    0.07
 -13   4   9    0.16    0.09
 -12  -4   9    0.25    0.11
  12  -4  -9    0.30    0.10
 -12   4   9    0.20    0.09
  12   4  -9    0.39    0.13
  12   4  -9    0.08    0.07
  11  -4  -9    3.00    0.22
 -11  -4   9    2.83    0.24
  11   4  -9    2.91    0.19
  11   4  -9    2.94    0.20
 -11   4   9    2.57    0.20
  10  -4  -9    0.39    0.11
 -10  -4   9    0.46    0.18
  10   4  -9    0.46    0.13
 -10   4   9    0.59    0.14
  -9  -4   9    0.60    0.20
   9  -4  -9    0.44    0.12
  -9   4   9    0.76    0.14
   9   4  -9    0.54    0.13
   9   4  -9    0.83    0.16
   8  -4  -9    8.49    0.44
   8  -4  -9    8.74    0.40
  -8   4   9    8.80    0.38
   8   4  -9    8.82    0.39
   8   4  -9    8.83    0.38
   7  -4  -9   50.45    1.78
   7   4  -9   48.25    1.73
   7   4  -9   50.21    1.75
   6  -4  -9   13.37    0.57
   6   4  -9   13.48    0.52
   6   4  -9   12.70    0.53
   5  -4  -9    3.27    0.24
   5   4  -9    3.03    0.20
   5   4  -9    3.03    0.21
  -5   4   9    2.96    0.21
   4  -4  -9    3.27    0.25
   4   4  -9    3.32    0.22
   4   4  -9    3.65    0.25
  -4   4   9    3.04    0.20
   4   4  -9    3.31    0.21
   3  -4  -9    0.64    0.16
   3   4  -9    0.64    0.16
   3   4  -9    0.96    0.17
  -3   4   9    0.58    0.12
   3   4  -9    0.62    0.15
   2  -4  -9    4.16    0.23
   2  -4  -9    4.33    0.27
   2   4  -9    3.98    0.25
   2   4  -9    3.95    0.24
  -2   4   9    3.94    0.22
   2   4  -9    4.19    0.25
   1  -4  -9   28.22    1.05
   1  -4  -9   27.71    1.01
   1   4  -9   28.16    1.02
   1   4  -9   27.80    1.01
   1   4  -9   27.64    1.02
   1   4  -9   28.33    1.03
   0  -4  -9    1.23    0.15
   0  -4  -9    1.06    0.16
   0   4  -9    0.77    0.18
   0   4  -9    0.91    0.14
   0   4  -9    1.13    0.19
   0   4  -9    0.80    0.17
  -1  -4  -9    0.10    0.09
  -1  -4  -9    0.14    0.10
  -1   4  -9    0.14    0.09
  -1   4  -9    0.07    0.11
  -1   4  -9    0.02    0.10
  -1   4  -9    0.07    0.07
  -2  -4  -9    0.25    0.11
  -2  -4  -9    0.56    0.15
  -2   4  -9    0.08    0.12
  -2   4  -9    0.03    0.10
  -2   4  -9    0.25    0.10
  -2   4  -9    0.19    0.08
  -3  -4  -9    1.19    0.16
  -3  -4  -9    1.43    0.20
  -3   4  -9    1.30    0.17
  -3   4  -9    1.34    0.22
  -3   4  -9    1.26    0.14
  -3   4  -9    0.91    0.16
  -4  -4  -9    8.85    0.41
  -4   4  -9    8.51    0.38
  -4   4  -9    8.68    0.38
  -4   4  -9    8.01    0.40
  -5  -4  -9    8.43    0.42
  -5   4  -9    8.91    0.38
  -5   4  -9    8.61    0.41
  -5   4  -9    8.79    0.39
  -6  -4  -9    0.91    0.16
  -6   4  -9    1.16    0.14
  -6   4  -9    1.11    0.14
  -7  -4  -9    2.08    0.19
   7   4   9    1.96    0.15
  -7   4  -9    1.80    0.16
  -7   4  -9    2.12    0.17
  -8  -4  -9   -0.04    0.08
  -8   4  -9    0.10    0.06
   8   4   9    0.05    0.06
  -8   4  -9    0.19    0.07
  -9  -4  -9    3.65    0.23
  -9   4  -9    3.69    0.19
  -9   4  -9    3.45    0.19
  10  -4   9    0.13    0.06
 -10  -4  -9    0.20    0.09
 -10   4  -9    0.15    0.08
 -10   4  -9    0.14    0.06
 -11  -4  -9    0.93    0.15
  11  -4   9    0.83    0.10
 -11   4  -9    0.87    0.09
  14  -5  -9    1.29    0.12
  14   5  -9    1.32    0.11
  14   5  -9    1.42    0.10
 -14   5   9    1.28    0.15
  13  -5  -9    0.80    0.12
  13   5  -9    0.71    0.10
 -13   5   9    0.69    0.11
  13   5  -9    0.74    0.09
  12  -5  -9   15.71    0.61
  12   5  -9   16.11    0.60
  12   5  -9   16.36    0.61
 -12   5   9   16.12    0.60
  11  -5  -9    1.72    0.17
  11   5  -9    1.92    0.14
  11   5  -9    1.77    0.15
 -11   5   9    1.70    0.15
  10  -5  -9    6.23    0.32
  10   5  -9    7.07    0.32
  10   5  -9    7.15    0.31
 -10   5   9    7.23    0.32
   9  -5  -9    0.76    0.17
  -9   5   9    0.41    0.12
   9   5  -9    0.61    0.12
   9   5  -9    0.46    0.13
   8  -5  -9   -0.11    0.11
   8   5  -9    0.35    0.12
  -8   5   9    0.17    0.08
   8   5  -9    0.12    0.07
  -7   5   9   24.48    0.92
   7   5  -9   26.35    0.94
   7   5  -9   24.32    0.92
  -6   5   9    0.46    0.12
   6   5  -9    0.52    0.13
  -6   5   9    0.56    0.15
   6   5  -9    0.58    0.14
   5   5  -9   10.40    0.44
   5   5  -9   10.04    0.42
  -5   5   9    9.65    0.41
   4   5  -9    0.11    0.09
  -4   5   9    0.10    0.08
   4   5  -9   -0.02    0.10
   4   5  -9    0.11    0.08
   3  -5  -9    5.14    0.33
   3   5  -9    5.23    0.29
  -3   5   9    5.59    0.26
   3   5  -9    5.22    0.28
   3   5  -9    5.49    0.27
   2  -5  -9    0.61    0.21
   2   5  -9    0.41    0.10
   2   5  -9    0.45    0.16
   2   5  -9    0.58    0.14
  -2   5   9    0.48    0.11
   1  -5  -9    0.61    0.20
  -1   5   9    0.83    0.12
   1   5  -9    0.75    0.13
   1   5  -9    0.61    0.16
   1   5  -9    0.50    0.14
   0  -5  -9   27.13    1.00
   0   5  -9   25.61    0.96
   0   5   9   24.19    0.95
   0   5  -9   27.07    0.98
   0   5  -9   26.79    0.96
  -1  -5  -9   27.04    1.01
  -1   5  -9   26.48    0.97
   1   5   9   24.72    0.95
  -1   5  -9   26.94    0.97
  -1   5  -9   26.29    0.98
  -1   5  -9   26.22    0.96
  -2  -5  -9    2.08    0.22
  -2   5  -9    2.51    0.20
  -2   5  -9    2.62    0.19
   2   5   9    2.50    0.17
  -2   5  -9    2.64    0.20
  -2   5  -9    2.50    0.20
  -3  -5  -9    2.84    0.24
  -3   5  -9    3.32    0.23
   3   5   9    3.13    0.19
  -3   5  -9    3.53    0.21
  -3   5  -9    3.30    0.20
  -4  -5  -9    2.12    0.21
  -4   5  -9    2.51    0.18
   4   5   9    2.43    0.17
  -4   5  -9    2.42    0.20
  -4   5  -9    2.76    0.18
  -5  -5  -9   19.00    0.78
  -5   5  -9   20.43    0.78
   5   5   9   20.32    0.74
  -5   5  -9   20.17    0.75
  -5   5  -9   19.63    0.75
  -6  -5  -9    0.33    0.11
   6  -5   9    0.80    0.17
   6   5   9    0.49    0.10
  -6   5  -9    0.67    0.14
  -6   5  -9    0.38    0.09
  -6   5  -9    0.71    0.12
  -7  -5  -9    6.83    0.34
  -7   5  -9    6.52    0.29
   7   5   9    6.58    0.29
  -7   5  -9    6.57    0.30
  -8  -5  -9    4.86    0.27
   8   5   9    4.65    0.22
  -8   5  -9    4.69    0.22
  -8   5  -9    4.51    0.22
  -9  -5  -9    2.61    0.20
  -9   5  -9    2.48    0.14
  -9   5  -9    2.36    0.14
  10  -5   9    0.10    0.05
 -10   5  -9    0.12    0.05
  13   6  -9    0.29    0.08
 -13   6   9    0.45    0.09
  13   6  -9    0.28    0.07
  12  -6  -9    1.68    0.14
 -12   6   9    1.63    0.11
  12   6  -9    1.76    0.11
  12   6  -9    1.70    0.12
  11  -6  -9    0.38    0.09
  11   6  -9    0.39    0.09
  11   6  -9    0.38    0.09
  10  -6  -9    5.47    0.28
 -10   6   9    5.95    0.27
  10   6  -9    6.04    0.26
  10   6  -9    6.40    0.28
   9  -6  -9    0.04    0.10
  -9   6   9   -0.07    0.06
   9   6  -9    0.02    0.06
   9   6  -9    0.02    0.06
   8   6  -9   19.60    0.72
   8   6  -9   18.58    0.70
  -8   6   9   18.59    0.71
   7   6  -9    0.06    0.06
  -7   6   9    0.11    0.07
   7   6  -9    0.34    0.11
  -6   6   9   10.90    0.44
  -6   6   9   10.91    0.45
   6   6  -9   10.81    0.46
   6   6  -9   10.92    0.44
  -5   6   9    0.44    0.12
   5   6  -9    0.23    0.07
  -5   6   9    0.21    0.08
   5   6  -9    0.22    0.08
   4   6  -9    4.03    0.23
   4   6  -9    3.79    0.22
   4   6  -9    3.64    0.23
  -4   6   9    3.75    0.22
  -4   6   9    3.80    0.21
  -3   6   9    0.93    0.12
   3   6  -9    1.23    0.15
  -3   6   9    0.90    0.14
   3   6  -9    1.17    0.14
   3   6  -9    1.22    0.15
   2   6  -9    7.20    0.33
   2   6  -9    7.28    0.35
  -2   6   9    7.31    0.33
  -2   6   9    7.79    0.34
   2   6  -9    7.37    0.34
  -1   6   9    0.65    0.14
  -1   6   9    0.60    0.11
   1   6  -9    0.39    0.10
   1   6  -9    0.61    0.14
   1   6  -9    0.55    0.12
   0   6  -9   14.36    0.58
   0   6   9   14.88    0.57
   0   6  -9   14.77    0.58
   0   6  -9   15.02    0.60
  -1   6  -9    7.65    0.33
  -1   6  -9    7.20    0.35
   1   6   9    7.27    0.32
  -1   6  -9    7.03    0.33
  -2   6  -9   11.94    0.49
  -2   6  -9   12.13    0.50
  -2   6  -9   12.11    0.48
  -3  -6  -9    1.36    0.28
  -3   6  -9    1.23    0.15
   3   6   9    1.07    0.11
  -3   6  -9    1.01    0.13
  -3   6  -9    0.88    0.14
  -4  -6  -9   18.05    0.73
  -4   6  -9   18.51    0.68
  -4   6  -9   18.72    0.70
   4   6   9   18.13    0.68
  -4   6  -9   17.48    0.68
   5  -6   9    6.49    0.30
  -5  -6  -9    6.70    0.37
  -5   6  -9    6.79    0.29
  -5   6  -9    6.61    0.29
  -5   6  -9    6.80    0.31
   5   6   9    6.69    0.29
   6  -6   9    9.63    0.39
  -6  -6  -9    9.47    0.45
   6   6   9    9.66    0.38
  -6   6  -9    9.79    0.38
  -6   6  -9    9.81    0.39
   7   6   9    0.11    0.06
  -7   6  -9    0.07    0.05
  -7   6  -9    0.06    0.05
  -8   6  -9    2.91    0.15
  -8   6  -9    3.15    0.15
  10   7  -9   18.36    0.65
 -10   7   9   17.87    0.64
  10   7  -9   17.94    0.64
  -9   7   9    1.23    0.10
   9   7  -9    1.39    0.11
   9   7  -9    1.17    0.11
   8   7  -9    0.04    0.05
   8   7  -9    0.06    0.05
  -8   7   9    0.02    0.05
   7   7  -9    0.10    0.06
  -7   7   9    0.08    0.06
   7   7  -9    0.05    0.05
   6   7  -9    0.50    0.10
   6   7  -9    0.58    0.11
  -6   7   9    0.49    0.10
  -6   7   9    0.53    0.11
  -5   7   9    0.57    0.10
  -5   7   9    0.53    0.10
   5   7  -9    0.37    0.11
   5   7  -9    0.60    0.11
   4   7  -9   14.26    0.52
  -4   7   9   13.27    0.51
  -4   7   9   13.20    0.52
   4   7  -9   13.40    0.53
   3   7  -9    9.71    0.41
   3   7  -9    9.90    0.39
  -3   7   9    9.35    0.38
  -3   7   9    9.68    0.39
   3   7  -9    9.50    0.39
   2   7  -9    7.37    0.32
   2   7  -9    7.41    0.33
  -2   7   9    7.97    0.33
  -2   7   9    7.57    0.32
   2   7  -9    7.19    0.32
   1   7  -9    4.40    0.22
   1   7  -9    4.04    0.21
   1   7  -9    4.41    0.23
  -1   7   9    4.16    0.21
   0   7  -9    4.76    0.23
   0   7   9    4.56    0.22
   0   7  -9    4.60    0.22
   0   7  -9    4.61    0.24
  -1   7  -9    0.11    0.05
   1   7   9    0.05    0.04
  -1   7  -9   -0.04    0.05
  -2   7  -9    6.45    0.29
  -2   7  -9    6.90    0.30
   2   7   9    6.76    0.28
   3   7   9    0.28    0.07
  -3   7  -9    0.27    0.08
  -3   7  -9    0.54    0.12
  -3   7  -9    0.45    0.10
   4  -7   9    9.06    0.35
  -4   7  -9    8.49    0.34
  -4   7  -9    8.30    0.34
  -4   7  -9    9.05    0.36
   4   7   9    8.70    0.34
   5  -7   9    3.23    0.17
  -5   7  -9    2.79    0.15
  -5   7  -9    3.14    0.15
   5   7   9    2.85    0.15
   6   7   9    4.77    0.19
  -6   7  -9    4.76    0.20
  -6   7  -9    4.32    0.19
   6   8  -9    4.07    0.19
  -6   8   9    4.24    0.18
   5   8  -9    0.11    0.05
   5   8  -9    0.06    0.04
  -5   8   9    0.12    0.06
  -5   8   9   -0.05    0.11
  -4   8   9    1.04    0.09
   4   8  -9    1.00    0.09
  -4   8   9    1.05    0.13
   3   8  -9    1.86    0.12
   3   8  -9    1.93    0.13
  -3   8   9    1.73    0.11
   3   8  -9    1.62    0.11
   2   8  -9    3.70    0.18
   2   8  -9    3.84    0.17
  -2   8   9    3.61    0.17
  -1   8   9    2.86    0.14
   1   8  -9    2.73    0.14
   1   8  -9    2.74    0.15
   0   8   9    1.29    0.09
   0   8  -9    1.38    0.09
   0   8  -9    1.38    0.12
  -1   8  -9    0.01    0.04
  -1   8  -9    0.02    0.06
   1   8   9   -0.01    0.03
   2  -8   9    7.27    0.28
   2   8   9    7.43    0.27
  -2   8  -9    6.33    0.27
 -17   0  10    0.04    0.10
  17   0 -10    0.11    0.05
  16   0 -10    0.35    0.09
  15   0 -10    0.02    0.07
  14   0 -10   28.79    1.04
  13   0 -10    0.04    0.08
  12   0 -10   10.08    0.45
  12   0 -10   11.62    0.53
  11   0 -10    0.07    0.10
  11   0 -10    0.06    0.08
  10   0 -10   36.97    1.41
  10   0 -10   39.11    1.36
   9   0 -10    0.40    0.11
   8   0 -10    7.51    0.37
   8   0 -10    7.47    0.35
   7   0 -10    0.12    0.07
   7   0 -10    0.13    0.12
   6   0 -10   56.77    2.00
   5   0 -10   -0.05    0.07
   4   0 -10   62.10    2.17
   3   0 -10   -0.02    0.07
  -3   0  10    0.05    0.10
  -2   0  10  228.84    7.86
   2   0 -10  238.34    7.89
   1   0 -10    0.15    0.07
  -1   0  10    0.21    0.08
  -1   0 -10    0.01    0.07
  -1   0 -10    0.09    0.08
  -1   0 -10    0.08    0.08
  -2   0 -10   13.48    0.54
  -2   0 -10   14.54    0.54
  -2   0 -10   14.20    0.57
  -3   0 -10    0.04    0.08
  -3   0 -10    0.14    0.07
  -3   0 -10    0.07    0.08
  -4   0 -10    2.12    0.18
  -4   0 -10    1.88    0.17
  -4   0 -10    1.84    0.15
  -5   0 -10   -0.01    0.07
  -5   0 -10    0.13    0.09
  -5   0 -10   -0.09    0.08
   6   0  10   11.14    0.52
  -6   0 -10   12.20    0.48
  -6   0 -10   11.66    0.47
  -6   0 -10   12.40    0.52
  -7   0 -10    0.12    0.11
   7   0  10    0.10    0.11
  -7   0 -10   -0.06    0.07
  -7   0 -10    0.03    0.08
   8   0  10   69.21    2.38
  -8   0 -10   64.76    2.41
  -8   0 -10   69.25    2.37
  -8   0 -10   71.62    2.37
   9   0  10   -0.03    0.09
  -9   0 -10    0.04    0.12
  -9   0 -10    0.12    0.07
  -9   0 -10    0.09    0.09
  10   0  10   13.15    0.53
 -10   0 -10   13.89    0.52
  11   0  10   -0.05    0.07
  12   0  10    0.41    0.15
  17  -1 -10    0.07    0.05
 -17  -1  10    0.07    0.09
  17   1 -10    0.12    0.05
 -16  -1  10    4.91    0.28
  16  -1 -10    4.93    0.23
 -16   1  10    5.16    0.29
  16   1 -10    4.84    0.23
  15  -1 -10    0.43    0.12
 -15  -1  10    0.48    0.15
  15   1 -10    0.45    0.11
  14  -1 -10   45.18    1.55
  14   1 -10   42.72    1.54
  13  -1 -10    3.80    0.23
  13   1 -10    3.91    0.23
  12  -1 -10    0.21    0.10
  12  -1 -10    0.41    0.11
  12   1 -10    0.55    0.13
  12   1 -10    0.08    0.12
  11  -1 -10    7.69    0.36
  11  -1 -10    7.69    0.42
  11   1 -10    7.49    0.40
  11   1 -10    8.05    0.35
  10  -1 -10    3.46    0.22
  10  -1 -10    3.38    0.26
  10   1 -10    3.68    0.26
  10   1 -10    3.58    0.21
   9  -1 -10    0.09    0.09
   9  -1 -10    0.07    0.10
   9   1 -10    0.16    0.10
   9   1 -10    0.16    0.09
   8  -1 -10   39.79    1.42
   8  -1 -10   38.25    1.36
   8   1 -10   37.66    1.35
   8   1 -10   38.01    1.40
   7  -1 -10    0.11    0.14
   7  -1 -10    0.01    0.08
   7  -1 -10    0.08    0.12
   7   1 -10    0.32    0.10
   7   1 -10    0.12    0.10
   6  -1 -10   10.68    0.47
   6   1 -10   11.12    0.47
  -5  -1  10    1.95    0.19
   5  -1 -10    1.61    0.20
   5  -1 -10    1.47    0.16
   5   1 -10    1.44    0.16
  -4  -1  10    1.35    0.16
   4  -1 -10    1.33    0.14
   4  -1 -10    1.34    0.17
   4   1 -10    1.32    0.15
   3  -1 -10    0.91    0.13
  -3  -1  10    0.76    0.18
  -3  -1  10    0.73    0.14
   3   1 -10    0.64    0.14
  -2  -1  10    0.46    0.12
   2  -1 -10    0.31    0.12
  -2  -1  10    0.60    0.12
   2  -1 -10    0.44    0.13
   2   1 -10    0.30    0.12
  -2   1  10    0.37    0.11
   1  -1 -10    2.21    0.17
  -1  -1  10    2.15    0.14
   1   1 -10    2.33    0.18
  -1   1  10    2.11    0.17
   0  -1 -10   12.87    0.52
   0   1 -10   12.52    0.51
  -1  -1 -10    1.31    0.14
  -1  -1 -10    1.01    0.14
  -1  -1 -10    0.93    0.14
  -1   1 -10    1.11    0.14
  -1   1 -10    0.88    0.15
  -1   1 -10    0.99    0.16
  -2  -1 -10   82.84    2.83
  -2  -1 -10   78.97    2.79
  -2  -1 -10   84.86    2.80
  -2   1 -10   82.18    2.80
  -2   1 -10   80.29    2.79
  -2   1 -10   80.91    2.81
  -3  -1 -10    2.52    0.17
  -3  -1 -10    2.58    0.18
  -3  -1 -10    2.62    0.19
  -3   1 -10    2.57    0.17
  -3   1 -10    2.19    0.18
  -3   1 -10    2.28    0.30
  -3   1 -10    2.35    0.21
  -4  -1 -10    1.74    0.16
  -4  -1 -10    1.24    0.15
  -4  -1 -10    1.46    0.14
  -4   1 -10    1.23    0.16
  -5  -1 -10    0.21    0.07
  -5  -1 -10    0.47    0.10
  -5  -1 -10    0.49    0.14
  -5   1 -10    0.28    0.09
  -5   1 -10    0.34    0.09
  -6  -1 -10   35.75    1.28
  -6  -1 -10   33.41    1.23
  -6  -1 -10   35.13    1.23
  -6   1 -10   33.98    1.23
  -7  -1 -10    2.65    0.18
  -7  -1 -10    2.46    0.20
  -7  -1 -10    2.48    0.22
  -7   1 -10    2.63    0.19
  -7   1 -10    2.42    0.18
  -8  -1 -10    1.09    0.13
  -8  -1 -10    1.09    0.17
  -8  -1 -10    1.05    0.18
   8  -1  10    0.84    0.18
  -8   1 -10    0.91    0.14
  -8   1 -10    1.28    0.14
  -9  -1 -10   -0.03    0.07
  -9  -1 -10    0.05    0.09
   9  -1  10    0.04    0.08
  -9   1 -10    0.08    0.08
   9   1  10    0.02    0.16
  -9   1 -10    0.01    0.07
  10  -1  10    2.47    0.18
 -10  -1 -10    2.24    0.21
 -10   1 -10    2.28    0.17
 -10   1 -10    2.33    0.17
 -11  -1 -10    0.19    0.12
  11  -1  10    0.09    0.07
  12  -1  10    0.04    0.06
  17  -2 -10    2.18    0.13
  17   2 -10    2.56    0.13
 -16  -2  10    0.87    0.14
  16  -2 -10    0.67    0.10
  16   2 -10    0.78    0.09
  16   2 -10    0.81    0.14
 -15  -2  10    0.06    0.09
  15  -2 -10    0.05    0.07
  15   2 -10    0.02    0.05
 -15   2  10   -0.10    0.12
  15   2 -10    0.01    0.08
 -14  -2  10    4.76    0.29
  14  -2 -10    4.45    0.25
  14   2 -10    5.01    0.27
  14   2 -10    5.41    0.25
  13  -2 -10   15.06    0.59
  13   2 -10   14.95    0.60
  13   2 -10   15.14    0.58
  12  -2 -10   48.34    1.69
  12  -2 -10   45.77    1.75
  12   2 -10   50.80    1.70
  12   2 -10   47.17    1.68
  11  -2 -10   19.30    0.75
  11  -2 -10   20.01    0.81
  11   2 -10   20.45    0.76
  11   2 -10   19.20    0.74
 -11   2  10   19.34    0.75
  10  -2 -10    0.06    0.11
  10  -2 -10    0.58    0.16
  10   2 -10    0.18    0.11
  10   2 -10    0.47    0.16
  10   2 -10    0.12    0.08
 -10   2  10    0.18    0.12
   9  -2 -10    4.50    0.29
   9  -2 -10    3.78    0.27
   9   2 -10    3.87    0.28
   9   2 -10    4.45    0.24
   9   2 -10    4.45    0.29
   8  -2 -10    0.98    0.21
   8  -2 -10    1.33    0.18
   8   2 -10    1.16    0.15
   8   2 -10    1.43    0.18
   8   2 -10    1.57    0.22
   7  -2 -10    3.62    0.29
   7  -2 -10    3.55    0.22
   7  -2 -10    4.03    0.25
   7   2 -10    3.82    0.25
   7   2 -10    3.45    0.22
   7   2 -10    3.66    0.27
   6  -2 -10   71.27    2.51
   6  -2 -10   75.82    2.57
   6   2 -10   77.35    2.55
   6   2 -10   71.17    2.51
   6   2 -10   70.02    2.52
   5  -2 -10   10.15    0.44
   5  -2 -10    9.50    0.40
   5   2 -10    8.88    0.41
   5   2 -10    9.57    0.42
  -4  -2  10    0.67    0.19
   4  -2 -10    0.95    0.14
   4  -2 -10    1.07    0.15
   4   2 -10    1.14    0.17
  -3  -2  10   39.59    1.36
   3  -2 -10   38.09    1.38
   3  -2 -10   37.65    1.34
   3  -2 -10   38.16    1.38
   3   2 -10   37.60    1.37
  -2  -2  10   30.21    1.08
   2  -2 -10   29.56    1.11
   2  -2 -10   29.63    1.07
   2  -2 -10   29.90    1.10
   2   2 -10   31.49    1.10
   1  -2 -10   13.04    0.56
   1  -2 -10   14.13    0.53
   1  -2 -10   14.70    0.57
   1  -2 -10   13.19    0.53
   1   2 -10   13.61    0.53
   0  -2 -10    8.82    0.36
   0  -2 -10    8.86    0.37
   0  -2 -10    9.04    0.40
   0   2 -10    8.52    0.38
   0   2 -10    8.65    0.37
  -1  -2 -10  105.24    3.55
  -1  -2 -10  100.81    3.59
  -1  -2 -10  104.91    3.55
  -1   2 -10  108.09    3.56
  -1   2 -10  103.09    3.58
  -1   2 -10  104.47    3.56
  -2  -2 -10   13.20    0.52
  -2  -2 -10   13.37    0.55
  -2  -2 -10   13.50    0.52
  -2   2 -10   13.42    0.56
  -2   2 -10   13.37    0.53
  -2   2 -10   13.41    0.52
  -3  -2 -10    0.16    0.09
  -3  -2 -10    0.11    0.07
  -3  -2 -10    0.22    0.10
  -3   2 -10    0.13    0.08
  -3   2 -10    0.22    0.12
  -3   2 -10    0.02    0.08
  -4  -2 -10   21.75    0.81
  -4  -2 -10   22.69    0.86
  -4  -2 -10   21.73    0.80
  -4   2 -10   21.79    0.81
  -4   2 -10   21.79    0.81
  -4   2 -10   21.28    0.84
  -5  -2 -10    0.08    0.07
  -5  -2 -10    0.17    0.08
  -5  -2 -10    0.03    0.09
  -5   2 -10    0.03    0.10
  -5   2 -10    0.45    0.14
  -5   2 -10    0.06    0.07
  -6  -2 -10   14.75    0.62
  -6  -2 -10   14.49    0.57
  -6  -2 -10   14.45    0.56
  -6   2 -10   14.65    0.57
  -6   2 -10   14.16    0.57
  -7  -2 -10    4.20    0.22
  -7  -2 -10    3.42    0.36
  -7  -2 -10    4.07    0.27
  -7   2 -10    4.56    0.24
  -7   2 -10    4.31    0.23
  -8  -2 -10    1.41    0.18
  -8   2 -10    1.78    0.16
  -8   2 -10    1.79    0.15
   9  -2  10    5.62    0.29
  -9  -2 -10    5.43    0.31
  -9   2 -10    6.08    0.27
  -9   2 -10    4.96    0.26
  10  -2  10    2.78    0.19
 -10  -2 -10    2.70    0.21
 -10   2 -10    2.98    0.17
 -10   2 -10    2.79    0.17
 -11  -2 -10    0.91    0.16
  11  -2  10    0.83    0.12
 -11   2 -10    0.86    0.12
  12  -2  10    2.25    0.14
 -16  -3  10    2.50    0.19
  16  -3 -10    2.42    0.14
  16   3 -10    2.50    0.15
  16   3 -10    2.61    0.14
  15  -3 -10    3.79    0.20
 -15  -3  10    3.66    0.23
  15   3 -10    3.80    0.19
  15   3 -10    3.48    0.20
  14  -3 -10    0.82    0.13
 -14  -3  10    0.99    0.16
  14   3 -10    1.08    0.12
  14   3 -10    1.06    0.14
 -13  -3  10    0.05    0.09
  13  -3 -10   -0.07    0.08
  13   3 -10   -0.01    0.06
  13   3 -10    0.01    0.08
  12  -3 -10    0.14    0.14
  12  -3 -10    0.20    0.09
  12   3 -10    0.21    0.09
 -12   3  10    0.10    0.11
  12   3 -10    0.15    0.07
  11  -3 -10    4.19    0.26
  11  -3 -10    3.92    0.30
 -11   3  10    4.30    0.25
  11   3 -10    4.07    0.23
  11   3 -10    4.44    0.26
  10  -3 -10    1.51    0.22
  10  -3 -10    1.42    0.19
  10   3 -10    1.65    0.19
 -10   3  10    1.23    0.18
  10   3 -10    1.25    0.15
   9  -3 -10   16.32    0.69
   9  -3 -10   16.87    0.66
   9   3 -10   16.92    0.64
   9   3 -10   16.59    0.65
   8  -3 -10    3.83    0.28
   8  -3 -10    3.81    0.27
   8   3 -10    3.68    0.25
   8   3 -10    3.58    0.22
   7  -3 -10    4.72    0.29
   7   3 -10    4.69    0.25
   7   3 -10    4.04    0.29
   7   3 -10    4.89    0.27
   6  -3 -10   17.44    0.68
   6  -3 -10   18.79    0.73
   6   3 -10   17.56    0.68
   6   3 -10   18.56    0.70
   5  -3 -10    4.13    0.22
   5  -3 -10    3.75    0.25
   5   3 -10    3.71    0.22
  -5   3  10    3.54    0.24
   5   3 -10    3.69    0.25
   4  -3 -10    1.25    0.15
   4   3 -10    1.33    0.20
   4   3 -10    1.14    0.17
   3  -3 -10   18.29    0.67
   3  -3 -10   18.16    0.72
   3   3 -10   18.66    0.70
   3   3 -10   17.48    0.68
   3   3 -10   17.47    0.68
   2  -3 -10    0.27    0.09
   2  -3 -10    0.32    0.10
   2   3 -10    0.05    0.14
   2   3 -10    0.26    0.11
   2   3 -10    0.65    0.20
   2   3 -10    0.21    0.10
   1  -3 -10    0.28    0.09
   1  -3 -10    0.13    0.09
   1   3 -10   -0.05    0.10
   1   3 -10    0.00    0.11
   1   3 -10    0.11    0.08
   1   3 -10    0.14    0.14
   0  -3 -10    1.13    0.16
   0  -3 -10    1.19    0.15
   0   3 -10    1.16    0.14
   0   3 -10    0.86    0.18
   0   3 -10    1.33    0.21
   0   3 -10    0.98    0.29
  -1  -3 -10    1.85    0.15
  -1  -3 -10    1.91    0.17
  -1  -3 -10    1.75    0.18
  -1   3 -10    1.92    0.16
  -1   3 -10    2.01    0.18
  -1   3 -10    1.43    0.21
  -2  -3 -10   23.66    0.89
  -2  -3 -10   25.36    0.94
  -2  -3 -10   24.80    0.89
  -2   3 -10   24.00    0.92
  -2   3 -10   23.84    0.90
  -2   3 -10   24.53    0.90
  -3  -3 -10   32.09    1.18
  -3  -3 -10   33.96    1.23
  -3  -3 -10   33.23    1.18
  -3   3 -10   32.32    1.18
  -3   3 -10   33.53    1.19
  -4  -3 -10    0.24    0.10
  -4  -3 -10    0.19    0.10
  -4   3 -10    0.25    0.09
  -4   3 -10    0.34    0.11
  -4   3 -10    0.22    0.09
  -5  -3 -10   14.22    0.59
  -5  -3 -10   13.30    0.53
  -5   3 -10   13.63    0.57
  -5   3 -10   13.58    0.54
  -5   3 -10   12.93    0.54
  -6  -3 -10    9.58    0.48
  -6   3 -10   10.89    0.44
  -6   3 -10   11.05    0.44
  -7  -3 -10    7.77    0.40
  -7   3 -10    8.13    0.36
  -7   3 -10    8.79    0.37
  -8  -3 -10    0.17    0.09
  -8   3 -10    0.26    0.07
  -8   3 -10    0.19    0.07
  -9  -3 -10    0.01    0.08
  -9   3 -10    0.10    0.07
  -9   3 -10    0.17    0.07
  10  -3  10    0.33    0.11
 -10  -3 -10    0.05    0.08
 -10   3 -10   -0.05    0.07
 -10   3 -10    0.09    0.06
  11  -3  10    2.26    0.14
 -11  -3 -10    2.24    0.19
 -11   3 -10    1.96    0.13
  12  -3  10    0.04    0.05
  15  -4 -10    0.78    0.10
  15   4 -10    0.78    0.08
  15   4 -10    0.59    0.10
  14  -4 -10    0.47    0.11
 -14  -4  10    0.63    0.18
  14   4 -10    0.64    0.11
  14   4 -10    0.87    0.10
 -13  -4  10    0.68    0.18
  13  -4 -10    0.79    0.13
  13   4 -10    0.70    0.12
  13   4 -10    0.85    0.11
 -13   4  10    0.52    0.14
  12  -4 -10    0.43    0.14
 -12  -4  10    0.48    0.19
  12   4 -10    0.16    0.07
 -12   4  10    0.29    0.09
  12   4 -10    0.15    0.07
 -11  -4  10    0.61    0.19
  11  -4 -10    0.27    0.10
  11   4 -10    0.31    0.08
  11   4 -10    0.24    0.08
 -11   4  10    0.30    0.09
  10  -4 -10    3.03    0.23
 -10  -4  10    3.06    0.27
 -10   4  10    3.17    0.21
  10   4 -10    3.31    0.21
  10   4 -10    3.16    0.20
   9  -4 -10    3.17    0.31
   9  -4 -10    2.73    0.25
  -9  -4  10    3.09    0.28
   9   4 -10    3.27    0.20
  -9   4  10    3.49    0.21
   9   4 -10    3.28    0.21
   8  -4 -10    1.09    0.23
   8   4 -10    1.32    0.16
   8   4 -10    1.73    0.16
   7  -4 -10    4.38    0.31
   7   4 -10    4.89    0.25
   7   4 -10    4.51    0.26
   6  -4 -10   49.65    1.75
   6   4 -10   47.08    1.70
   6   4 -10   48.80    1.72
   5  -4 -10    0.27    0.11
   5   4 -10    0.07    0.08
  -5   4  10    0.02    0.08
   5   4 -10    0.09    0.08
   4  -4 -10   20.44    0.75
   4   4 -10   16.92    0.70
  -4   4  10   19.01    0.68
   4   4 -10   18.50    0.70
   4   4 -10   16.47    0.68
   3  -4 -10    6.21    0.28
   3  -4 -10    5.93    0.32
   3   4 -10    5.46    0.29
   3   4 -10    5.46    0.29
   3   4 -10    5.55    0.30
  -3   4  10    5.26    0.27
   2  -4 -10   16.52    0.66
   2  -4 -10   15.67    0.60
   2   4 -10   14.98    0.61
   2   4 -10   15.62    0.63
   2   4 -10   15.57    0.61
   1  -4 -10   34.75    1.25
   1  -4 -10   33.67    1.19
   1   4 -10   30.31    1.19
   1   4 -10   35.84    1.21
   1   4 -10   32.96    1.20
   0  -4 -10   12.71    0.57
   0  -4 -10   15.71    0.63
   0   4 -10   14.89    0.59
   0   4 -10   15.31    0.59
   0   4 -10   15.34    0.59
   0   4 -10   15.16    0.61
  -1  -4 -10   14.36    0.56
  -1  -4 -10   14.52    0.61
  -1   4 -10   14.60    0.57
  -1   4 -10   14.17    0.57
  -1   4 -10   13.84    0.57
  -1   4 -10   14.31    0.59
  -2  -4 -10    4.25    0.27
  -2  -4 -10    4.20    0.25
  -2   4 -10    4.13    0.23
  -2   4 -10    3.80    0.26
  -2   4 -10    3.87    0.24
  -3  -4 -10    0.01    0.11
  -3  -4 -10   -0.01    0.09
  -3   4 -10    0.00    0.08
  -3   4 -10    0.02    0.07
  -3   4 -10   -0.06    0.08
  -4  -4 -10    9.28    0.45
  -4  -4 -10    9.49    0.41
  -4   4 -10   10.20    0.42
  -4   4 -10    9.60    0.44
  -5  -4 -10    4.94    0.31
  -5   4 -10    5.64    0.28
  -5   4 -10    5.70    0.28
  -5   4 -10    5.85    0.31
  -6  -4 -10   15.28    0.67
  -6   4 -10   17.53    0.67
  -6   4 -10   16.85    0.64
  -6   4 -10   16.34    0.63
  -7  -4 -10   12.45    0.55
  -7   4 -10   13.77    0.52
   7   4  10   12.71    0.50
  -7   4 -10   12.78    0.51
  -8  -4 -10    0.44    0.14
  -8   4 -10    0.28    0.07
   8   4  10    0.33    0.10
  -8   4 -10    0.41    0.10
  -9  -4 -10    0.12    0.09
  -9   4 -10    0.16    0.06
  -9   4 -10    0.12    0.06
  10  -4  10    1.27    0.11
 -10  -4 -10    1.21    0.16
 -10   4 -10    1.34    0.10
  11  -4  10    3.52    0.17
 -11   4 -10    3.41    0.16
  14  -5 -10    0.70    0.11
  14   5 -10    0.54    0.08
  14   5 -10    0.36    0.09
  13  -5 -10    4.87    0.23
  13   5 -10    4.63    0.23
 -13   5  10    4.89    0.22
  13   5 -10    5.09    0.22
  12  -5 -10    0.19    0.08
  12   5 -10    0.12    0.05
  12   5 -10    0.37    0.09
 -12   5  10    0.19    0.07
  11  -5 -10    4.24    0.24
 -11   5  10    4.40    0.22
  11   5 -10    4.41    0.22
  11   5 -10    4.25    0.23
  10  -5 -10    0.07    0.10
 -10   5  10    0.07    0.07
  10   5 -10   -0.06    0.06
  10   5 -10    0.06    0.06
  -9   5  10    4.94    0.26
   9   5 -10    4.94    0.26
   9   5 -10    4.60    0.25
  -8   5  10    0.69    0.13
   8   5 -10    0.67    0.12
   8   5 -10    0.85    0.14
   7   5 -10   43.12    1.51
  -7   5  10   41.17    1.50
   7   5 -10   42.44    1.49
   6   5 -10   43.14    1.52
  -6   5  10   41.82    1.49
   6   5 -10   42.45    1.50
   5   5 -10    9.22    0.41
  -5   5  10    9.54    0.39
   5   5 -10    8.92    0.40
   4  -5 -10    6.45    0.37
   4   5 -10    6.19    0.32
  -4   5  10    6.60    0.30
   4   5 -10    6.09    0.31
   3  -5 -10   35.99    1.33
  -3   5  10   35.67    1.28
   3   5 -10   35.91    1.30
   3   5 -10   36.79    1.29
   3   5 -10   36.10    1.29
   2  -5 -10    2.44    0.25
   2   5 -10    2.78    0.20
   2   5 -10    2.82    0.20
  -2   5  10    2.63    0.17
   2   5 -10    2.63    0.21
  -1   5  10    0.55    0.11
   1   5 -10    0.57    0.14
   1   5 -10    0.47    0.13
   1   5 -10    0.55    0.16
   0  -5 -10    1.36    0.21
   0   5  10    1.67    0.14
   0   5 -10    1.46    0.18
   0   5 -10    1.35    0.15
   0   5 -10    1.72    0.18
  -1  -5 -10    0.04    0.10
   1   5  10    0.11    0.06
  -1   5 -10    0.13    0.07
  -1   5 -10    0.04    0.08
  -1   5 -10    0.26    0.10
  -2  -5 -10    0.98    0.18
  -2   5 -10    1.02    0.18
   2   5  10    1.05    0.12
  -2   5 -10    1.29    0.14
  -2   5 -10    1.25    0.16
  -2   5 -10    1.00    0.16
  -3  -5 -10   16.61    0.72
   3   5  10   17.91    0.68
  -3   5 -10   18.76    0.71
  -3   5 -10   17.98    0.69
  -3   5 -10   18.65    0.69
  -4  -5 -10    1.72    0.20
  -4   5 -10    1.76    0.19
  -4   5 -10    1.46    0.15
  -4   5 -10    1.57    0.15
   4   5  10    1.83    0.14
  -5  -5 -10   18.27    0.77
   5  -5  10   18.68    0.73
  -5   5 -10   20.16    0.76
  -5   5 -10   20.13    0.73
  -5   5 -10   20.16    0.73
   5   5  10   19.52    0.72
  -6  -5 -10    7.05    0.36
  -6   5 -10    6.95    0.31
  -6   5 -10    7.08    0.31
  -6   5 -10    7.46    0.34
   6   5  10    6.93    0.30
  -7  -5 -10    3.78    0.25
  -7   5 -10    3.79    0.19
   7   5  10    3.78    0.19
  -7   5 -10    3.65    0.19
  -8  -5 -10    8.83    0.39
  -8   5 -10    8.57    0.34
   8   5  10    8.21    0.33
  -8   5 -10    8.26    0.34
   9  -5  10    1.71    0.13
  -9   5 -10    1.65    0.12
  -9   5 -10    1.83    0.11
 -12   6  10    2.10    0.12
  12   6 -10    2.05    0.12
  12   6 -10    2.09    0.13
  11   6 -10    0.03    0.05
  11   6 -10    0.06    0.05
 -11   6  10   -0.01    0.05
  10   6 -10    0.27    0.07
  10   6 -10    0.16    0.06
 -10   6  10    0.12    0.06
   9   6 -10    5.93    0.26
   9   6 -10    5.82    0.27
  -9   6  10    5.75    0.26
   8   6 -10    2.26    0.16
  -8   6  10    2.26    0.16
   8   6 -10    2.12    0.15
  -7   6  10    3.60    0.20
   7   6 -10    3.47    0.20
   7   6 -10    3.34    0.20
  -6   6  10    5.54    0.27
  -6   6  10    5.88    0.28
   6   6 -10    5.86    0.28
   6   6 -10    5.86    0.29
  -5   6  10    8.00    0.35
   5   6 -10    8.10    0.36
  -5   6  10    7.87    0.34
   5   6 -10    7.86    0.35
  -4   6  10    0.14    0.06
   4   6 -10    0.19    0.09
   4   6 -10    0.17    0.07
   4   6 -10    0.19    0.08
  -4   6  10    0.26    0.08
  -3   6  10    1.78    0.14
  -3   6  10    1.61    0.16
   3   6 -10    2.16    0.16
   3   6 -10    1.75    0.17
   3   6 -10    1.88    0.17
   2   6 -10    2.75    0.20
   2   6 -10    2.61    0.18
   2   6 -10    2.51    0.19
  -2   6  10    2.65    0.18
  -2   6  10    2.60    0.17
   1   6 -10    2.76    0.19
   1   6 -10    2.78    0.19
  -1   6  10    2.80    0.18
   1   6 -10    3.22    0.21
   0   6 -10    0.31    0.08
   0   6 -10    0.53    0.14
   0   6  10    0.24    0.07
   0   6 -10    0.57    0.12
  -1   6 -10    4.01    0.23
  -1   6 -10    4.68    0.24
  -1   6 -10    4.56    0.25
   1   6  10    4.59    0.22
  -2   6 -10    0.08    0.06
   2   6  10    0.08    0.05
  -2   6 -10    0.11    0.08
  -2   6 -10    0.05    0.07
  -3  -6 -10   22.66    0.92
   3   6  10   23.56    0.87
  -3   6 -10   23.18    0.87
  -3   6 -10   25.75    0.87
  -3   6 -10   24.89    0.89
  -4  -6 -10   -0.06    0.15
   4   6  10    0.08    0.05
  -4   6 -10    0.30    0.10
  -4   6 -10    0.11    0.06
  -4   6 -10    0.03    0.05
  -5  -6 -10    0.21    0.15
   5  -6  10    0.27    0.10
  -5   6 -10    0.17    0.06
   5   6  10    0.12    0.05
  -5   6 -10    0.21    0.05
  -5   6 -10    0.21    0.06
  -6   6 -10    3.06    0.16
  -6   6 -10    3.30    0.17
   6   6  10    3.38    0.16
  -7   6 -10    3.13    0.15
   7   6  10    3.06    0.15
  -7   6 -10    2.88    0.15
  -8   6 -10    3.16    0.14
  -8   6 -10    2.92    0.15
 -10   7  10   -0.02    0.04
  10   7 -10    0.00    0.05
   9   7 -10    2.07    0.13
  -9   7  10    2.31    0.12
   9   7 -10    2.08    0.12
  -8   7  10    0.00    0.05
   8   7 -10   -0.05    0.05
   8   7 -10    0.02    0.05
   7   7 -10    2.15    0.15
  -7   7  10    2.15    0.14
   7   7 -10    2.37    0.14
  -6   7  10    4.46    0.21
  -6   7  10    4.32    0.21
   6   7 -10    4.60    0.22
   6   7 -10    4.64    0.21
   5   7 -10    5.76    0.25
  -5   7  10    5.46    0.24
  -5   7  10    5.63    0.25
   5   7 -10    5.42    0.26
   4   7 -10    1.40    0.13
   4   7 -10    1.43    0.13
  -4   7  10    1.59    0.13
  -4   7  10    1.46    0.12
   3   7 -10    8.11    0.33
  -3   7  10    7.73    0.32
   3   7 -10    7.92    0.33
   3   7 -10    8.21    0.35
  -3   7  10    8.28    0.34
   2   7 -10    2.04    0.14
  -2   7  10    2.00    0.15
   2   7 -10    2.07    0.14
   2   7 -10    2.05    0.15
  -2   7  10    1.71    0.13
   1   7 -10   14.78    0.57
   1   7 -10   14.59    0.56
   1   7 -10   15.23    0.56
  -1   7  10   14.64    0.55
   0   7 -10    8.65    0.36
   0   7 -10    8.44    0.35
   0   7  10    8.48    0.34
  -1   7 -10    0.29    0.08
   1   7  10    0.27    0.07
  -1   7 -10    0.14    0.06
  -2   7 -10    0.32    0.08
  -2   7 -10    0.31    0.10
  -3   7 -10    1.73    0.11
  -3   7 -10    1.97    0.14
   3   7  10    1.82    0.11
   4  -7  10    1.50    0.13
  -4   7 -10    1.43    0.12
  -4   7 -10    1.28    0.09
  -4   7 -10    1.45    0.12
   4   7  10    1.50    0.10
  -5   7 -10   -0.03    0.04
  -5   7 -10   -0.08    0.06
   5   7  10    0.03    0.04
  -4   8  10    2.11    0.15
   3   8 -10    0.06    0.04
  -3   8  10   -0.02    0.04
  -2   8  10    0.92    0.08
   1   8 -10    0.70    0.08
   1   8 -10    0.85    0.10
  -1   8  10    0.73    0.07
   0   8 -10    3.19    0.14
   0   8  10    3.19    0.14
  17   0 -11    0.41    0.08
 -17   0  11    0.44    0.15
  16   0 -11    0.02    0.05
 -16   0  11    0.02    0.10
  15   0 -11   10.83    0.44
  14   0 -11    0.07    0.07
  13   0 -11    0.70    0.14
  12   0 -11    0.04    0.08
  12   0 -11    0.09    0.09
  11   0 -11   58.44    2.10
  11   0 -11   57.56    2.02
  10   0 -11    0.09    0.09
  10   0 -11    0.11    0.09
   9   0 -11   22.88    0.85
   9   0 -11   23.33    0.91
   8   0 -11   -0.11    0.11
   8   0 -11   -0.01    0.09
   7   0 -11    2.26    0.23
   7   0 -11    2.18    0.19
   6   0 -11    0.07    0.07
   5   0 -11   11.59    0.49
   4   0 -11   -0.02    0.07
   3   0 -11    0.40    0.12
   2   0 -11    0.08    0.08
   2   0 -11    0.11    0.09
   1   0 -11   32.53    1.18
   1   0 -11   33.07    1.18
   1   0 -11   34.98    1.22
   0   0 -11   -0.02    0.07
   0   0 -11   -0.10    0.07
   0   0 -11    0.04    0.07
  -1   0 -11   39.61    1.45
  -1   0 -11   42.01    1.42
  -1   0 -11   39.64    1.41
  -2   0 -11    0.00    0.07
  -2   0 -11   -0.05    0.08
  -2   0 -11    0.02    0.09
  -3   0 -11    1.18    0.14
  -3   0 -11    1.30    0.17
  -3   0 -11    0.76    0.12
  -4   0 -11    0.11    0.08
  -4   0 -11    0.08    0.07
  -4   0 -11    0.01    0.09
  -5   0 -11    2.41    0.19
  -5   0 -11    2.73    0.18
  -5   0 -11    2.65    0.22
  -6   0 -11    0.03    0.10
  -6   0 -11    0.09    0.08
  -6   0 -11   -0.03    0.07
   7   0  11   17.58    0.71
  -7   0 -11   19.03    0.69
  -7   0 -11   17.63    0.73
  -7   0 -11   18.37    0.69
  -8   0 -11    0.03    0.08
   8   0  11   -0.03    0.11
  -8   0 -11    0.08    0.12
  -8   0 -11    0.02    0.06
   9   0  11   10.57    0.45
  -9   0 -11   10.40    0.42
  -9   0 -11   10.53    0.42
  10   0  11   -0.01    0.09
 -10   0 -11   -0.06    0.07
 -17  -1  11    1.54    0.17
  17  -1 -11    1.57    0.11
  17   1 -11    1.44    0.10
  16  -1 -11    2.04    0.14
 -16  -1  11    1.98    0.18
  16   1 -11    1.97    0.13
 -16   1  11    2.56    0.21
  15  -1 -11    5.18    0.25
  15   1 -11    5.15    0.24
  14  -1 -11    0.86    0.13
  14   1 -11    0.72    0.12
  13  -1 -11   16.85    0.63
  13  -1 -11   14.79    0.69
  13   1 -11   17.16    0.63
  12  -1 -11   11.64    0.56
  12  -1 -11   12.97    0.50
  12   1 -11   12.29    0.49
  12   1 -11   11.04    0.55
  11  -1 -11   10.10    0.45
  11  -1 -11   10.82    0.52
  11   1 -11   10.73    0.45
  11   1 -11   10.90    0.51
  10  -1 -11    1.25    0.19
  10  -1 -11    1.24    0.17
  10   1 -11    1.50    0.15
   9  -1 -11    7.26    0.35
   9  -1 -11    7.25    0.38
   9   1 -11    6.63    0.32
   9   1 -11    7.35    0.37
   8  -1 -11    0.93    0.21
   8  -1 -11    0.49    0.15
   8  -1 -11    0.44    0.13
   8   1 -11    0.57    0.14
   8   1 -11    0.59    0.12
   7  -1 -11    3.10    0.22
   7  -1 -11    2.99    0.24
   7   1 -11    2.88    0.22
   7   1 -11    2.82    0.22
   6  -1 -11    6.13    0.29
   6  -1 -11    5.53    0.30
   6   1 -11    5.77    0.30
   6   1 -11    5.32    0.30
   5  -1 -11   17.98    0.70
   5  -1 -11   16.50    0.65
   5   1 -11   17.50    0.68
   4  -1 -11    5.39    0.27
  -4  -1  11    5.52    0.33
   4  -1 -11    5.82    0.34
   4  -1 -11    5.84    0.30
   4   1 -11    5.85    0.29
   3  -1 -11    0.09    0.09
   3  -1 -11   -0.01    0.13
  -3  -1  11    0.25    0.12
   3  -1 -11    0.04    0.07
   3   1 -11    0.16    0.09
   2  -1 -11    1.55    0.16
   2  -1 -11    0.97    0.22
  -2  -1  11    1.30    0.22
   2   1 -11    1.02    0.17
   2   1 -11    1.52    0.16
   1  -1 -11    0.94    0.14
   1  -1 -11    1.07    0.13
   1  -1 -11    0.83    0.13
   1   1 -11    0.94    0.15
   1   1 -11    0.62    0.15
   1   1 -11    0.79    0.15
   0  -1 -11   23.03    0.84
   0  -1 -11   23.34    0.84
   0  -1 -11   23.18    0.88
   0   1 -11   23.02    0.85
   0   1 -11   23.60    0.85
  -1  -1 -11   61.07    2.16
  -1  -1 -11   62.29    2.12
  -1  -1 -11   61.97    2.12
  -1   1 -11   62.86    2.12
  -1   1 -11   61.21    2.14
  -1   1 -11   59.37    2.12
  -2  -1 -11   53.74    1.86
  -2  -1 -11   54.89    1.87
  -2  -1 -11   54.63    1.91
  -2   1 -11   52.30    1.89
  -2   1 -11   52.92    1.86
  -2   1 -11   53.94    1.87
  -3  -1 -11   16.51    0.64
  -3  -1 -11   17.03    0.68
  -3  -1 -11   17.67    0.64
  -3   1 -11   16.37    0.64
  -3   1 -11   17.13    0.64
  -4  -1 -11    6.05    0.28
  -4  -1 -11    6.55    0.32
  -4  -1 -11    5.14    0.27
  -4   1 -11    5.85    0.28
  -4   1 -11    5.18    0.28
  -5  -1 -11   10.64    0.45
  -5  -1 -11   10.89    0.49
  -5  -1 -11   11.02    0.45
  -5   1 -11   11.33    0.45
  -5   1 -11   10.82    0.45
  -6  -1 -11   11.39    0.46
  -6  -1 -11   11.74    0.51
  -6  -1 -11   11.42    0.46
  -6   1 -11   11.05    0.47
  -6   1 -11   11.51    0.47
  -7  -1 -11   19.41    0.81
  -7  -1 -11   20.55    0.76
   7  -1  11   21.09    0.79
  -7  -1 -11   21.19    0.77
  -7   1 -11   20.63    0.77
  -7   1 -11   20.69    0.77
  -8  -1 -11    3.66    0.20
  -8  -1 -11    3.38    0.25
  -8  -1 -11    3.32    0.22
   8  -1  11    3.54    0.23
  -8   1 -11    3.25    0.20
  -8   1 -11    3.75    0.21
   9  -1  11    6.49    0.32
  -9  -1 -11    6.65    0.29
  -9  -1 -11    6.91    0.35
  -9   1 -11    6.85    0.30
  -9   1 -11    6.83    0.30
 -10  -1 -11    0.19    0.12
  10  -1  11    0.14    0.08
 -10   1 -11    0.08    0.07
 -10   1 -11    0.07    0.07
  11  -1  11    0.84    0.13
 -11  -1 -11    0.42    0.20
  17  -2 -11    0.13    0.05
  17   2 -11    0.14    0.05
 -16  -2  11   10.51    0.45
  16  -2 -11   10.71    0.41
  16   2 -11   10.50    0.40
 -15  -2  11    0.04    0.08
  15  -2 -11   -0.01    0.06
  15   2 -11    0.07    0.06
  15   2 -11    0.07    0.09
  14  -2 -11    0.48    0.12
  14   2 -11    0.46    0.10
  14   2 -11    0.45    0.16
  13  -2 -11   17.83    0.67
  13   2 -11   17.52    0.67
  13   2 -11   17.38    0.68
  12  -2 -11    5.13    0.27
  12  -2 -11    4.59    0.33
  12   2 -11    5.14    0.26
  12   2 -11    5.13    0.30
  11  -2 -11   22.79    0.94
  11  -2 -11   23.74    0.87
  11   2 -11   22.90    0.86
 -11   2  11   23.44    0.87
  11   2 -11   24.16    0.88
  10  -2 -11    2.30    0.24
  10   2 -11    2.67    0.23
  10   2 -11    2.68    0.24
  10   2 -11    2.57    0.18
   9  -2 -11    0.58    0.19
   9   2 -11    0.70    0.15
   9   2 -11    0.56    0.20
   9   2 -11    0.97    0.18
   8  -2 -11   14.64    0.62
   8  -2 -11   16.36    0.66
   8   2 -11   14.93    0.63
   8   2 -11   15.64    0.60
   8   2 -11   16.17    0.65
   7  -2 -11   10.08    0.47
   7  -2 -11    9.49    0.42
   7   2 -11    9.42    0.42
   7   2 -11   11.65    0.47
   7   2 -11   10.13    0.46
   6  -2 -11   11.80    0.47
   6  -2 -11   11.12    0.51
   6   2 -11   12.07    0.48
   6   2 -11   11.71    0.50
   6   2 -11   10.99    0.50
   5  -2 -11    9.40    0.43
   5  -2 -11    9.01    0.38
   5   2 -11    8.61    0.44
   5   2 -11    9.36    0.42
   5   2 -11    8.55    0.40
   4  -2 -11    1.44    0.15
   4  -2 -11    1.44    0.16
   4   2 -11    1.06    0.18
   4   2 -11    1.00    0.22
   4   2 -11    1.14    0.28
   3  -2 -11    5.72    0.27
   3  -2 -11    5.92    0.27
   3  -2 -11    5.70    0.30
   3   2 -11    4.99    0.44
   3   2 -11    5.59    0.29
   3   2 -11    5.25    0.32
   3   2 -11    5.90    0.31
   2  -2 -11    1.40    0.15
   2  -2 -11    1.66    0.15
   2  -2 -11    1.63    0.17
   2   2 -11    1.41    0.30
   2   2 -11    1.93    0.18
   2   2 -11    2.05    0.20
   1  -2 -11   46.96    1.61
   1  -2 -11   45.61    1.56
   1  -2 -11   43.21    1.56
   1   2 -11   44.50    1.56
   1   2 -11   46.06    1.57
   1   2 -11   41.82    1.59
   0  -2 -11    1.61    0.15
   0  -2 -11    1.69    0.14
   0  -2 -11    1.59    0.17
   0   2 -11    1.46    0.14
   0   2 -11    1.04    0.26
   0   2 -11    1.54    0.16
  -1  -2 -11    2.98    0.20
  -1  -2 -11    3.15    0.22
  -1  -2 -11    3.59    0.20
  -1   2 -11    3.50    0.20
  -1   2 -11    3.45    0.26
  -1   2 -11    3.45    0.21
  -2  -2 -11    0.21    0.09
  -2  -2 -11    0.27    0.07
  -2  -2 -11    0.30    0.08
  -2   2 -11    0.26    0.12
  -2   2 -11    0.32    0.10
  -2   2 -11    0.29    0.08
  -3  -2 -11    1.73    0.15
  -3  -2 -11    2.04    0.17
  -3  -2 -11    1.89    0.19
  -3   2 -11    1.79    0.24
  -3   2 -11    1.54    0.16
  -3   2 -11    1.79    0.15
  -4  -2 -11   25.60    0.96
  -4  -2 -11   26.26    0.96
  -4  -2 -11   27.77    1.02
  -4   2 -11   27.64    0.98
  -4   2 -11   26.24    0.97
  -4   2 -11   25.90    0.99
  -5  -2 -11   19.93    0.75
  -5  -2 -11   20.49    0.75
  -5  -2 -11   21.20    0.81
  -5   2 -11   19.69    0.76
  -5   2 -11   19.73    0.76
  -6  -2 -11    6.79    0.32
  -6  -2 -11    6.62    0.30
  -6  -2 -11    6.33    0.35
  -6   2 -11    6.88    0.31
  -6   2 -11    6.41    0.31
  -7  -2 -11    1.55    0.14
  -7  -2 -11    1.34    0.17
  -7  -2 -11    1.12    0.18
  -7   2 -11    1.50    0.14
  -7   2 -11    1.41    0.15
  -8  -2 -11    0.86    0.16
   8  -2  11    0.57    0.16
  -8   2 -11    0.67    0.12
  -8   2 -11    0.88    0.12
   9  -2  11    0.15    0.08
  -9  -2 -11    0.11    0.09
  -9   2 -11    0.04    0.06
  -9   2 -11    0.02    0.06
  10  -2  11    0.97    0.13
 -10  -2 -11    0.90    0.17
 -10   2 -11    0.83    0.11
 -10   2 -11    0.89    0.12
  11  -2  11    0.19    0.07
 -11  -2 -11    0.37    0.13
 -11   2 -11    0.63    0.12
  16  -3 -11    1.90    0.13
  16   3 -11    2.04    0.15
  16   3 -11    1.85    0.11
 -15  -3  11   16.16    0.63
  15  -3 -11   16.41    0.60
  15   3 -11   15.89    0.59
  15   3 -11   16.07    0.60
  14  -3 -11    2.42    0.16
 -14  -3  11    2.05    0.19
  14   3 -11    2.24    0.15
  14   3 -11    2.23    0.17
  13  -3 -11   20.96    0.76
 -13  -3  11   20.24    0.80
  13   3 -11   20.43    0.76
  13   3 -11   19.64    0.75
  12  -3 -11    0.70    0.22
  12  -3 -11    0.73    0.14
  12   3 -11    0.76    0.16
 -12   3  11    0.72    0.18
  12   3 -11    0.42    0.12
  11  -3 -11    0.82    0.21
  11  -3 -11    1.02    0.18
 -11   3  11    1.21    0.18
  11   3 -11    0.73    0.13
  11   3 -11    1.34    0.18
  10  -3 -11    5.43    0.34
  10  -3 -11    5.65    0.31
 -10   3  11    6.18    0.30
  10   3 -11    5.88    0.30
  10   3 -11    5.41    0.28
   9  -3 -11   40.26    1.47
   9   3 -11   39.07    1.41
   9   3 -11   39.38    1.40
   8  -3 -11    4.27    0.29
   8   3 -11    4.03    0.23
   8   3 -11    4.13    0.29
   8   3 -11    4.25    0.26
   7  -3 -11    9.53    0.44
   7   3 -11    9.17    0.38
   7   3 -11    7.29    0.38
   6  -3 -11    4.17    0.27
   6  -3 -11    4.17    0.23
   6   3 -11    3.92    0.24
   6   3 -11    4.43    0.26
   5  -3 -11    2.13    0.17
   5  -3 -11    1.87    0.20
   5   3 -11    1.97    0.22
   5   3 -11    2.31    0.19
  -5   3  11    1.82    0.20
   4  -3 -11   52.44    1.91
   4  -3 -11   55.14    1.86
   4   3 -11   53.42    1.87
   4   3 -11   52.43    1.85
   3  -3 -11    2.01    0.16
   3  -3 -11    2.38    0.20
   3   3 -11    2.09    0.20
   3   3 -11    2.14    0.23
   3   3 -11    2.03    0.22
   2  -3 -11   16.78    0.64
   2  -3 -11   17.02    0.69
   2   3 -11   16.88    0.67
   2   3 -11   15.80    0.65
   2   3 -11   17.69    0.65
   2   3 -11   16.92    0.66
   1  -3 -11   34.00    1.18
   1  -3 -11   34.41    1.24
   1   3 -11   30.97    1.19
   1   3 -11   33.21    1.21
   1   3 -11   33.80    1.19
   0  -3 -11    0.05    0.08
   0  -3 -11    0.01    0.07
   0   3 -11    0.24    0.11
   0   3 -11    0.69    0.16
   0   3 -11    0.21    0.08
  -1  -3 -11    0.16    0.08
  -1  -3 -11    0.09    0.09
  -1   3 -11    0.07    0.07
  -1   3 -11    0.24    0.09
  -1   3 -11    0.35    0.09
  -2  -3 -11    1.63    0.19
  -2  -3 -11    1.63    0.16
  -2  -3 -11    1.90    0.14
  -2   3 -11    1.79    0.15
  -2   3 -11    1.99    0.18
  -2   3 -11    1.93    0.20
  -3  -3 -11   28.81    1.05
  -3  -3 -11   28.23    0.99
  -3   3 -11   26.39    1.00
  -3   3 -11   27.25    1.00
  -3   3 -11   25.92    1.02
  -4  -3 -11    1.77    0.20
  -4  -3 -11    2.48    0.19
  -4   3 -11    2.21    0.22
  -4   3 -11    1.89    0.17
  -4   3 -11    2.03    0.17
  -5  -3 -11    0.00    0.10
  -5  -3 -11    0.09    0.08
  -5   3 -11    0.02    0.09
  -5   3 -11    0.13    0.07
  -5   3 -11   -0.01    0.08
  -6  -3 -11    2.72    0.22
  -6   3 -11    3.14    0.19
  -6   3 -11    3.17    0.20
  -7  -3 -11    5.99    0.34
  -7   3 -11    6.64    0.30
  -7   3 -11    6.49    0.30
  -8  -3 -11    5.13    0.30
  -8   3 -11    5.74    0.26
  -8   3 -11    5.54    0.26
  -9  -3 -11    1.78    0.18
   9  -3  11    1.84    0.16
  -9   3 -11    1.92    0.14
  -9   3 -11    1.76    0.13
  10  -3  11    0.14    0.06
 -10  -3 -11    0.03    0.09
 -10   3 -11   -0.01    0.07
 -10   3 -11    0.03    0.05
  11  -3  11    1.16    0.11
 -11   3 -11    1.13    0.11
  15  -4 -11    3.75    0.18
  15   4 -11    3.85    0.19
  15   4 -11    3.72    0.17
  14  -4 -11   -0.07    0.06
  14   4 -11    0.10    0.05
  14   4 -11    0.07    0.06
  13  -4 -11    2.11    0.17
 -13  -4  11    2.28    0.24
  13   4 -11    2.27    0.16
 -13   4  11    2.18    0.18
  13   4 -11    2.30    0.15
 -12  -4  11    0.92    0.22
  12  -4 -11    0.57    0.14
  12   4 -11    0.80    0.11
  12   4 -11    0.78    0.13
 -12   4  11    0.67    0.14
  11  -4 -11    0.28    0.10
 -11  -4  11    0.27    0.14
  11   4 -11    0.20    0.07
 -11   4  11    0.11    0.08
  11   4 -11    0.24    0.07
 -10  -4  11    3.49    0.30
  10  -4 -11    3.23    0.33
 -10   4  11    4.28    0.23
  10   4 -11    4.10    0.22
  10   4 -11    3.67    0.23
   9  -4 -11   -0.06    0.15
   9  -4 -11    0.24    0.13
   9   4 -11    0.02    0.07
   9   4 -11    0.06    0.07
  -9   4  11    0.02    0.08
   8  -4 -11   29.22    1.16
   8   4 -11   31.74    1.13
   8   4 -11   31.25    1.11
   7  -4 -11  145.17    4.82
   7   4 -11  134.92    4.76
   7   4 -11  140.59    4.78
   6  -4 -11   15.40    0.64
   6   4 -11   14.61    0.60
   6   4 -11   14.79    0.58
   5  -4 -11  126.17    4.26
   5   4 -11  125.13    4.20
   5   4 -11  123.81    4.22
  -5   4  11  118.61    4.19
   4  -4 -11    0.46    0.17
   4  -4 -11    0.15    0.07
   4   4 -11   -0.07    0.11
  -4   4  11    0.12    0.08
   4   4 -11    0.01    0.08
   4   4 -11    0.20    0.09
   3  -4 -11    0.77    0.13
   3  -4 -11    0.44    0.17
   3   4 -11    1.19    0.17
   3   4 -11    0.61    0.17
  -3   4  11    0.83    0.12
   3   4 -11    0.63    0.15
   2  -4 -11   10.76    0.43
   2  -4 -11   10.42    0.48
   2   4 -11   10.34    0.44
   2   4 -11   10.06    0.45
   2   4 -11    9.92    0.44
   1  -4 -11    4.13    0.22
   1  -4 -11    4.24    0.27
   1   4 -11    3.82    0.26
   1   4 -11    3.64    0.25
   1   4 -11    3.51    0.23
   1   4 -11    3.54    0.25
   0  -4 -11   55.48    1.91
   0  -4 -11   56.97    1.97
   0   4 -11   54.50    1.93
   0   4 -11   56.08    1.92
   0   4 -11   51.02    1.91
   0   4 -11   55.07    1.91
  -1  -4 -11    0.26    0.09
  -1   4 -11    0.11    0.10
  -1   4 -11    0.00    0.07
  -1   4 -11    0.15    0.10
  -1   4 -11   -0.13    0.13
  -2  -4 -11    0.59    0.16
  -2  -4 -11    0.36    0.11
  -2   4 -11    0.47    0.10
  -2   4 -11    0.48    0.15
  -2   4 -11    0.40    0.10
  -3  -4 -11   14.00    0.62
  -3  -4 -11   15.06    0.57
  -3   4 -11   13.89    0.57
  -3   4 -11   14.42    0.60
  -3   4 -11   15.15    0.58
  -4  -4 -11   28.35    1.11
  -4  -4 -11   29.53    1.05
  -4   4 -11   29.13    1.06
  -4   4 -11   30.00    1.09
  -4   4 -11   28.98    1.06
  -5  -4 -11    0.93    0.16
  -5   4 -11    1.10    0.13
  -5   4 -11    0.83    0.13
  -5   4 -11    1.39    0.17
  -6  -4 -11    0.47    0.15
  -6   4 -11    0.67    0.11
  -6   4 -11    0.53    0.11
  -7  -4 -11   19.63    0.78
   7   4  11   19.23    0.72
  -7   4 -11   19.90    0.73
  -7   4 -11   20.46    0.73
  -8  -4 -11    0.71    0.14
  -8   4 -11    0.68    0.10
   8   4  11    0.66    0.10
  -8   4 -11    0.55    0.10
  -9  -4 -11    0.34    0.14
   9  -4  11    0.17    0.06
   9   4  11    0.05    0.07
  -9   4 -11    0.44    0.09
  -9   4 -11    0.15    0.05
  10  -4  11    8.36    0.32
 -10   4 -11    7.89    0.31
  14   5 -11    1.51    0.10
  14   5 -11    1.49    0.12
  13  -5 -11    0.15    0.08
  13   5 -11    0.07    0.05
  13   5 -11    0.09    0.06
  12  -5 -11   15.25    0.61
 -12   5  11   17.93    0.62
  12   5 -11   16.80    0.62
  12   5 -11   16.69    0.61
  11   5 -11    8.23    0.34
  11   5 -11    8.53    0.36
 -11   5  11    8.23    0.35
 -10   5  11    3.01    0.19
  10   5 -11    3.18    0.19
  10   5 -11    3.18    0.19
  -9   5  11    0.12    0.08
   9   5 -11    0.07    0.06
   9   5 -11    0.07    0.07
  -8   5  11    0.48    0.13
   8   5 -11    0.46    0.12
   8   5 -11    0.30    0.08
   7   5 -11    5.16    0.27
   7   5 -11    5.27    0.28
  -7   5  11    5.55    0.27
   6   5 -11   28.04    1.01
   6   5 -11   27.79    0.99
  -6   5  11   26.02    0.98
   5  -5 -11    9.29    0.49
   5   5 -11   10.28    0.42
   5   5 -11   10.20    0.43
  -5   5  11    9.64    0.41
   4  -5 -11   55.33    2.05
   4   5 -11   58.52    2.02
  -4   5  11   57.61    2.00
   4   5 -11   58.96    2.00
   3  -5 -11   26.00    1.04
   3   5 -11   27.70    1.01
  -3   5  11   27.24    0.98
   3   5 -11   27.60    0.99
   3   5 -11   27.57    0.99
   2  -5 -11    8.26    0.43
   2   5 -11    9.39    0.39
   2   5 -11    8.72    0.41
  -2   5  11    9.17    0.38
   2   5 -11    8.90    0.39
   1  -5 -11    2.89    0.25
   1   5 -11    2.98    0.21
  -1   5  11    3.16    0.19
   1   5 -11    2.93    0.19
   1   5 -11    3.04    0.22
   0  -5 -11    7.74    0.41
   0   5 -11    8.02    0.37
   0   5 -11    8.51    0.39
   0   5  11    8.47    0.36
   0   5 -11    8.38    0.37
  -1  -5 -11    1.87    0.21
   1   5  11    1.70    0.14
  -1   5 -11    1.81    0.18
  -1   5 -11    1.94    0.18
  -1   5 -11    2.04    0.16
  -1   5 -11    2.12    0.19
  -2  -5 -11    1.33    0.19
  -2   5 -11    1.64    0.18
   2   5  11    1.81    0.14
  -2   5 -11    1.84    0.16
  -2   5 -11    1.73    0.15
  -3  -5 -11    7.40    0.39
  -3   5 -11    7.94    0.35
   3   5  11    7.78    0.34
  -3   5 -11    8.44    0.35
  -3   5 -11    8.44    0.38
  -4  -5 -11   21.24    0.86
   4   5  11   22.80    0.82
  -4   5 -11   21.53    0.84
  -4   5 -11   23.98    0.83
  -4   5 -11   22.06    0.82
  -5  -5 -11    0.03    0.09
   5   5  11    0.06    0.05
  -5   5 -11   -0.01    0.05
  -5   5 -11    0.07    0.06
  -5   5 -11   -0.08    0.06
  -6  -5 -11    7.38    0.36
  -6   5 -11    7.42    0.31
   6   5  11    7.39    0.31
  -6   5 -11    7.68    0.32
  -7  -5 -11    3.37    0.23
  -7   5 -11    3.82    0.19
   7   5  11    3.85    0.18
  -7   5 -11    3.86    0.19
  -8  -5 -11    6.64    0.33
  -8   5 -11    6.47    0.27
   8   5  11    6.75    0.27
  -8   5 -11    6.86    0.27
   9  -5  11    3.36    0.16
  12   6 -11    0.02    0.04
  12   6 -11    0.13    0.05
 -12   6  11    0.26    0.08
  11   6 -11    5.54    0.24
 -11   6  11    5.91    0.24
  11   6 -11    5.77    0.25
  10   6 -11    5.66    0.25
 -10   6  11    5.62    0.25
  10   6 -11    5.62    0.24
   9   6 -11    0.61    0.11
  -9   6  11    0.48    0.10
   9   6 -11    0.54    0.10
  -8   6  11    7.23    0.32
   8   6 -11    7.51    0.31
   8   6 -11    7.38    0.32
   7   6 -11    5.38    0.25
  -7   6  11    5.24    0.25
   7   6 -11    5.03    0.26
  -6   6  11    0.36    0.09
   6   6 -11    0.38    0.12
  -6   6  11    0.21    0.07
   6   6 -11    0.37    0.10
   5   6 -11    0.71    0.12
   5   6 -11    0.73    0.13
  -5   6  11    0.53    0.12
  -5   6  11    0.59    0.11
  -4   6  11    4.98    0.24
   4   6 -11    5.75    0.28
  -4   6  11    4.95    0.26
   4   6 -11    5.14    0.25
   3   6 -11    0.18    0.08
  -3   6  11    0.21    0.08
  -3   6  11    0.15    0.07
   3   6 -11    0.12    0.08
   3   6 -11    0.20    0.08
   2   6 -11    0.32    0.09
   2   6 -11    0.28    0.08
  -2   6  11    0.20    0.06
  -2   6  11    0.17    0.08
   2   6 -11    0.13    0.07
   1   6 -11    1.37    0.14
   1   6 -11    1.69    0.16
   1   6 -11    1.53    0.14
  -1   6  11    1.61    0.13
   0   6  11    6.28    0.28
   0   6 -11    6.21    0.30
   0   6 -11    5.86    0.28
   0   6 -11    6.22    0.29
  -2   6 -11   16.79    0.64
  -2   6 -11   17.41    0.63
   2   6  11   16.89    0.64
  -2   6 -11   17.36    0.66
  -3  -6 -11    4.58    0.32
  -3   6 -11    4.88    0.25
  -3   6 -11    4.71    0.22
   3   6  11    4.56    0.22
  -3   6 -11    4.36    0.22
  -4  -6 -11    1.34    0.25
   4  -6  11    1.68    0.18
  -4   6 -11    1.57    0.14
   4   6  11    1.53    0.11
  -4   6 -11    1.47    0.11
  -4   6 -11    1.56    0.12
  -5   6 -11    1.06    0.09
  -5   6 -11    1.12    0.10
   5   6  11    1.08    0.09
   6   6  11    2.52    0.13
  -6   6 -11    2.42    0.13
  -6   6 -11    2.40    0.13
  -7   6 -11    0.03    0.04
  -7   6 -11    0.22    0.07
  -9   7  11    0.41    0.07
   9   7 -11    0.37    0.08
   9   7 -11    0.53    0.08
  -8   7  11    0.09    0.05
   8   7 -11    0.09    0.05
   8   7 -11    0.08    0.05
  -7   7  11    1.59    0.11
   7   7 -11    1.49    0.11
   7   7 -11    1.29    0.12
   6   7 -11    3.59    0.20
   6   7 -11    3.92    0.19
  -6   7  11    4.08    0.19
  -5   7  11    0.92    0.11
  -5   7  11    0.94    0.10
   5   7 -11    0.91    0.11
   5   7 -11    1.01    0.11
   4   7 -11    0.14    0.06
  -4   7  11    0.17    0.06
   4   7 -11    0.10    0.06
  -4   7  11    0.19    0.06
   3   7 -11    0.24    0.07
  -3   7  11    0.48    0.10
   3   7 -11    0.34    0.10
  -3   7  11    0.38    0.08
   3   7 -11    0.31    0.09
   2   7 -11   26.52    0.95
  -2   7  11   27.21    0.94
   2   7 -11   26.24    0.96
   2   7 -11   26.62    0.94
  -2   7  11   26.90    0.94
  -1   7  11    0.32    0.07
  -1   7  11    0.15    0.11
   1   7 -11    0.26    0.09
   1   7 -11    0.37    0.08
   0   7 -11    0.01    0.05
   0   7 -11    0.04    0.05
   0   7  11    0.04    0.04
  -1   7 -11    0.54    0.08
  -1   7 -11    0.77    0.10
   1   7  11    0.66    0.08
  -2   7 -11    2.91    0.17
  -2   7 -11    2.81    0.15
   2   7  11    2.99    0.15
   3  -7  11    0.43    0.13
  -3   7 -11    0.53    0.09
  -3   7 -11    0.52    0.07
   3   7  11    0.40    0.07
  -4   7 -11    0.10    0.04
   4   7  11   -0.02    0.04
  17   0 -12    0.04    0.05
 -16   0  12    1.16    0.16
  16   0 -12    0.96    0.10
  15   0 -12    0.04    0.07
  14   0 -12   12.44    0.49
  13   0 -12    0.01    0.07
  13   0 -12    0.13    0.11
  12   0 -12    3.87    0.22
  12   0 -12    3.47    0.28
  11   0 -12    0.18    0.12
  11   0 -12    0.07    0.09
  10   0 -12   14.44    0.62
  10   0 -12   13.02    0.55
   9   0 -12   -0.01    0.09
   9   0 -12    0.01    0.10
   8   0 -12   28.71    1.06
   8   0 -12   30.05    1.12
   7   0 -12    0.11    0.08
   7   0 -12    0.18    0.14
   6   0 -12    0.32    0.13
   5   0 -12   -0.07    0.07
   5   0 -12    0.04    0.11
   4   0 -12   51.17    1.84
   4   0 -12   52.45    1.80
   3   0 -12    0.02    0.09
   3   0 -12    0.07    0.11
   3   0 -12    0.03    0.08
   2   0 -12    2.01    0.17
   2   0 -12    1.69    0.17
   2   0 -12    1.99    0.17
   1   0 -12    0.00    0.08
   1   0 -12   -0.01    0.08
   1   0 -12    0.01    0.07
   0   0 -12    0.25    0.09
   0   0 -12    0.08    0.07
   0   0 -12    0.01    0.07
  -1   0 -12    0.01    0.07
  -1   0 -12   -0.05    0.08
  -1   0 -12    0.05    0.07
  -2   0 -12    0.53    0.11
  -2   0 -12    0.41    0.14
  -2   0 -12    0.52    0.12
  -3   0 -12   -0.04    0.06
  -3   0 -12   -0.03    0.09
  -3   0 -12    0.00    0.06
  -4   0 -12   39.71    1.42
  -4   0 -12   39.88    1.43
  -4   0 -12   41.36    1.47
  -5   0 -12   -0.01    0.07
  -5   0 -12   -0.02    0.06
  -5   0 -12    0.18    0.11
  -6   0 -12    6.37    0.37
  -6   0 -12    7.09    0.32
  -6   0 -12    7.52    0.32
  -7   0 -12   -0.11    0.12
  -7   0 -12   -0.01    0.06
  -7   0 -12   -0.08    0.07
  -8   0 -12   10.79    0.44
  -8   0 -12   11.08    0.44
  -9   0 -12    0.03    0.06
  -9   0 -12   -0.03    0.08
  17  -1 -12    0.02    0.05
  17   1 -12    0.02    0.05
  16  -1 -12    0.51    0.10
 -16  -1  12    0.73    0.14
  16   1 -12    0.56    0.09
 -16   1  12    0.69    0.17
  15  -1 -12    1.31    0.12
  15   1 -12    1.03    0.11
  14  -1 -12    4.46    0.23
  14   1 -12    4.30    0.22
  13  -1 -12    4.15    0.30
  13  -1 -12    4.53    0.24
  13   1 -12    4.29    0.23
  12  -1 -12    2.07    0.24
  12  -1 -12    2.75    0.20
  12   1 -12    2.27    0.23
  12   1 -12    2.67    0.19
  11  -1 -12   33.60    1.21
  11  -1 -12   31.65    1.28
  11   1 -12   33.77    1.28
  11   1 -12   35.00    1.20
  10  -1 -12   10.47    0.50
  10  -1 -12   10.31    0.44
  10   1 -12    9.95    0.43
  10   1 -12   10.41    0.49
   9  -1 -12    0.56    0.13
   9  -1 -12    0.53    0.18
   9   1 -12    0.85    0.17
   9   1 -12    0.53    0.15
   8  -1 -12   45.79    1.60
   8  -1 -12   40.75    1.52
   8   1 -12   41.80    1.52
   8   1 -12   45.01    1.58
   7  -1 -12    2.96    0.23
   7  -1 -12    2.57    0.23
   7   1 -12    3.01    0.23
   7   1 -12    3.33    0.23
   6  -1 -12    3.54    0.24
   6  -1 -12    3.39    0.23
   6   1 -12    3.61    0.24
   6   1 -12    3.71    0.27
   5  -1 -12    3.89    0.25
   5  -1 -12    3.59    0.22
   5   1 -12    3.48    0.26
   5   1 -12    3.68    0.24
   4  -1 -12   12.36    0.49
   4  -1 -12   12.76    0.53
   4   1 -12   12.66    0.52
   4   1 -12   11.54    0.50
   3  -1 -12    1.06    0.17
   3  -1 -12    1.06    0.15
   3  -1 -12    1.30    0.15
   3   1 -12    1.22    0.17
   3   1 -12    1.03    0.18
   3   1 -12    1.12    0.17
   2  -1 -12    0.08    0.08
   2  -1 -12    0.17    0.09
   2  -1 -12    0.15    0.08
   2   1 -12    0.22    0.10
   2   1 -12    0.04    0.08
   2   1 -12    0.08    0.10
   1  -1 -12    0.17    0.09
   1  -1 -12    0.11    0.07
   1  -1 -12    0.39    0.13
   1   1 -12    0.32    0.10
   1   1 -12    0.30    0.09
   1   1 -12    0.37    0.15
   0  -1 -12    2.90    0.18
   0  -1 -12    2.90    0.22
   0  -1 -12    2.98    0.18
   0   1 -12    2.58    0.19
   0   1 -12    2.66    0.21
   0   1 -12    3.00    0.19
  -1  -1 -12   20.85    0.80
  -1  -1 -12   20.02    0.75
  -1  -1 -12   19.83    0.75
  -1   1 -12   19.49    0.75
  -1   1 -12   20.95    0.75
  -1   1 -12   19.99    0.78
  -2  -1 -12    8.11    0.36
  -2  -1 -12    8.74    0.36
  -2  -1 -12    8.95    0.41
  -2   1 -12    7.74    0.36
  -2   1 -12    8.71    0.37
  -3  -1 -12    0.39    0.11
  -3  -1 -12    0.54    0.11
  -3  -1 -12    0.56    0.12
  -3   1 -12    0.50    0.12
  -3   1 -12    0.71    0.13
  -4  -1 -12    0.42    0.11
  -4  -1 -12    0.27    0.10
  -4  -1 -12    0.28    0.08
  -4   1 -12    0.29    0.08
  -4   1 -12    0.58    0.11
  -5  -1 -12   13.71    0.54
  -5  -1 -12   14.72    0.60
  -5  -1 -12   14.05    0.55
  -5   1 -12   13.29    0.54
  -5   1 -12   13.80    0.55
  -6  -1 -12   14.34    0.54
  -6  -1 -12   13.97    0.54
  -6  -1 -12   13.61    0.60
  -6   1 -12   13.67    0.54
  -6   1 -12   13.83    0.54
  -7  -1 -12    0.67    0.12
  -7  -1 -12    0.57    0.14
   7  -1  12    0.56    0.18
  -7  -1 -12    0.66    0.17
  -7   1 -12    0.62    0.13
  -7   1 -12    0.61    0.12
  -8  -1 -12    0.22    0.06
   8  -1  12    0.10    0.10
  -8  -1 -12    0.21    0.11
  -8  -1 -12    0.21    0.09
  -8   1 -12    0.16    0.06
  -8   1 -12    0.26    0.07
  -9  -1 -12    0.78    0.19
   9  -1  12    0.74    0.16
  -9   1 -12    0.76    0.11
  -9   1 -12    0.64    0.11
  10  -1  12    1.51    0.17
 -10  -1 -12    1.60    0.23
 -10   1 -12    1.92    0.14
 -10   1 -12    1.80    0.14
  17   2 -12    3.29    0.15
 -16  -2  12    8.36    0.38
  16  -2 -12    8.58    0.33
  16   2 -12    8.20    0.33
  15  -2 -12    3.23    0.18
 -15  -2  12    3.26    0.22
  15   2 -12    3.25    0.17
  14  -2 -12    0.12    0.07
  14   2 -12   -0.07    0.09
  14   2 -12    0.08    0.06
  13  -2 -12    0.03    0.11
  13  -2 -12    0.21    0.09
  13   2 -12    0.10    0.07
  13   2 -12   -0.09    0.10
  12  -2 -12   45.07    1.78
  12  -2 -12   49.94    1.71
  12   2 -12   51.34    1.71
  11  -2 -12    5.92    0.30
  11  -2 -12    5.64    0.35
  11   2 -12    5.74    0.28
 -11   2  12    6.10    0.33
  10  -2 -12    3.82    0.28
  10  -2 -12    3.91    0.25
  10   2 -12    3.46    0.22
  10   2 -12    3.81    0.27
   9  -2 -12    0.57    0.18
   9   2 -12    0.77    0.18
   9   2 -12    0.71    0.14
   8  -2 -12    7.19    0.38
   8   2 -12    6.74    0.37
   8   2 -12    6.31    0.32
   7  -2 -12    1.08    0.15
   7  -2 -12    1.02    0.17
   7   2 -12    1.22    0.18
   7   2 -12    1.63    0.18
   6  -2 -12    3.03    0.23
   6  -2 -12    3.00    0.21
   6   2 -12    3.22    0.23
   6   2 -12    2.92    0.22
   5  -2 -12   19.25    0.74
   5  -2 -12   21.33    0.81
   5   2 -12   18.61    0.75
   5   2 -12   20.49    0.78
   4  -2 -12   79.41    2.76
   4  -2 -12   79.48    2.70
   4   2 -12   77.39    2.73
   3  -2 -12    3.21    0.20
   3  -2 -12    3.17    0.20
   3  -2 -12    3.35    0.23
   3   2 -12    3.05    0.24
   3   2 -12    2.98    0.22
   2  -2 -12    1.98    0.19
   2  -2 -12    1.52    0.16
   2  -2 -12    1.63    0.15
   2   2 -12    1.72    0.19
   2   2 -12    1.67    0.18
   1  -2 -12    1.50    0.14
   1  -2 -12    1.47    0.17
   1  -2 -12    1.09    0.14
   1   2 -12    1.50    0.16
   1   2 -12    1.16    0.17
   0  -2 -12   33.43    1.20
   0  -2 -12   34.22    1.14
   0  -2 -12   30.25    1.13
   0   2 -12   28.36    1.16
   0   2 -12   33.88    1.15
   0   2 -12   31.30    1.14
  -1  -2 -12    2.29    0.16
  -1  -2 -12    2.05    0.20
  -1  -2 -12    2.21    0.16
  -1   2 -12    2.16    0.16
  -1   2 -12    2.26    0.18
  -1   2 -12    2.13    0.25
  -2  -2 -12   15.17    0.58
  -2  -2 -12   15.61    0.64
  -2  -2 -12   14.76    0.58
  -2   2 -12   14.88    0.59
  -2   2 -12   14.93    0.63
  -2   2 -12   15.07    0.59
  -3  -2 -12    7.08    0.32
  -3  -2 -12    6.97    0.32
  -3  -2 -12    7.29    0.37
  -3   2 -12    7.10    0.33
  -3   2 -12    7.28    0.38
  -3   2 -12    6.57    0.32
  -4  -2 -12   24.63    0.91
  -4  -2 -12   26.39    0.97
  -4  -2 -12   25.09    0.90
  -4   2 -12   23.89    0.91
  -4   2 -12   24.06    0.91
  -5  -2 -12    2.33    0.22
  -5  -2 -12    2.32    0.18
  -5  -2 -12    2.69    0.17
  -5   2 -12    2.47    0.17
  -5   2 -12    2.85    0.19
  -6  -2 -12   17.84    0.67
  -6  -2 -12   16.58    0.72
  -6  -2 -12   18.45    0.67
  -6   2 -12   18.33    0.68
  -6   2 -12   17.90    0.68
  -7  -2 -12    1.31    0.18
  -7  -2 -12    1.43    0.19
  -7  -2 -12    1.35    0.13
  -7   2 -12    1.42    0.14
  -7   2 -12    1.56    0.14
   8  -2  12    0.05    0.08
  -8  -2 -12    0.10    0.09
  -8   2 -12    0.11    0.06
  -8   2 -12    0.13    0.06
  -9  -2 -12    0.66    0.16
   9  -2  12    0.58    0.14
  -9   2 -12    0.81    0.11
  -9   2 -12    0.57    0.10
 -10  -2 -12    6.42    0.33
  10  -2  12    6.46    0.28
 -10   2 -12    6.55    0.27
 -10   2 -12    6.24    0.27
  16  -3 -12    5.89    0.24
  16   3 -12    5.95    0.24
 -15  -3  12    2.10    0.19
  15  -3 -12    1.69    0.13
  15   3 -12    1.60    0.11
  15   3 -12    1.52    0.16
  14  -3 -12    0.69    0.12
 -14  -3  12    0.57    0.16
  14   3 -12    0.70    0.10
  14   3 -12    0.57    0.14
 -13  -3  12    5.12    0.30
  13  -3 -12    5.52    0.26
  13   3 -12    5.17    0.26
  13   3 -12    5.56    0.26
  12  -3 -12    0.53    0.20
  12  -3 -12    0.26    0.10
  12   3 -12    0.28    0.09
 -12   3  12    0.66    0.17
  12   3 -12    0.30    0.09
  11  -3 -12    0.84    0.17
  11  -3 -12    1.10    0.21
  11   3 -12    0.93    0.14
  11   3 -12    1.19    0.17
 -11   3  12    1.02    0.17
  10  -3 -12    0.83    0.20
  10   3 -12    0.87    0.14
  10   3 -12    0.99    0.17
 -10   3  12    0.89    0.16
   9  -3 -12    9.94    0.49
   9   3 -12   10.11    0.44
   9   3 -12   10.27    0.42
   8  -3 -12   11.50    0.53
   8   3 -12   11.23    0.46
   8   3 -12   10.93    0.48
   7  -3 -12    0.69    0.17
   7   3 -12    0.83    0.15
   7   3 -12    0.84    0.19
   6  -3 -12   19.15    0.77
   6  -3 -12   18.82    0.70
   6   3 -12   17.86    0.70
   6   3 -12   18.79    0.72
   5  -3 -12   12.64    0.55
   5  -3 -12   11.55    0.48
  -5   3  12   11.76    0.48
   5   3 -12   12.13    0.49
   5   3 -12   12.01    0.51
   4  -3 -12   19.89    0.74
   4  -3 -12   20.17    0.80
   4   3 -12   19.68    0.76
   4   3 -12   19.44    0.74
   3  -3 -12    3.27    0.20
   3  -3 -12    3.50    0.25
   3   3 -12    3.23    0.26
   3   3 -12    3.40    0.26
   3   3 -12    3.33    0.23
   2  -3 -12    2.54    0.18
   2  -3 -12    2.91    0.23
   2   3 -12    2.53    0.25
   2   3 -12    2.53    0.20
   2   3 -12    2.85    0.22
   1  -3 -12    5.23    0.30
   1  -3 -12    4.49    0.24
   1   3 -12    4.64    0.25
   1   3 -12    5.02    0.31
   1   3 -12    4.57    0.27
   0  -3 -12    7.78    0.39
   0  -3 -12    7.68    0.34
   0   3 -12    7.75    0.39
   0   3 -12    7.80    0.35
   0   3 -12    7.73    0.35
  -1  -3 -12    1.27    0.15
  -1  -3 -12    1.47    0.18
  -1   3 -12    1.35    0.15
  -1   3 -12    1.64    0.17
  -1   3 -12    1.45    0.19
  -2  -3 -12    0.29    0.11
  -2  -3 -12    0.12    0.08
  -2   3 -12    0.13    0.10
  -2   3 -12    0.15    0.08
  -2   3 -12    0.33    0.09
  -3  -3 -12   11.99    0.47
  -3  -3 -12   10.39    0.52
  -3   3 -12   12.20    0.48
  -3   3 -12   11.73    0.48
  -3   3 -12   11.41    0.51
  -4  -3 -12   15.34    0.66
  -4  -3 -12   15.84    0.60
  -4   3 -12   15.36    0.61
  -4   3 -12   15.63    0.63
  -4   3 -12   15.40    0.61
  -5  -3 -12    2.09    0.18
  -5  -3 -12    1.85    0.20
  -5   3 -12    2.00    0.16
  -5   3 -12    2.10    0.16
  -6  -3 -12    0.60    0.16
  -6   3 -12    0.49    0.12
  -6   3 -12    0.38    0.11
  -7  -3 -12    3.47    0.25
  -7   3 -12    3.50    0.19
  -7   3 -12    3.56    0.20
   8  -3  12   -0.01    0.07
  -8  -3 -12    0.16    0.10
  -8   3 -12   -0.07    0.05
  -8   3 -12    0.09    0.06
  -9  -3 -12    0.71    0.15
   9  -3  12    0.54    0.12
   9   3  12    0.71    0.10
  -9   3 -12    0.55    0.09
  -9   3 -12    0.79    0.09
  10  -3  12    0.36    0.11
 -10   3 -12    0.39    0.08
  15   4 -12   11.44    0.43
  15   4 -12   11.27    0.42
  14   4 -12    4.71    0.22
  14   4 -12    4.67    0.21
  13  -4 -12    0.45    0.13
  13   4 -12    0.73    0.09
  13   4 -12    0.47    0.12
 -13   4  12    0.68    0.15
  12  -4 -12    0.78    0.16
  12   4 -12    1.07    0.13
  12   4 -12    1.15    0.12
 -12   4  12    1.16    0.14
  11   4 -12    5.07    0.26
 -11   4  12    4.87    0.25
  11   4 -12    4.87    0.24
  10  -4 -12    1.22    0.27
  10   4 -12    1.74    0.17
 -10   4  12    2.14    0.16
  10   4 -12    1.80    0.15
   9  -4 -12    0.95    0.23
  -9   4  12    1.15    0.15
   9   4 -12    0.93    0.13
   9   4 -12    1.03    0.16
   8  -4 -12    5.74    0.35
   8   4 -12    6.28    0.29
   8   4 -12    6.41    0.31
   7  -4 -12  112.57    4.03
   7   4 -12  116.19    3.97
   7   4 -12  121.12    3.99
   6  -4 -12   21.25    0.83
   6   4 -12   20.16    0.78
   6   4 -12   19.70    0.76
   5  -4 -12    0.14    0.11
   5   4 -12   -0.07    0.08
  -5   4  12    0.26    0.09
   5   4 -12    0.13    0.09
   4  -4 -12   28.47    1.08
   4  -4 -12   27.05    1.01
  -4   4  12   28.72    1.01
   4   4 -12   27.86    1.03
   4   4 -12   27.54    1.01
   3  -4 -12   11.93    0.52
   3  -4 -12   11.01    0.46
  -3   4  12   10.83    0.45
   3   4 -12   11.37    0.47
   3   4 -12   11.57    0.47
   3   4 -12   10.81    0.49
   2  -4 -12    4.76    0.29
   2  -4 -12    3.85    0.23
   2   4 -12    4.27    0.24
   2   4 -12    4.29    0.26
   2   4 -12    4.16    0.27
   1  -4 -12    4.76    0.25
   1  -4 -12    5.25    0.31
   1   4 -12    4.53    0.25
   1   4 -12    4.64    0.29
   1   4 -12    4.39    0.27
   0  -4 -12   23.04    0.84
   0  -4 -12   23.95    0.91
   0   4 -12   23.09    0.85
   0   4 -12   21.45    0.85
   0   4 -12   23.10    0.88
  -1  -4 -12   21.04    0.86
  -1  -4 -12   22.05    0.80
  -1   4 -12   21.69    0.81
  -1   4 -12   21.49    0.81
  -1   4 -12   21.74    0.83
  -2  -4 -12    2.27    0.18
  -2  -4 -12    1.93    0.20
  -2   4 -12    2.50    0.21
  -2   4 -12    2.13    0.18
  -2   4 -12    2.23    0.17
  -3  -4 -12    1.01    0.16
  -3  -4 -12    0.93    0.15
  -3   4 -12    0.98    0.13
  -3   4 -12    1.12    0.18
  -3   4 -12    0.65    0.13
  -4  -4 -12    0.24    0.11
  -4  -4 -12    0.44    0.10
  -4   4 -12    0.37    0.11
  -4   4 -12    0.17    0.07
  -4   4 -12    0.26    0.10
  -5  -4 -12   33.57    1.31
  -5   4 -12   36.59    1.27
  -5   4 -12   36.34    1.26
  -6  -4 -12    1.02    0.17
  -6   4 -12    1.08    0.12
  -6   4 -12    0.79    0.11
  -7  -4 -12   11.39    0.51
  -7   4 -12   12.05    0.47
  -7   4 -12   12.28    0.47
   7   4  12   12.45    0.46
  -8  -4 -12    2.30    0.19
  -8   4 -12    2.40    0.14
   8   4  12    2.42    0.14
  -8   4 -12    2.54    0.14
   9  -4  12    2.36    0.15
  -9   4 -12    2.34    0.13
  -9   4 -12    2.41    0.13
 -13   5  12   23.25    0.82
  13   5 -12   23.35    0.83
  13   5 -12   23.47    0.82
 -12   5  12    4.60    0.21
  12   5 -12    4.46    0.21
  12   5 -12    4.49    0.22
  11   5 -12    6.47    0.29
  11   5 -12    6.82    0.30
 -11   5  12    6.87    0.29
  10   5 -12    1.90    0.14
 -10   5  12    1.87    0.14
  10   5 -12    1.98    0.16
   9   5 -12    8.37    0.36
  -9   5  12    8.52    0.37
   9   5 -12    8.97    0.38
   8   5 -12    3.01    0.20
  -8   5  12    3.02    0.19
   8   5 -12    3.28    0.19
  -7   5  12    1.51    0.14
   7   5 -12    1.48    0.15
   7   5 -12    1.17    0.15
   6   5 -12   35.34    1.24
   6   5 -12   35.79    1.26
  -6   5  12   33.73    1.23
   5  -5 -12    4.38    0.34
   5   5 -12    4.96    0.27
   5   5 -12    5.28    0.26
  -5   5  12    4.90    0.25
   4  -5 -12    1.09    0.21
  -4   5  12    1.05    0.13
   4   5 -12    1.21    0.16
   4   5 -12    1.40    0.15
   3  -5 -12   30.67    1.23
  -3   5  12   32.80    1.18
   3   5 -12   33.31    1.18
   3   5 -12   33.55    1.19
   3   5 -12   35.11    1.21
   2  -5 -12    3.13    0.26
   2   5 -12    3.62    0.21
   2   5 -12    3.67    0.23
  -2   5  12    3.61    0.20
   2   5 -12    3.23    0.22
   1  -5 -12    3.37    0.26
   1   5 -12    3.24    0.23
   1   5 -12    3.40    0.23
   1   5 -12    3.87    0.21
  -1   5  12    3.50    0.20
   0  -5 -12    1.92    0.21
   0   5 -12    1.77    0.15
   0   5 -12    1.72    0.17
   0   5  12    1.81    0.14
  -1  -5 -12   17.75    0.76
   1   5  12   19.18    0.71
  -1   5 -12   20.49    0.73
  -1   5 -12   18.86    0.74
  -1   5 -12   19.09    0.71
  -2  -5 -12    0.08    0.10
  -2   5 -12    0.04    0.07
  -2   5 -12    0.10    0.06
  -2   5 -12   -0.08    0.08
   2   5  12    0.09    0.05
  -3  -5 -12    9.80    0.46
  -3   5 -12   10.07    0.41
  -3   5 -12   10.43    0.44
  -3   5 -12   10.24    0.42
   3   5  12   10.09    0.41
  -4  -5 -12    1.10    0.17
   4   5  12    1.21    0.11
  -4   5 -12    1.19    0.13
  -4   5 -12    1.29    0.12
  -4   5 -12    1.41    0.15
  -5  -5 -12    0.12    0.10
  -5   5 -12    0.12    0.06
   5   5  12    0.15    0.05
  -5   5 -12    0.12    0.06
  -6  -5 -12   11.29    0.47
  -6   5 -12   10.86    0.42
   6   5  12   10.94    0.41
  -6   5 -12   10.12    0.41
  -7  -5 -12    3.36    0.23
  -7   5 -12    3.76    0.17
   7   5  12    3.77    0.17
  -7   5 -12    3.62    0.17
   8  -5  12   -0.06    0.05
  -8   5 -12   -0.05    0.05
  -8   5 -12    0.03    0.04
  11   6 -12    0.98    0.11
  11   6 -12    0.90    0.09
 -11   6  12    1.10    0.09
 -10   6  12    2.49    0.14
  10   6 -12    2.42    0.14
  10   6 -12    2.59    0.15
   9   6 -12   35.61    1.24
  -9   6  12   35.34    1.24
   9   6 -12   35.57    1.25
  -8   6  12    1.01    0.11
   8   6 -12    1.06    0.12
   8   6 -12    1.06    0.11
   7   6 -12    9.38    0.38
  -7   6  12    9.62    0.39
   7   6 -12    9.48    0.39
   6   6 -12    0.18    0.07
  -6   6  12    0.27    0.09
  -6   6  12    0.18    0.06
   6   6 -12    0.45    0.11
  -5   6  12    0.10    0.07
   5   6 -12    0.26    0.07
  -5   6  12    0.15    0.07
   5   6 -12    0.12    0.06
   4   6 -12    0.01    0.08
   4   6 -12    0.19    0.08
  -4   6  12    0.09    0.06
  -4   6  12    0.05    0.06
   4   6 -12    0.04    0.07
   3   6 -12    0.39    0.12
  -3   6  12    0.48    0.11
   3   6 -12    0.48    0.12
  -3   6  12    0.44    0.10
   3   6 -12    0.42    0.12
   2   6 -12    0.12    0.06
   2   6 -12    0.36    0.12
   2   6 -12    0.06    0.07
  -2   6  12    0.09    0.07
  -2   6  12    0.08    0.05
   1   6 -12   -0.02    0.07
  -1   6  12    0.02    0.05
   1   6 -12    0.03    0.05
   1   6 -12    0.11    0.06
   0   6  12    0.58    0.09
   0   6 -12    0.76    0.11
   0   6 -12    0.67    0.12
  -1   6 -12    1.32    0.14
  -1   6 -12    1.00    0.11
   1   6  12    1.19    0.11
  -2   6 -12    0.04    0.05
   2   6  12    0.08    0.04
  -2   6 -12    0.16    0.07
  -2   6 -12    0.13    0.07
   3   6  12   12.76    0.48
  -3   6 -12   12.95    0.47
  -3   6 -12   11.97    0.48
  -3   6 -12   12.66    0.49
  -4   6 -12    0.13    0.06
  -4   6 -12    0.15    0.06
  -4   6 -12    0.10    0.04
   4   6  12    0.17    0.05
  -5   6 -12    2.77    0.14
   5   6  12    2.78    0.14
  -5   6 -12    2.98    0.14
  -6   6 -12    3.18    0.15
  -6   6 -12    3.31    0.15
   6   6  12    3.31    0.15
  -8   7  12    2.60    0.13
   8   7 -12    2.61    0.14
   8   7 -12    2.64    0.15
   7   7 -12    1.77    0.11
   7   7 -12    1.70    0.12
  -7   7  12    1.88    0.11
   6   7 -12    2.08    0.14
   6   7 -12    2.12    0.13
  -6   7  12    2.28    0.13
   5   7 -12    2.80    0.15
  -5   7  12    2.75    0.16
  -5   7  12    2.91    0.15
   5   7 -12    2.73    0.16
  -4   7  12    1.73    0.12
  -4   7  12    1.57    0.11
   4   7 -12    1.53    0.13
   3   7 -12    5.14    0.24
   3   7 -12    5.06    0.22
  -3   7  12    5.27    0.23
   3   7 -12    4.87    0.23
  -3   7  12    4.92    0.22
  -2   7  12    2.00    0.12
  -2   7  12    2.05    0.14
   2   7 -12    1.75    0.13
   1   7 -12    0.38    0.08
  -1   7  12    0.54    0.08
   1   7 -12    0.33    0.09
   0   7  12    4.21    0.19
   0   7 -12    4.64    0.21
   0   7 -12    4.17    0.19
  -1   7 -12    1.86    0.11
   1   7  12    1.66    0.10
  -1   7 -12    1.77    0.13
  -2   7 -12    0.11    0.04
  -2   7 -12   -0.01    0.05
   2   7  12    0.09    0.04
   3   7  12    5.66    0.22
  -3   7 -12    5.62    0.22
  16   0 -13    0.00    0.05
 -16   0  13    0.05    0.10
  15   0 -13   75.23    2.57
  14   0 -13    0.17    0.07
  13   0 -13    0.76    0.13
  12   0 -13   -0.08    0.08
  12   0 -13    0.01    0.11
  11   0 -13   11.67    0.47
  11   0 -13   11.13    0.54
  10   0 -13   -0.04    0.10
  10   0 -13    0.00    0.10
   9   0 -13    4.44    0.27
   9   0 -13    4.33    0.29
   8   0 -13    0.04    0.13
   8   0 -13    0.04    0.10
   6   0 -13    0.00    0.11
   6   0 -13    0.08    0.09
   5   0 -13    3.98    0.25
   5   0 -13    4.41    0.27
   4   0 -13    0.06    0.09
   4   0 -13   -0.09    0.09
   3   0 -13   71.93    2.45
   3   0 -13   71.63    2.45
   3   0 -13   70.33    2.50
   2   0 -13    0.14    0.09
   2   0 -13    0.07    0.09
   2   0 -13   -0.15    0.08
   1   0 -13   19.20    0.75
   1   0 -13   20.64    0.80
   1   0 -13   20.97    0.75
   0   0 -13   -0.10    0.07
   0   0 -13    0.07    0.09
   0   0 -13    0.03    0.07
  -1   0 -13    1.89    0.15
  -1   0 -13    1.57    0.15
  -1   0 -13    1.88    0.19
  -2   0 -13    0.12    0.07
  -2   0 -13    0.06    0.07
  -2   0 -13    0.09    0.10
  -3   0 -13    1.26    0.14
  -3   0 -13    1.41    0.19
  -3   0 -13    1.25    0.14
  -4   0 -13    0.21    0.07
  -4   0 -13   -0.02    0.10
  -4   0 -13    0.01    0.07
  -5   0 -13   10.34    0.49
  -5   0 -13   11.05    0.45
  -5   0 -13   11.23    0.45
  -6   0 -13    0.04    0.05
  -6   0 -13    0.13    0.11
  -6   0 -13   -0.09    0.06
  -8   0 -13    0.14    0.07
  -8   0 -13   -0.04    0.05
  -9   0 -13    1.82    0.13
  -9   0 -13    1.87    0.15
  17   1 -13   20.98    0.74
  16  -1 -13    1.89    0.13
 -16  -1  13    2.27    0.18
 -16   1  13    1.87    0.21
  16   1 -13    1.70    0.12
  15  -1 -13    0.31    0.08
  15   1 -13    0.40    0.10
  14  -1 -13    0.58    0.12
  14   1 -13    0.31    0.08
  13  -1 -13    0.59    0.13
  13  -1 -13    0.40    0.13
  13   1 -13    0.39    0.12
  12  -1 -13    5.11    0.27
  12  -1 -13    4.66    0.32
  12   1 -13    5.20    0.25
  12   1 -13    4.54    0.31
  11  -1 -13    1.67    0.22
  11  -1 -13    2.28    0.20
  11   1 -13    1.88    0.22
  11   1 -13    2.03    0.17
  10  -1 -13    3.06    0.23
  10  -1 -13    2.18    0.23
  10   1 -13    2.08    0.23
  10   1 -13    2.61    0.19
   9  -1 -13   60.81    2.19
   9   1 -13   63.45    2.19
   9   1 -13   58.50    2.11
   8  -1 -13   21.07    0.85
   8  -1 -13   20.95    0.79
   8   1 -13   21.78    0.84
   8   1 -13   20.36    0.78
   7  -1 -13   15.24    0.62
   7  -1 -13   16.32    0.68
   7   1 -13   16.78    0.67
   6  -1 -13   20.29    0.81
   6  -1 -13   19.76    0.75
   6   1 -13   20.02    0.79
   5  -1 -13   17.27    0.69
   5  -1 -13   16.38    0.62
   5   1 -13   15.15    0.63
   5   1 -13   16.66    0.67
   4  -1 -13    0.60    0.12
   4  -1 -13    0.80    0.14
   4  -1 -13    0.85    0.16
   4   1 -13    1.00    0.16
   4   1 -13    0.72    0.18
   3  -1 -13    6.81    0.35
   3  -1 -13    6.50    0.31
   3  -1 -13    6.56    0.31
   3   1 -13    6.61    0.32
   3   1 -13    6.82    0.35
   3   1 -13    6.63    0.31
   2  -1 -13    3.37    0.20
   2  -1 -13    3.40    0.20
   2  -1 -13    3.40    0.24
   2   1 -13    3.26    0.21
   2   1 -13    3.55    0.21
   2   1 -13    3.37    0.24
   1  -1 -13   49.63    1.78
   1  -1 -13   52.17    1.78
   1  -1 -13   52.59    1.84
   1   1 -13   49.83    1.78
   1   1 -13   51.21    1.78
   1   1 -13   51.78    1.82
   0  -1 -13   11.41    0.45
   0  -1 -13   11.13    0.50
   0  -1 -13   11.39    0.46
   0   1 -13   11.15    0.46
   0   1 -13   11.05    0.46
   0   1 -13   11.64    0.50
  -1  -1 -13    9.35    0.38
  -1  -1 -13    9.07    0.38
  -1  -1 -13    9.36    0.43
  -1   1 -13    8.79    0.38
  -1   1 -13    8.69    0.39
  -2  -1 -13   14.69    0.57
  -2  -1 -13   14.60    0.57
  -2  -1 -13   14.80    0.63
  -2   1 -13   14.46    0.57
  -2   1 -13   15.30    0.58
  -3  -1 -13   30.70    1.11
  -3  -1 -13   29.45    1.04
  -3  -1 -13   28.96    1.05
  -3   1 -13   26.78    1.04
  -3   1 -13   28.41    1.05
  -4  -1 -13    0.17    0.10
  -4  -1 -13    0.12    0.07
  -4  -1 -13    0.05    0.06
  -4   1 -13    0.02    0.06
  -4   1 -13    0.08    0.07
  -4   1 -13    0.05    0.17
  -5  -1 -13    0.06    0.06
  -5  -1 -13    0.14    0.11
  -5  -1 -13    0.15    0.08
  -5   1 -13    0.14    0.07
  -5   1 -13    0.10    0.07
  -6  -1 -13    5.64    0.28
  -6  -1 -13    5.71    0.27
  -6  -1 -13    5.45    0.33
  -6   1 -13    6.01    0.28
  -6   1 -13    6.21    0.28
  -7  -1 -13    1.53    0.15
  -7  -1 -13    1.40    0.20
  -7  -1 -13    1.57    0.13
  -7   1 -13    1.44    0.14
  -7   1 -13    1.62    0.13
  -8  -1 -13    0.08    0.05
  -8  -1 -13    0.20    0.11
  -8  -1 -13    0.14    0.09
  -8   1 -13    0.13    0.05
  -8   1 -13    0.11    0.06
  -9  -1 -13    7.94    0.40
  -9   1 -13    8.18    0.32
  -9   1 -13    7.53    0.31
 -10   1 -13    0.04    0.08
 -10   1 -13    0.09    0.07
  16  -2 -13    0.37    0.09
  16   2 -13    0.42    0.08
  15  -2 -13    0.15    0.07
 -15  -2  13    0.03    0.09
  15   2 -13    0.01    0.05
  14  -2 -13   -0.01    0.07
  14   2 -13    0.05    0.06
  13  -2 -13   17.27    0.72
  13  -2 -13   17.05    0.65
  13   2 -13   17.25    0.65
  12  -2 -13    3.76    0.23
  12  -2 -13    3.17    0.27
  12   2 -13    3.84    0.21
  11  -2 -13   14.05    0.64
  11   2 -13   14.10    0.63
 -11   2  13   15.06    0.58
  11   2 -13   14.96    0.57
  10  -2 -13   19.79    0.85
  10   2 -13   20.96    0.84
  10   2 -13   21.42    0.78
   9  -2 -13   31.70    1.22
   9   2 -13   32.93    1.20
   9   2 -13   30.27    1.13
   8  -2 -13    7.67    0.40
   8   2 -13    7.27    0.34
   8   2 -13    7.45    0.40
   7  -2 -13    1.19    0.18
   7  -2 -13    1.33    0.15
   7   2 -13    0.83    0.13
   7   2 -13    1.16    0.19
   6  -2 -13    2.43    0.19
   6  -2 -13    2.54    0.22
   6   2 -13    2.62    0.22
   6   2 -13    2.67    0.22
   5  -2 -13   13.36    0.58
   5   2 -13   12.64    0.56
   4   2 -13    5.09    0.30
   3  -2 -13    1.82    0.19
   3  -2 -13    2.00    0.17
   3  -2 -13    1.62    0.16
   3   2 -13    1.75    0.19
   3   2 -13    1.62    0.20
   2  -2 -13    0.21    0.10
   2  -2 -13    0.43    0.12
   2  -2 -13    0.19    0.08
   2   2 -13    0.20    0.10
   2   2 -13    0.10    0.13
   2   2 -13    0.21    0.09
   1  -2 -13   42.10    1.50
   1  -2 -13   41.92    1.56
   1   2 -13   44.44    1.51
   1   2 -13   42.56    1.50
   0  -2 -13    3.95    0.22
   0  -2 -13    4.01    0.22
   0  -2 -13    4.32    0.27
   0   2 -13    3.94    0.22
   0   2 -13    3.71    0.23
  -1  -2 -13    0.45    0.12
  -1  -2 -13    0.54    0.11
  -1  -2 -13    0.71    0.16
  -1   2 -13    0.48    0.13
  -1   2 -13    0.39    0.09
  -2  -2 -13   21.66    0.81
  -2  -2 -13   22.14    0.81
  -2  -2 -13   23.10    0.88
  -2   2 -13   21.18    0.81
  -2   2 -13   20.85    0.81
  -3  -2 -13    1.24    0.13
  -3  -2 -13    1.18    0.14
  -3  -2 -13    1.05    0.18
  -3   2 -13    0.82    0.14
  -3   2 -13    1.23    0.14
  -4  -2 -13    3.53    0.26
  -4  -2 -13    3.68    0.22
  -4  -2 -13    3.69    0.21
  -4   2 -13    3.85    0.22
  -4   2 -13    3.70    0.21
  -5  -2 -13   18.04    0.77
  -5  -2 -13   19.51    0.71
  -5  -2 -13   19.17    0.71
  -5   2 -13   18.71    0.72
  -5   2 -13   19.46    0.72
  -6  -2 -13   17.54    0.66
  -6  -2 -13   15.71    0.71
  -6  -2 -13   18.68    0.66
  -6   2 -13   17.75    0.66
  -6   2 -13   18.09    0.67
   7  -2  13    6.18    0.31
  -7  -2 -13    6.49    0.29
  -7  -2 -13    6.39    0.34
  -7   2 -13    6.39    0.28
  -7   2 -13    6.14    0.28
  -8  -2 -13    0.60    0.16
   8  -2  13    0.65    0.15
  -8   2 -13    0.69    0.10
  -8   2 -13    0.45    0.09
  -9  -2 -13    3.65    0.24
   9  -2  13    3.71    0.21
  -9   2 -13    3.59    0.18
  -9   2 -13    3.46    0.18
 -10   2 -13    0.31    0.10
  15  -3 -13    0.53    0.11
  15   3 -13    0.55    0.08
 -14  -3  13   12.92    0.52
  14  -3 -13   12.30    0.47
  14   3 -13   12.33    0.47
 -13  -3  13    0.57    0.17
  13  -3 -13    0.49    0.14
  12  -3 -13    0.07    0.09
  12  -3 -13   -0.02    0.13
  12   3 -13   -0.02    0.08
 -12   3  13   -0.02    0.10
  12   3 -13    0.08    0.07
  10  -3 -13    2.99    0.26
  10   3 -13    3.06    0.20
 -10   3  13    3.02    0.21
   9  -3 -13    0.10    0.12
   9   3 -13   -0.12    0.09
   9   3 -13    0.05    0.08
   8  -3 -13    8.53    0.44
   8   3 -13    8.37    0.37
   7  -3 -13   17.17    0.72
   7   3 -13   16.66    0.64
   7   3 -13   16.49    0.67
   6  -3 -13    3.68    0.22
   6  -3 -13    3.75    0.27
   6   3 -13    3.28    0.27
   6   3 -13    3.51    0.23
   5  -3 -13    4.87    0.25
   5  -3 -13    4.82    0.31
   5   3 -13    5.05    0.31
   5   3 -13    4.61    0.27
  -5   3  13    5.18    0.27
   4  -3 -13    0.25    0.08
   4  -3 -13    0.06    0.10
   4   3 -13    0.13    0.11
   4   3 -13   -0.15    0.10
   4   3 -13   -0.08    0.12
   3  -3 -13    5.48    0.32
   3  -3 -13    5.20    0.27
   3   3 -13    5.28    0.32
   3   3 -13    5.45    0.28
   2  -3 -13    0.46    0.10
   2  -3 -13    0.50    0.15
   2   3 -13    0.60    0.14
   2   3 -13    0.69    0.18
   2   3 -13    0.50    0.13
   1  -3 -13    9.03    0.38
   1  -3 -13    9.74    0.46
   1   3 -13    9.03    0.39
   1   3 -13    8.60    0.43
   1   3 -13    9.09    0.40
   0  -3 -13   10.11    0.46
   0  -3 -13    8.86    0.39
   0   3 -13    9.07    0.40
   0   3 -13    9.30    0.40
   0   3 -13    9.37    0.43
  -1  -3 -13    3.97    0.27
  -1  -3 -13    3.34    0.21
  -1   3 -13    3.68    0.27
  -1   3 -13    3.51    0.22
  -1   3 -13    3.89    0.22
  -2  -3 -13    4.84    0.25
  -2  -3 -13    4.58    0.30
  -2   3 -13    4.99    0.31
  -2   3 -13    4.96    0.26
  -2   3 -13    4.88    0.26
  -3  -3 -13    0.21    0.08
  -3  -3 -13    0.18    0.10
  -3   3 -13    0.23    0.10
  -3   3 -13    0.43    0.11
  -3   3 -13    0.50    0.13
  -4  -3 -13    1.55    0.16
  -4  -3 -13    1.17    0.18
  -4   3 -13    1.54    0.14
  -4   3 -13    1.63    0.15
  -5  -3 -13    4.69    0.29
  -5  -3 -13    4.78    0.24
  -5   3 -13    4.60    0.24
  -5   3 -13    4.64    0.24
  -6  -3 -13    0.05    0.10
  -6   3 -13    0.09    0.06
  -6   3 -13    0.03    0.05
  -7  -3 -13    0.47    0.15
  -7   3 -13    0.82    0.10
  -7   3 -13    0.77    0.10
   8  -3  13    0.18    0.07
  -8  -3 -13    0.11    0.09
  -8   3 -13    0.31    0.08
  -8   3 -13    0.32    0.08
   9  -3  13    2.30    0.16
  -9  -3 -13    2.08    0.19
   9   3  13    1.89    0.14
  -9   3 -13    2.17    0.12
  -9   3 -13    2.29    0.13
  14   4 -13   -0.01    0.08
  14   4 -13    0.12    0.05
  13   4 -13    1.44    0.15
 -13   4  13    1.90    0.17
  13   4 -13    1.65    0.12
 -12   4  13    2.47    0.17
  12   4 -13    2.24    0.17
  12   4 -13    2.43    0.15
  11   4 -13    4.18    0.23
 -11   4  13    4.17    0.22
  11   4 -13    4.28    0.21
  10  -4 -13    5.41    0.37
  10   4 -13    5.49    0.28
  10   4 -13    5.40    0.26
 -10   4  13    5.75    0.27
   9  -4 -13    1.20    0.22
   9   4 -13    1.06    0.17
   9   4 -13    1.15    0.14
  -9   4  13    1.53    0.15
   8  -4 -13    2.73    0.26
   8   4 -13    3.03    0.21
   8   4 -13    3.05    0.19
   7  -4 -13    4.03    0.30
   7   4 -13    4.81    0.25
   7   4 -13    5.47    0.28
   6  -4 -13    8.84    0.45
   6   4 -13    9.27    0.42
   6   4 -13    9.70    0.40
   5  -4 -13    4.55    0.31
  -5   4  13    5.31    0.26
   5   4 -13    5.11    0.27
   5   4 -13    5.36    0.30
   4  -4 -13    5.55    0.27
   4  -4 -13    5.24    0.33
   4   4 -13    5.83    0.29
   4   4 -13    5.63    0.31
  -4   4  13    5.63    0.27
   3  -4 -13    4.00    0.22
   3  -4 -13    4.11    0.28
   3   4 -13    4.32    0.27
   3   4 -13    3.90    0.24
  -3   4  13    4.08    0.22
   2  -4 -13    0.05    0.07
   2  -4 -13    0.02    0.10
   2   4 -13    0.15    0.08
   2   4 -13    0.10    0.10
   2   4 -13   -0.06    0.13
   2   4 -13    0.23    0.12
   1  -4 -13    8.25    0.42
   1  -4 -13    8.71    0.36
   1   4 -13    8.05    0.37
   1   4 -13    8.41    0.37
   1   4 -13    8.54    0.40
   0  -4 -13    4.64    0.30
   0  -4 -13    4.63    0.24
   0   4 -13    4.59    0.27
   0   4 -13    4.66    0.25
   0   4 -13    4.81    0.25
  -1  -4 -13    3.75    0.27
  -1  -4 -13    4.52    0.23
  -1   4 -13    4.04    0.26
  -1   4 -13    4.35    0.24
  -1   4 -13    3.96    0.23
  -2  -4 -13    1.80    0.16
  -2  -4 -13    1.40    0.18
  -2   4 -13    1.69    0.15
  -2   4 -13    1.81    0.16
  -2   4 -13    1.42    0.19
  -3  -4 -13    1.76    0.16
  -3  -4 -13    1.73    0.19
  -3   4 -13    1.54    0.19
  -3   4 -13    2.12    0.16
  -3   4 -13    1.63    0.14
  -4  -4 -13    2.91    0.24
  -4  -4 -13    3.75    0.21
  -4   4 -13    3.38    0.19
  -4   4 -13    3.38    0.22
  -4   4 -13    3.01    0.19
  -5  -4 -13    0.27    0.10
  -5   4 -13    0.21    0.07
  -5   4 -13    0.19    0.06
  -6  -4 -13    0.72    0.15
  -6   4 -13    0.79    0.09
   6   4  13    0.86    0.09
  -6   4 -13    0.83    0.10
  -7  -4 -13    0.81    0.15
  -7   4 -13    0.83    0.09
   7   4  13    0.59    0.09
  -7   4 -13    0.83    0.09
  -8  -4 -13    2.96    0.23
   8  -4  13    3.49    0.17
   8   4  13    3.35    0.16
  -8   4 -13    3.34    0.16
  -8   4 -13    3.26    0.16
  13   5 -13    0.02    0.04
  13   5 -13    0.03    0.07
 -12   5  13   17.67    0.66
  12   5 -13   18.78    0.66
  12   5 -13   18.76    0.67
  11   5 -13    0.10    0.06
  11   5 -13   -0.03    0.05
 -11   5  13   -0.01    0.06
 -10   5  13   12.92    0.50
  10   5 -13   12.71    0.49
  10   5 -13   13.40    0.51
  -9   5  13    4.07    0.21
   9   5 -13    4.15    0.21
   9   5 -13    4.17    0.22
   8   5 -13    0.07    0.07
  -8   5  13    0.01    0.06
   8   5 -13    0.02    0.07
   7   5 -13    5.93    0.29
  -7   5  13    6.09    0.28
   7   5 -13    6.14    0.28
   6  -5 -13    3.57    0.31
   6   5 -13    3.72    0.21
   6   5 -13    3.78    0.23
   5  -5 -13    0.39    0.15
  -5   5  13    0.43    0.13
   5   5 -13    0.27    0.08
   5   5 -13    0.48    0.10
   4  -5 -13    1.13    0.21
  -4   5  13    1.19    0.13
   4   5 -13    1.60    0.16
   4   5 -13    1.38    0.17
   3  -5 -13    0.41    0.14
   3   5 -13    0.49    0.15
   3   5 -13    0.70    0.14
  -3   5  13    0.67    0.11
   3   5 -13    0.49    0.15
   2  -5 -13    2.35    0.25
   2   5 -13    2.58    0.20
  -2   5  13    2.72    0.17
   2   5 -13    2.93    0.19
   2   5 -13    2.95    0.21
   1  -5 -13    5.43    0.32
   1   5 -13    5.09    0.28
   1   5 -13    5.51    0.27
  -1   5  13    5.56    0.26
   0  -5 -13    3.95    0.27
   0   5 -13    3.85    0.22
   0   5  13    4.00    0.21
   0   5 -13    3.76    0.23
  -1  -5 -13    0.36    0.12
  -1   5 -13    0.14    0.06
  -1   5 -13    0.22    0.08
  -1   5 -13    0.13    0.07
   1   5  13    0.34    0.09
  -2  -5 -13    1.85    0.20
   2   5  13    1.70    0.13
  -2   5 -13    1.86    0.15
  -2   5 -13    1.82    0.17
  -2   5 -13    1.81    0.14
  -3  -5 -13    0.55    0.18
  -3   5 -13    0.75    0.10
   3   5  13    0.88    0.10
  -3   5 -13    0.88    0.12
  -3   5 -13    0.60    0.13
  -4  -5 -13   24.08    0.89
  -4   5 -13   23.07    0.86
  -4   5 -13   22.94    0.83
   4   5  13   23.22    0.84
  -4   5 -13   23.24    0.84
  -5  -5 -13    0.03    0.10
  -5   5 -13   -0.01    0.05
   5   5  13    0.08    0.04
  -5   5 -13    0.02    0.04
  -6  -5 -13    3.73    0.26
  -6   5 -13    3.90    0.18
   6   5  13    3.93    0.17
  -6   5 -13    3.88    0.18
   7  -5  13    0.59    0.10
  -7   5 -13    0.40    0.07
   7   5  13    0.37    0.08
  -7   5 -13    0.43    0.07
  11   6 -13   -0.07    0.05
  11   6 -13    0.08    0.05
 -11   6  13    0.08    0.05
 -10   6  13    3.67    0.17
  10   6 -13    3.56    0.17
  10   6 -13    3.74    0.18
  -9   6  13    2.35    0.14
   9   6 -13    2.52    0.14
   9   6 -13    2.59    0.15
  -8   6  13    0.03    0.05
   8   6 -13    0.14    0.06
   8   6 -13    0.05    0.06
   7   6 -13   15.97    0.61
   7   6 -13   15.94    0.59
  -7   6  13   16.39    0.60
   6   6 -13    1.97    0.14
   6   6 -13    2.16    0.15
  -6   6  13    1.80    0.13
  -5   6  13    7.57    0.32
  -5   6  13    8.02    0.33
   5   6 -13    7.50    0.34
   5   6 -13    7.85    0.33
  -4   6  13    2.71    0.15
   4   6 -13    2.53    0.18
   4   6 -13    2.58    0.17
  -4   6  13    2.73    0.17
  -3   6  13    7.97    0.33
   3   6 -13    7.87    0.33
   3   6 -13    8.03    0.35
  -3   6  13    7.88    0.33
   3   6 -13    7.95    0.33
  -2   6  13    5.20    0.24
   2   6 -13    4.91    0.25
   2   6 -13    5.23    0.24
  -2   6  13    5.10    0.23
   1   6 -13    0.49    0.10
   1   6 -13    0.35    0.11
  -1   6  13    0.47    0.11
   0   6  13    1.96    0.16
   0   6  13    2.30    0.14
   0   6 -13    2.27    0.16
   0   6 -13    2.50    0.15
  -1   6 -13    0.10    0.05
  -1   6 -13    0.10    0.07
   1   6  13    0.15    0.05
  -2   6 -13    1.95    0.14
   2   6  13    1.63    0.11
  -2   6 -13    1.75    0.14
  -2   6 -13    1.63    0.12
  -3   6 -13    5.54    0.23
  -3   6 -13    5.39    0.23
   3   6  13    5.39    0.23
  -4   6 -13    3.84    0.17
   4   6  13    3.92    0.17
  -4   6 -13    3.65    0.17
  -5   6 -13    4.13    0.18
  -5   6 -13    4.19    0.18
   5   6  13    4.45    0.18
  -7   7  13    0.11    0.05
   7   7 -13    0.04    0.05
   7   7 -13    0.06    0.05
  -6   7  13    5.68    0.23
   6   7 -13    5.72    0.25
  -5   7  13    5.40    0.23
  -4   7  13    2.78    0.15
  -4   7  13    3.39    0.16
  -3   7  13    2.20    0.12
  -3   7  13    2.17    0.14
   3   7 -13    1.96    0.13
  -2   7  13    9.97    0.36
  -2   7  13    9.79    0.37
   2   7 -13    8.74    0.36
  -1   7  13    0.52    0.07
   1   7 -13    0.54    0.10
   0   7 -13   -0.03    0.05
   0   7 -13   -0.01    0.04
   0   7  13    0.02    0.04
  -1   7 -13    1.86    0.12
   1   7  13    1.88    0.10
  -1   7 -13    1.88    0.11
  16   0 -14    0.18    0.06
 -16   0  14    0.17    0.09
  15   0 -14    0.07    0.06
  14   0 -14   64.28    2.21
  13   0 -14   -0.06    0.07
  13   0 -14    0.04    0.10
  12   0 -14    4.52    0.32
  12   0 -14    5.15    0.26
  11   0 -14   -0.05    0.09
  11   0 -14    0.08    0.11
  10   0 -14    2.28    0.21
  10   0 -14    2.33    0.23
   9   0 -14   -0.02    0.12
   9   0 -14    0.02    0.09
   8   0 -14    3.46    0.26
   7   0 -14   -0.10    0.12
   7   0 -14    0.05    0.08
   6   0 -14   20.32    0.77
   6   0 -14   20.82    0.83
   5   0 -14    0.12    0.09
   5   0 -14   -0.10    0.08
   4   0 -14   19.65    0.75
   4   0 -14   20.58    0.81
   3   0 -14    0.14    0.10
   3   0 -14    0.03    0.08
   3   0 -14    0.16    0.08
   2   0 -14   34.55    1.22
   2   0 -14   28.36    1.16
   2   0 -14   35.07    1.17
   1   0 -14   -0.08    0.07
   1   0 -14    0.42    0.12
   1   0 -14   -0.03    0.09
   0   0 -14    2.13    0.21
   0   0 -14    2.36    0.17
   0   0 -14    2.21    0.17
  -1   0 -14    0.38    0.12
  -1   0 -14    0.40    0.15
  -2   0 -14   48.90    1.70
  -2   0 -14   49.01    1.75
  -2   0 -14   47.60    1.70
  -3   0 -14    0.06    0.11
  -3   0 -14    0.09    0.07
  -3   0 -14   -0.01    0.07
  -4   0 -14    1.01    0.12
  -4   0 -14    0.79    0.19
  -4   0 -14    1.12    0.14
  -5   0 -14    0.01    0.07
  -5   0 -14    0.12    0.12
  -5   0 -14   -0.04    0.05
  -6   0 -14    3.98    0.21
  -6   0 -14    4.42    0.22
  -7   0 -14    0.04    0.06
  -7   0 -14   -0.07    0.05
  -8   0 -14    9.53    0.37
  -8   0 -14    9.35    0.37
  -9   0 -14    0.00    0.12
  16  -1 -14   11.67    0.43
 -16  -1  14   11.17    0.48
  16   1 -14   12.41    0.44
  15  -1 -14    2.98    0.17
  15   1 -14    2.90    0.16
  14  -1 -14    3.31    0.19
  14   1 -14    3.56    0.19
  13  -1 -14    0.24    0.09
  13  -1 -14    0.24    0.12
  13   1 -14    0.36    0.12
  12  -1 -14    2.89    0.26
  12  -1 -14    3.36    0.21
  12   1 -14    2.92    0.19
  12   1 -14    2.91    0.24
  11  -1 -14    1.22    0.20
  11   1 -14    1.29    0.16
  11   1 -14    1.39    0.20
  10  -1 -14   12.27    0.58
  10   1 -14   12.97    0.51
  10   1 -14   12.38    0.57
   9  -1 -14   24.32    1.04
   9   1 -14   28.15    1.04
   9   1 -14   27.12    0.97
   8  -1 -14    2.47    0.21
   8  -1 -14    2.60    0.23
   8   1 -14    2.62    0.23
   7  -1 -14   22.99    0.87
   7  -1 -14   23.93    0.94
   7   1 -14   23.58    0.92
   6  -1 -14    4.25    0.28
   6  -1 -14    4.25    0.24
   6   1 -14    4.26    0.28
   5  -1 -14    1.30    0.18
   5  -1 -14    1.02    0.15
   5   1 -14    1.24    0.18
   5   1 -14    1.02    0.19
   4  -1 -14   12.40    0.55
   4  -1 -14   12.18    0.49
   4   1 -14   12.19    0.50
   4   1 -14   12.48    0.54
   3  -1 -14    1.69    0.19
   3  -1 -14    1.74    0.16
   3  -1 -14    1.65    0.16
   3   1 -14    1.65    0.18
   3   1 -14    1.66    0.18
   3   1 -14    1.54    0.20
   2  -1 -14   10.07    0.42
   2  -1 -14   10.24    0.48
   2   1 -14    9.95    0.43
   2   1 -14   10.97    0.48
   2   1 -14    9.53    0.42
   1  -1 -14    1.90    0.20
   1  -1 -14    1.72    0.16
   1  -1 -14    2.07    0.16
   1   1 -14    2.03    0.17
   1   1 -14    2.08    0.22
   1   1 -14    2.27    0.17
   0  -1 -14    0.26    0.11
   0  -1 -14    0.09    0.07
   0  -1 -14    0.07    0.07
   0   1 -14    0.03    0.06
   0   1 -14    0.06    0.11
   0   1 -14    0.17    0.08
  -1  -1 -14    5.04    0.25
  -1  -1 -14    5.10    0.30
  -1  -1 -14    4.68    0.24
  -1   1 -14    4.86    0.26
  -1   1 -14    4.66    0.25
  -2  -1 -14   19.46    0.72
  -2  -1 -14   18.74    0.71
  -2  -1 -14   18.94    0.77
  -2   1 -14   18.40    0.72
  -2   1 -14   19.33    0.72
  -3  -1 -14    1.71    0.14
  -3  -1 -14    1.70    0.16
  -3  -1 -14    1.89    0.20
  -3   1 -14    1.90    0.15
  -3   1 -14    1.81    0.16
  -4  -1 -14    9.89    0.41
  -4  -1 -14    9.39    0.47
  -4  -1 -14   10.40    0.42
  -4   1 -14    9.80    0.42
  -4   1 -14    9.96    0.41
  -5  -1 -14   36.41    1.29
  -5  -1 -14   34.83    1.34
  -5  -1 -14   36.61    1.29
  -5   1 -14   36.90    1.29
  -5   1 -14   37.02    1.29
  -6  -1 -14    1.92    0.15
  -6  -1 -14    1.53    0.13
  -6  -1 -14    1.85    0.21
  -6   1 -14    1.68    0.14
  -6   1 -14    1.93    0.14
  -7  -1 -14    0.23    0.12
  -7  -1 -14    0.21    0.07
  -7  -1 -14    0.11    0.05
  -7   1 -14    0.17    0.06
  -7   1 -14    0.14    0.05
  -8  -1 -14    0.96    0.21
  -8  -1 -14    0.73    0.14
  -8   1 -14    0.84    0.09
  -8   1 -14    0.58    0.10
  -9   1 -14   -0.02    0.05
  -9   1 -14    0.00    0.06
  16  -2 -14    0.06    0.07
  16   2 -14   -0.07    0.05
 -15  -2  14    2.39    0.19
  15  -2 -14    1.96    0.15
  15   2 -14    2.47    0.14
  14  -2 -14    1.92    0.15
  14   2 -14    2.08    0.14
  13  -2 -14   19.64    0.73
  13  -2 -14   19.75    0.80
  13   2 -14   20.13    0.73
  12  -2 -14    2.88    0.26
  12   2 -14    3.35    0.19
  11  -2 -14    6.31    0.38
  11   2 -14    6.26    0.36
 -11   2  14    7.03    0.34
  11   2 -14    7.18    0.31
  10  -2 -14    6.92    0.39
  10   2 -14    7.03    0.38
  10   2 -14    7.46    0.33
   9  -2 -14    0.10    0.11
   9   2 -14    0.16    0.10
   9   2 -14    0.13    0.11
   8  -2 -14    0.27    0.11
   8   2 -14    0.40    0.13
   8   2 -14    0.29    0.11
   7  -2 -14   17.29    0.72
   7  -2 -14   15.62    0.63
   7   2 -14   16.77    0.69
   6  -2 -14   12.31    0.55
   6  -2 -14   11.23    0.48
   6   2 -14   12.16    0.53
   5  -2 -14   -0.03    0.08
   5  -2 -14    0.24    0.11
   5   2 -14   -0.08    0.12
   3  -2 -14    5.27    0.27
   3  -2 -14    6.05    0.34
   3  -2 -14    5.70    0.27
   3   2 -14    5.70    0.29
   3   2 -14    5.33    0.29
   2  -2 -14    0.51    0.13
   2  -2 -14    0.57    0.15
   2  -2 -14    0.64    0.13
   2   2 -14    0.64    0.15
   2   2 -14    0.67    0.15
   1  -2 -14   55.80    2.01
   1  -2 -14   62.23    2.10
   1  -2 -14   57.31    2.01
   1   2 -14   58.48    2.02
   1   2 -14   56.41    2.02
   0  -2 -14   26.70    1.03
   0  -2 -14   26.12    0.96
   0  -2 -14   26.54    0.96
   0   2 -14   25.78    0.96
   0   2 -14   26.65    0.96
  -1  -2 -14   20.56    0.76
  -1  -2 -14   20.76    0.83
  -1  -2 -14   20.03    0.76
  -1   2 -14   20.04    0.76
  -1   2 -14   20.34    0.76
  -2  -2 -14    8.31    0.35
  -2  -2 -14    8.40    0.35
  -2  -2 -14    7.67    0.41
  -2   2 -14    8.06    0.36
  -2   2 -14    8.09    0.36
  -3  -2 -14   21.11    0.77
  -3  -2 -14   20.21    0.84
  -3  -2 -14   21.27    0.77
  -3   2 -14   20.61    0.78
  -3   2 -14   20.53    0.78
  -4  -2 -14    1.72    0.19
  -4  -2 -14    1.81    0.16
  -4  -2 -14    1.87    0.14
  -4   2 -14    1.57    0.14
  -4   2 -14    1.97    0.16
  -5  -2 -14    1.23    0.12
  -5  -2 -14    1.35    0.14
  -5  -2 -14    1.03    0.17
  -5   2 -14    1.42    0.13
  -5   2 -14    1.40    0.14
   6  -2  14   19.48    0.74
  -6  -2 -14   19.48    0.71
  -6  -2 -14   19.92    0.78
  -6   2 -14   19.84    0.73
  -6   2 -14   19.45    0.73
  -7  -2 -14    5.84    0.31
  -7  -2 -14    5.69    0.34
  -7   2 -14    5.51    0.25
  -7   2 -14    5.59    0.25
  -8  -2 -14    0.18    0.11
  -8   2 -14    0.11    0.05
  -8   2 -14    0.08    0.05
   9   2  14    0.33    0.10
  -9   2 -14    0.45    0.08
  -9   2 -14    0.29    0.09
  15   3 -14    6.10    0.25
 -14  -3  14    1.52    0.21
  14   3 -14    1.44    0.12
 -13  -3  14    7.99    0.38
  13   3 -14    7.83    0.32
  12  -3 -14    3.57    0.29
  12   3 -14    3.59    0.20
 -12   3  14    3.74    0.23
  11  -3 -14    2.84    0.26
  11   3 -14    2.76    0.17
 -11   3  14    2.70    0.19
  10  -3 -14    5.43    0.34
  10   3 -14    5.69    0.27
   9  -3 -14    4.41    0.32
   9   3 -14    5.27    0.26
   7  -3 -14    1.17    0.19
   7   3 -14    0.97    0.17
   6   3 -14    3.83    0.25
   5  -3 -14   67.95    2.21
   5  -3 -14   54.07    2.26
  -5   3  14   68.87    2.20
   4  -3 -14    0.76    0.13
   3  -3 -14    0.09    0.07
   3   3 -14    0.07    0.13
   3   3 -14   -0.10    0.11
   3   3 -14    0.02    0.09
   2  -3 -14    2.44    0.23
   2  -3 -14    2.99    0.19
   2   3 -14    3.02    0.20
   2   3 -14    2.80    0.22
   1  -3 -14    3.11    0.26
   1  -3 -14    3.45    0.20
   1   3 -14    3.40    0.21
   1   3 -14    3.76    0.23
   0  -3 -14   21.17    0.86
   0  -3 -14   21.07    0.78
   0   3 -14   21.47    0.79
   0   3 -14   21.04    0.79
  -1  -3 -14    0.77    0.13
  -1  -3 -14    0.78    0.17
  -1   3 -14    1.04    0.14
  -1   3 -14    1.22    0.13
  -2  -3 -14    1.18    0.13
  -2  -3 -14    1.22    0.17
  -2   3 -14    1.53    0.15
  -2   3 -14    1.21    0.14
  -3  -3 -14    8.47    0.43
  -3  -3 -14    8.90    0.37
  -3   3 -14    8.76    0.38
  -3   3 -14    8.81    0.38
  -4  -3 -14    8.34    0.35
  -4  -3 -14    8.27    0.42
  -4   3 -14    8.35    0.36
  -4   3 -14    8.76    0.36
  -5  -3 -14    3.26    0.20
  -5  -3 -14    3.21    0.23
  -5   3 -14    3.12    0.18
  -5   3 -14    3.19    0.18
  -6  -3 -14    1.94    0.19
  -6   3 -14    1.78    0.13
  -6   3 -14    1.86    0.13
  -7  -3 -14    8.99    0.41
   7  -3  14    8.71    0.37
  -7   3 -14    9.27    0.36
  -7   3 -14    9.09    0.36
  -8  -3 -14    0.23    0.11
   8  -3  14    0.09    0.10
  -8   3 -14    0.17    0.05
  -8   3 -14    0.10    0.04
   8   3  14    0.11    0.05
  14   4 -14    0.39    0.08
  13   4 -14    4.81    0.21
  13   4 -14    4.50    0.25
 -12   4  14    0.18    0.08
  12   4 -14    0.12    0.06
 -11   4  14   10.09    0.40
  11   4 -14    9.73    0.41
  11   4 -14    9.68    0.39
  10  -4 -14    0.38    0.17
 -10   4  14    0.63    0.12
  10   4 -14    0.67    0.12
  10   4 -14    0.60    0.15
   9  -4 -14    0.27    0.13
   9   4 -14    0.55    0.12
  -9   4  14    0.25    0.07
   9   4 -14    0.52    0.15
   8  -4 -14    1.97    0.23
   8   4 -14    2.03    0.19
   8   4 -14    2.06    0.17
   7  -4 -14    1.76    0.21
   7   4 -14    1.69    0.17
   7   4 -14    1.58    0.20
   6  -4 -14    3.40    0.27
   6   4 -14    3.38    0.22
   6   4 -14    3.29    0.24
   5  -4 -14    4.14    0.29
   5   4 -14    4.59    0.25
  -5   4  14    4.41    0.24
   5   4 -14    4.74    0.28
   4  -4 -14    1.67    0.22
   4  -4 -14    2.15    0.16
   4   4 -14    2.38    0.22
  -4   4  14    2.09    0.16
   3  -4 -14   19.80    0.74
   3  -4 -14   18.52    0.80
   3   4 -14   20.07    0.74
   3   4 -14   20.21    0.76
  -3   4  14   20.12    0.73
   2  -4 -14    0.49    0.17
   2  -4 -14    0.44    0.11
   2   4 -14    0.31    0.11
   2   4 -14    0.63    0.13
   2   4 -14    0.09    0.11
   1  -4 -14    0.64    0.12
   1  -4 -14    0.32    0.11
   1   4 -14    0.10    0.08
   1   4 -14    0.19    0.07
   1   4 -14    0.34    0.10
   0  -4 -14    0.38    0.11
   0  -4 -14    0.47    0.16
   0   4 -14    0.33    0.09
   0   4 -14    0.36    0.11
   0   4 -14    0.22    0.09
  -1  -4 -14   25.85    1.07
  -1  -4 -14   28.93    1.01
  -1   4 -14   28.63    1.02
  -1   4 -14   28.79    1.04
  -1   4 -14   28.42    1.01
  -2  -4 -14    1.31    0.14
  -2  -4 -14    1.47    0.18
  -2   4 -14    1.32    0.18
  -2   4 -14    1.49    0.14
  -2   4 -14    1.26    0.14
  -3  -4 -14    0.05    0.09
  -3  -4 -14   -0.03    0.07
  -3   4 -14    0.05    0.06
  -3   4 -14   -0.01    0.05
  -3   4 -14    0.07    0.08
  -4  -4 -14    0.35    0.13
  -4  -4 -14    0.26    0.09
  -4   4 -14    0.14    0.05
  -4   4 -14    0.19    0.07
  -5  -4 -14    3.50    0.23
   5   4  14    3.19    0.17
  -5   4 -14    3.28    0.18
  -5   4 -14    3.43    0.18
  -6  -4 -14    2.41    0.19
  -6   4 -14    2.38    0.14
   6   4  14    2.46    0.13
  -6   4 -14    2.58    0.14
  -7  -4 -14    0.80    0.22
   7  -4  14    1.01    0.13
  -7   4 -14    0.90    0.08
   7   4  14    0.92    0.09
  -7   4 -14    0.75    0.08
 -12   5  14    1.26    0.11
  12   5 -14    1.12    0.10
  12   5 -14    1.16    0.14
  11   5 -14    2.63    0.14
  11   5 -14    2.25    0.17
 -11   5  14    2.94    0.15
  10   5 -14   -0.07    0.07
  10   5 -14    0.18    0.06
 -10   5  14    0.17    0.06
  -9   5  14   -0.04    0.06
   9   5 -14    0.10    0.06
   9   5 -14   -0.04    0.07
   8   5 -14    6.81    0.31
   8   5 -14    6.94    0.29
  -8   5  14    6.56    0.30
  -7   5  14    0.61    0.10
   7   5 -14    0.45    0.13
   7   5 -14    0.40    0.11
   6  -5 -14    6.93    0.41
   6   5 -14    7.28    0.33
   6   5 -14    7.24    0.31
   5  -5 -14    4.03    0.31
   5   5 -14    4.48    0.25
   5   5 -14    4.84    0.24
  -5   5  14    4.68    0.23
   4  -5 -14    0.12    0.12
   4   5 -14   -0.09    0.08
   4   5 -14   -0.05    0.09
  -4   5  14    0.13    0.07
   4   5 -14   -0.10    0.09
   3  -5 -14   11.69    0.53
   3   5 -14   10.33    0.46
  -3   5  14   12.47    0.46
   3   5 -14   12.57    0.49
   2  -5 -14    3.09    0.25
  -2   5  14    2.99    0.17
   2   5 -14    2.84    0.20
   2   5 -14    3.28    0.19
   1  -5 -14    0.01    0.11
  -1   5  14    0.00    0.05
   1   5 -14   -0.03    0.06
   1   5 -14   -0.05    0.07
   0  -5 -14    9.95    0.46
   0   5 -14   10.20    0.41
   0   5  14   10.23    0.41
   0   5 -14   10.44    0.43
  -1  -5 -14    1.31    0.19
   1   5  14    1.24    0.11
  -1   5 -14    1.37    0.12
  -1   5 -14    1.15    0.14
  -1   5 -14    1.23    0.16
  -2  -5 -14    0.10    0.11
  -2   5 -14    0.04    0.07
   2   5  14    0.08    0.05
  -2   5 -14    0.20    0.08
  -2   5 -14    0.03    0.05
  -3  -5 -14    3.72    0.24
  -3   5 -14    3.55    0.18
  -3   5 -14    3.65    0.21
  -3   5 -14    3.60    0.18
   3   5  14    3.72    0.18
  -4  -5 -14    3.97    0.25
   4   5  14    3.76    0.18
  -4   5 -14    3.85    0.18
  -4   5 -14    3.91    0.18
  -5   5 -14    0.12    0.05
   5   5  14    0.19    0.06
  -5   5 -14    0.14    0.04
   6  -5  14    0.07    0.06
  -6   5 -14    0.11    0.04
  -6   5 -14    0.04    0.04
   6   5  14    0.10    0.04
  10   6 -14    0.74    0.12
 -10   6  14    0.86    0.08
  10   6 -14    0.83    0.09
   9   6 -14   57.29    2.02
   9   6 -14   59.88    2.01
  -9   6  14   60.14    2.02
  -8   6  14    1.26    0.10
   8   6 -14    1.13    0.10
   8   6 -14    1.27    0.13
   7   6 -14    4.48    0.20
  -7   6  14    4.23    0.21
   7   6 -14    4.28    0.21
   6   6 -14    0.47    0.11
   6   6 -14    0.53    0.10
  -6   6  14    0.42    0.09
  -5   6  14    0.30    0.09
   5   6 -14    0.38    0.10
   5   6 -14    0.21    0.07
  -5   6  14    0.21    0.08
   4   6 -14    4.69    0.22
   4   6 -14    4.90    0.24
  -4   6  14    4.83    0.23
  -4   6  14    4.85    0.22
   3   6 -14    0.08    0.07
  -3   6  14    0.15    0.06
  -3   6  14    0.06    0.05
   3   6 -14    0.10    0.08
   3   6 -14    0.02    0.06
  -2   6  14    3.84    0.18
   2   6 -14    3.70    0.19
   2   6 -14    4.04    0.21
  -2   6  14    3.88    0.19
   1   6 -14   13.87    0.53
  -1   6  14   15.02    0.53
  -1   6  14   14.03    0.53
   1   6 -14   14.01    0.54
   0   6 -14    4.93    0.24
   0   6  14    4.76    0.21
   0   6 -14    4.66    0.21
   0   6  14    4.71    0.23
  -1   6 -14    9.87    0.38
   1   6  14    9.91    0.38
  -2   6 -14    0.47    0.07
  -2   6 -14    0.43    0.10
   2   6  14    0.45    0.07
  -3   6 -14   10.30    0.40
   3   6  14   11.59    0.40
  -5   7  14    0.41    0.09
   4   7 -14    0.44    0.09
  -4   7  14    0.39    0.10
  -2   7  14    0.25    0.07
  16   0 -15    0.00    0.06
  15   0 -15    3.05    0.17
  14   0 -15    0.14    0.07
  13   0 -15   24.94    0.88
  13   0 -15   23.79    0.95
  12   0 -15   -0.02    0.09
  12   0 -15    0.04    0.11
  10   0 -15    0.04    0.10
  10   0 -15    0.04    0.12
   9   0 -15    2.74    0.24
   8   0 -15    0.07    0.11
   6   0 -15    0.01    0.10
   6   0 -15   -0.07    0.09
   5   0 -15    0.14    0.09
   5   0 -15    0.25    0.10
   4   0 -15    0.08    0.09
   4   0 -15   -0.12    0.10
   4   0 -15    0.00    0.09
   3   0 -15   18.75    0.73
   3   0 -15   21.14    0.80
   3   0 -15   18.97    0.73
   2   0 -15   -0.05    0.10
   2   0 -15    0.05    0.08
   2   0 -15    0.01    0.07
   1   0 -15   25.97    0.95
   1   0 -15   23.43    0.89
   1   0 -15   23.00    0.88
   0   0 -15    0.16    0.08
   0   0 -15    0.05    0.06
   0   0 -15    0.04    0.10
  -1   0 -15    1.94    0.15
  -1   0 -15    1.90    0.16
  -1   0 -15    1.71    0.20
  -2   0 -15    0.10    0.06
  -2   0 -15    0.04    0.07
  -2   0 -15    0.06    0.11
  -3   0 -15    9.61    0.47
  -3   0 -15   10.19    0.42
  -3   0 -15    9.93    0.41
  -4   0 -15    0.10    0.05
  -4   0 -15    0.07    0.07
  -4   0 -15   -0.05    0.11
  -5   0 -15    0.81    0.12
  -5   0 -15    1.02    0.11
  -6   0 -15    0.01    0.06
  -6   0 -15    0.00    0.05
  -7   0 -15    4.13    0.20
  -7   0 -15    3.88    0.19
  -8   0 -15   -0.07    0.06
  -8   0 -15    0.02    0.04
  16  -1 -15    2.90    0.17
  16   1 -15    2.43    0.14
  15  -1 -15    5.47    0.24
  15   1 -15    5.67    0.24
  14  -1 -15    0.51    0.12
  14   1 -15    0.63    0.11
  13  -1 -15    0.13    0.09
  13  -1 -15    0.08    0.10
  13   1 -15   -0.04    0.07
  12  -1 -15    1.95    0.22
  12   1 -15    1.87    0.21
  12   1 -15    1.95    0.16
  11  -1 -15   31.15    1.25
  11   1 -15   31.95    1.25
  11   1 -15   35.48    1.17
  10  -1 -15    1.90    0.22
  10   1 -15    1.97    0.22
   9  -1 -15    0.56    0.19
   9   1 -15    0.36    0.12
   8  -1 -15   12.68    0.60
   8  -1 -15   13.99    0.54
   8   1 -15   13.54    0.59
   7  -1 -15   13.67    0.60
   7  -1 -15   12.36    0.53
   7   1 -15   13.85    0.59
   6  -1 -15    0.09    0.09
   6  -1 -15   -0.05    0.08
   6   1 -15   -0.07    0.13
   6   1 -15    0.42    0.17
   5  -1 -15    3.59    0.22
   5  -1 -15    3.65    0.27
   5   1 -15    3.47    0.24
   5   1 -15    3.88    0.27
   4  -1 -15   14.56    0.62
   4  -1 -15   13.65    0.55
   4   1 -15   12.84    0.54
   4   1 -15   14.39    0.60
   3  -1 -15    2.45    0.22
   3  -1 -15    2.26    0.17
   3  -1 -15    2.18    0.17
   3   1 -15    2.08    0.19
   3   1 -15    2.24    0.22
   3   1 -15    2.11    0.19
   2  -1 -15    0.52    0.13
   2  -1 -15    0.88    0.13
   2  -1 -15    0.70    0.17
   2   1 -15    0.63    0.19
   2   1 -15    0.73    0.14
   2   1 -15    0.67    0.13
   1  -1 -15   21.94    0.83
   1  -1 -15   22.81    0.90
   1  -1 -15   22.36    0.83
   1   1 -15   23.01    0.83
   1   1 -15   23.25    0.89
   1   1 -15   21.93    0.84
   0  -1 -15    1.16    0.14
   0  -1 -15    1.18    0.13
   0  -1 -15    1.03    0.18
   0   1 -15    1.08    0.14
   0   1 -15    1.10    0.13
  -1  -1 -15   23.68    0.86
  -1  -1 -15   23.87    0.87
  -1  -1 -15   22.85    0.93
  -1   1 -15   24.32    0.87
  -1   1 -15   22.90    0.87
  -2  -1 -15    9.41    0.39
  -2  -1 -15    9.02    0.39
  -2  -1 -15    8.86    0.45
  -2   1 -15    9.09    0.39
  -2   1 -15    8.99    0.39
  -3  -1 -15    1.05    0.13
  -3  -1 -15    1.24    0.12
  -3  -1 -15    1.06    0.18
  -3   1 -15    1.01    0.13
  -3   1 -15    1.15    0.13
  -4  -1 -15    9.25    0.37
  -4  -1 -15    8.84    0.37
  -4  -1 -15    8.01    0.42
  -4   1 -15    8.68    0.37
  -4   1 -15    8.48    0.37
  -5  -1 -15    0.31    0.09
  -5  -1 -15    0.39    0.11
  -5  -1 -15    0.22    0.11
  -5   1 -15    0.31    0.10
  -5   1 -15    0.29    0.09
  -6  -1 -15    3.98    0.27
  -6  -1 -15    4.13    0.20
  -6  -1 -15    4.24    0.21
  -6   1 -15    4.05    0.20
  -6   1 -15    4.14    0.21
  -7  -1 -15    2.76    0.15
  -7  -1 -15    3.05    0.16
  -7  -1 -15    2.58    0.25
  -7   1 -15    2.96    0.16
  -7   1 -15    2.98    0.16
  -8   1 -15    0.27    0.07
  -8   1 -15    0.37    0.08
  15   2 -15    1.51    0.11
  14  -2 -15    0.18    0.09
  14   2 -15    0.05    0.06
  13  -2 -15   -0.02    0.10
  13  -2 -15   -0.03    0.11
  13   2 -15   -0.04    0.07
  12  -2 -15   -0.03    0.11
  12   2 -15    0.02    0.08
  11  -2 -15   12.01    0.58
 -11   2  15   14.12    0.55
  11   2 -15   12.39    0.50
  10  -2 -15   15.93    0.71
  10   2 -15   16.28    0.70
  10   2 -15   18.25    0.64
   9  -2 -15    1.04    0.20
   9   2 -15    1.11    0.17
   9   2 -15    1.36    0.21
   8  -2 -15   -0.09    0.09
   8   2 -15    0.19    0.11
   8   2 -15    0.04    0.12
   7  -2 -15    0.63    0.14
   7  -2 -15    0.45    0.16
   7   2 -15    0.50    0.14
   6  -2 -15   11.48    0.55
   6  -2 -15   12.61    0.49
   5  -2 -15    4.58    0.32
   5  -2 -15    5.62    0.26
   3  -2 -15    4.35    0.28
   3  -2 -15    3.70    0.22
   3   2 -15    4.06    0.23
   3   2 -15    3.61    0.24
   2  -2 -15   38.56    1.40
   2  -2 -15   40.18    1.41
   2   2 -15   39.76    1.41
   2   2 -15   41.09    1.41
   1  -2 -15   -0.01    0.08
   1  -2 -15    0.02    0.07
   1  -2 -15   -0.06    0.07
   1   2 -15    0.03    0.08
   1   2 -15   -0.10    0.07
   0  -2 -15    2.18    0.17
   0  -2 -15    2.14    0.21
   0  -2 -15    2.45    0.16
   0   2 -15    1.98    0.16
   0   2 -15    1.91    0.17
  -1  -2 -15   23.88    0.85
  -1  -2 -15   22.58    0.92
  -1  -2 -15   22.93    0.85
  -1   2 -15   23.82    0.86
  -1   2 -15   22.51    0.85
  -2  -2 -15    7.95    0.34
  -2  -2 -15    7.43    0.40
  -2  -2 -15    7.71    0.34
  -2   2 -15    7.82    0.35
  -2   2 -15    7.95    0.35
  -3  -2 -15   12.41    0.57
  -3  -2 -15   13.42    0.51
  -3  -2 -15   13.53    0.51
  -3   2 -15   12.88    0.52
  -3   2 -15   12.97    0.52
  -4  -2 -15    8.68    0.36
  -4  -2 -15    8.01    0.35
  -4  -2 -15    7.93    0.41
  -4   2 -15    9.36    0.37
  -4   2 -15    8.54    0.36
  -5  -2 -15    1.49    0.13
  -5  -2 -15    1.61    0.19
  -5   2 -15    1.53    0.12
  -5   2 -15    1.54    0.13
  -6  -2 -15    0.15    0.11
  -6  -2 -15    0.35    0.11
  -6   2 -15    0.20    0.06
  -6   2 -15    0.18    0.05
  -7  -2 -15    1.29    0.19
  -7   2 -15    1.17    0.10
  -7   2 -15    1.13    0.09
  -8   2 -15   -0.04    0.04
  -8   2 -15    0.08    0.05
  15   3 -15    2.55    0.13
  14   3 -15   18.07    0.65
 -13  -3  15    0.10    0.15
  13   3 -15    0.04    0.05
  12  -3 -15    0.30    0.14
 -12   3  15    0.10    0.11
  12   3 -15    0.33    0.09
  11  -3 -15    9.38    0.46
 -11   3  15    9.72    0.39
  11   3 -15    9.14    0.38
  10  -3 -15    0.24    0.12
  10   3 -15    0.47    0.11
 -10   3  15    0.37    0.09
   9  -3 -15    0.73    0.19
   9   3 -15    0.60    0.14
   8  -3 -15    8.33    0.45
   8   3 -15    9.27    0.38
   6  -3 -15   21.17    0.88
   6  -3 -15   22.35    0.81
   5  -3 -15    1.76    0.15
   5  -3 -15    1.55    0.20
  -5   3  15    1.48    0.17
   4  -3 -15    9.42    0.47
   4  -3 -15    9.72    0.40
   3  -3 -15   16.28    0.60
   3  -3 -15   14.56    0.67
   3   3 -15   16.14    0.61
   2  -3 -15   46.30    1.76
   2  -3 -15   48.39    1.69
   2   3 -15   49.78    1.70
   2   3 -15   49.24    1.69
   1  -3 -15    0.03    0.09
   1  -3 -15    0.10    0.07
   1   3 -15    0.26    0.19
   1   3 -15    0.12    0.07
   1   3 -15    0.02    0.08
   0  -3 -15   17.65    0.68
   0  -3 -15   17.28    0.75
   0   3 -15   18.39    0.69
   0   3 -15   19.18    0.69
  -1  -3 -15    4.39    0.30
  -1  -3 -15    4.51    0.24
  -1   3 -15    4.99    0.25
  -1   3 -15    5.27    0.25
  -2  -3 -15    1.34    0.13
  -2  -3 -15    1.17    0.18
  -2   3 -15    1.41    0.13
  -2   3 -15    1.39    0.14
  -3  -3 -15    2.19    0.21
  -3  -3 -15    2.31    0.16
  -3   3 -15    2.55    0.16
  -3   3 -15    2.16    0.15
  -4  -3 -15    2.77    0.17
  -4  -3 -15    2.66    0.22
  -4   3 -15    2.68    0.16
  -4   3 -15    2.58    0.16
  -5  -3 -15    4.47    0.23
  -5  -3 -15    4.53    0.27
  -5   3 -15    4.48    0.21
  -5   3 -15    4.41    0.21
  -6  -3 -15    5.78    0.30
  -6   3 -15    5.52    0.24
  -6   3 -15    5.61    0.24
  -7  -3 -15    1.27    0.17
   7   3  15    1.32    0.09
  -7   3 -15    1.51    0.10
  -7   3 -15    1.50    0.10
  13   4 -15    7.34    0.29
 -12   4  15    9.13    0.37
  12   4 -15    9.43    0.36
  11   4 -15    0.06    0.06
  11   4 -15   -0.11    0.13
 -11   4  15    0.04    0.07
  10   4 -15    0.64    0.12
 -10   4  15    0.53    0.11
   9  -4 -15   -0.02    0.13
   9   4 -15   -0.07    0.09
   9   4 -15   -0.02    0.07
  -9   4  15    0.03    0.06
   8  -4 -15    3.64    0.28
   8   4 -15    4.11    0.21
   7  -4 -15    0.16    0.12
   7   4 -15   -0.13    0.09
   7   4 -15    0.00    0.09
   3  -4 -15   12.76    0.50
   3  -4 -15   12.11    0.56
  -3   4  15   13.22    0.50
   2  -4 -15    0.02    0.10
   2  -4 -15    0.03    0.06
   2   4 -15    0.21    0.10
   2   4 -15    0.07    0.09
  -2   4  15    0.06    0.06
   2   4 -15    0.42    0.13
   1  -4 -15    1.05    0.18
   1  -4 -15    1.26    0.13
   1   4 -15    1.27    0.13
   1   4 -15    0.92    0.18
   0  -4 -15    7.80    0.36
   0  -4 -15    9.01    0.44
   0   4 -15    9.32    0.38
   0   4 -15    8.68    0.40
   0   4 -15    9.64    0.38
  -1  -4 -15    5.94    0.33
  -1  -4 -15    6.38    0.27
  -1   4 -15    5.87    0.31
  -1   4 -15    6.18    0.28
  -1   4 -15    5.91    0.28
  -2  -4 -15    0.28    0.10
  -2  -4 -15    0.45    0.11
  -2   4 -15    0.46    0.16
  -2   4 -15    0.45    0.11
  -2   4 -15    0.28    0.09
  -3  -4 -15    1.94    0.14
  -3  -4 -15    1.79    0.19
  -3   4 -15    1.77    0.13
  -3   4 -15    1.75    0.13
  -4  -4 -15    1.62    0.17
   4   4  15    1.56    0.11
  -4   4 -15    1.49    0.12
  -4   4 -15    1.44    0.11
  -5  -4 -15    0.26    0.10
   5   4  15    0.33    0.07
  -5   4 -15    0.25    0.08
  -5   4 -15    0.38    0.07
  -6   4 -15    2.58    0.14
   6   4  15    2.95    0.14
  -6   4 -15    3.24    0.15
 -11   5  15    0.71    0.10
  11   5 -15    0.31    0.10
  11   5 -15    0.49    0.08
  10   5 -15    5.72    0.27
  10   5 -15    5.85    0.25
 -10   5  15    6.11    0.25
   9   5 -15    5.75    0.25
  -9   5  15    5.78    0.25
   9   5 -15    5.39    0.26
  -8   5  15   12.55    0.47
   8   5 -15   12.10    0.48
   8   5 -15   11.91    0.46
   7   5 -15   17.90    0.66
  -7   5  15   16.97    0.65
   7   5 -15   17.56    0.64
   6  -5 -15    6.21    0.38
   6   5 -15    6.51    0.31
   6   5 -15    7.04    0.29
   5  -5 -15    3.55    0.28
  -5   5  15    2.99    0.19
   5   5 -15    3.13    0.20
   4  -5 -15    4.51    0.30
   4   5 -15    5.30    0.27
  -4   5  15    5.07    0.24
   3  -5 -15    3.01    0.24
  -3   5  15    2.68    0.16
   3   5 -15    2.36    0.18
   2  -5 -15    3.52    0.26
   2   5 -15    3.56    0.20
  -2   5  15    3.68    0.18
   2   5 -15    3.51    0.21
   1  -5 -15    0.04    0.11
   1   5 -15    0.13    0.08
  -1   5  15    0.08    0.05
   1   5 -15    0.12    0.06
   0  -5 -15    4.45    0.28
   0   5 -15    3.91    0.20
   0   5  15    4.26    0.20
   0   5 -15    4.08    0.23
  -1  -5 -15    0.04    0.10
  -1   5 -15    0.02    0.07
  -1   5 -15   -0.07    0.07
  -1   5 -15    0.06    0.05
   1   5  15    0.01    0.04
  -2  -5 -15    0.08    0.11
   2   5  15    0.02    0.04
  -2   5 -15    0.11    0.05
  -2   5 -15    0.06    0.06
  -3  -5 -15    0.09    0.11
  -3   5 -15    0.13    0.06
  -3   5 -15    0.08    0.04
   3   5  15    0.11    0.04
  -4   5 -15    4.45    0.19
  -4   5 -15    4.20    0.19
   4   5  15    4.25    0.18
  -9   6  15   33.02    1.11
   9   6 -15   31.14    1.10
   8   6 -15   22.22    0.73
  -8   6  15   19.17    0.73
   8   6 -15   20.92    0.74
   7   6 -15    0.75    0.12
  -7   6  15    0.55    0.08
   7   6 -15    0.75    0.11
  -6   6  15    0.82    0.09
   6   6 -15    0.67    0.11
   6   6 -15    0.61    0.11
  -5   6  15    0.02    0.05
   5   6 -15   -0.05    0.06
  -4   6  15    0.14    0.06
   4   6 -15    0.20    0.10
  -4   6  15    0.35    0.10
   4   6 -15    0.17    0.06
  -3   6  15    0.31    0.08
   3   6 -15    0.09    0.06
  -3   6  15    0.13    0.06
   2   6 -15    1.43    0.13
  -2   6  15    1.29    0.12
  -2   6  15    1.26    0.10
   2   6 -15    1.36    0.12
  -1   6  15    1.16    0.12
  -1   6  15    1.29    0.09
   1   6 -15    1.22    0.10
   1   6 -15    0.99    0.13
   0   6 -15    1.25    0.14
   0   6 -15    1.77    0.11
   0   6  15    1.61    0.10
   1   6  15    0.13    0.04
  -1   6 -15    0.33    0.06
   2   6  15    5.51    0.21
  -2   6 -15    5.18    0.21
  15   0 -16    0.01    0.08
  14   0 -16   52.93    1.81
  13   0 -16   -0.04    0.09
  13   0 -16    0.02    0.10
  12   0 -16   -0.19    0.10
  12   0 -16   -0.08    0.10
  11   0 -16    0.15    0.11
  10   0 -16    3.58    0.27
   9   0 -16    0.19    0.12
   8   0 -16   18.51    0.77
   7   0 -16   -0.03    0.10
   7   0 -16   -0.05    0.11
   6   0 -16    2.32    0.22
   6   0 -16    2.10    0.19
   5   0 -16   -0.17    0.09
   5   0 -16    0.05    0.09
   4   0 -16    9.81    0.41
   4   0 -16    9.39    0.46
   3   0 -16    0.03    0.08
   3   0 -16    0.02    0.10
   3   0 -16    0.01    0.07
   2   0 -16   67.46    2.28
   2   0 -16   65.95    2.28
   2   0 -16   64.18    2.34
   1   0 -16    0.02    0.07
   1   0 -16    0.11    0.12
   1   0 -16    0.06    0.07
   0   0 -16   26.17    1.03
   0   0 -16   27.01    0.98
   0   0 -16   27.41    0.98
  -1   0 -16    0.13    0.06
  -1   0 -16    0.12    0.11
  -2   0 -16    6.62    0.37
  -2   0 -16    6.91    0.31
  -2   0 -16    7.11    0.31
  -3   0 -16   -0.04    0.05
  -3   0 -16   -0.03    0.12
  -3   0 -16    0.14    0.07
  -4   0 -16   12.97    0.52
  -4   0 -16   13.89    0.52
  -5   0 -16    0.03    0.05
  -5   0 -16    0.03    0.05
  -6   0 -16    0.59    0.09
  -6   0 -16    0.59    0.08
  -7   0 -16    0.01    0.04
  -7   0 -16    0.06    0.05
  15   1 -16    5.70    0.24
  14   1 -16    0.05    0.07
  13  -1 -16    7.67    0.39
  13   1 -16    7.70    0.32
  12  -1 -16    0.63    0.18
  12   1 -16    0.70    0.16
  12   1 -16    0.50    0.14
  11  -1 -16    8.53    0.44
  11   1 -16    8.41    0.43
  10  -1 -16   45.90    1.72
  10   1 -16   47.46    1.70
   9  -1 -16    0.69    0.19
   9   1 -16    0.40    0.17
   8  -1 -16    1.22    0.19
   8  -1 -16    1.09    0.16
   8   1 -16    0.96    0.19
   7  -1 -16    0.76    0.15
   7  -1 -16    0.71    0.17
   7   1 -16    0.65    0.18
   6  -1 -16   19.29    0.71
   6  -1 -16   18.73    0.78
   6   1 -16   18.29    0.77
   5  -1 -16    1.28    0.18
   5  -1 -16    1.30    0.14
   5   1 -16    1.15    0.19
   5   1 -16    1.25    0.18
   4  -1 -16    1.99    0.17
   4  -1 -16    1.86    0.21
   4   1 -16    1.83    0.18
   4   1 -16    1.87    0.21
   3  -1 -16   17.92    0.68
   3  -1 -16   17.99    0.75
   3  -1 -16   17.85    0.68
   3   1 -16   18.33    0.69
   3   1 -16   18.34    0.68
   3   1 -16   17.62    0.74
   2  -1 -16    1.21    0.14
   2  -1 -16    0.93    0.17
   2  -1 -16    1.02    0.13
   2   1 -16    1.41    0.21
   2   1 -16    1.16    0.15
   2   1 -16    1.43    0.16
   1  -1 -16   11.20    0.45
   1  -1 -16   10.46    0.51
   1  -1 -16   10.57    0.44
   1   1 -16   11.09    0.45
   1   1 -16   11.37    0.45
   0  -1 -16    0.08    0.10
   0  -1 -16    0.16    0.06
   0  -1 -16    0.13    0.07
   0   1 -16    0.02    0.07
   0   1 -16   -0.01    0.06
   0   1 -16    0.12    0.15
  -1  -1 -16    8.28    0.43
  -1  -1 -16    9.20    0.38
  -1  -1 -16    8.74    0.37
  -1   1 -16    8.72    0.38
  -1   1 -16    9.04    0.38
  -2  -1 -16   23.73    0.97
  -2  -1 -16   25.11    0.91
  -2  -1 -16   24.96    0.91
  -2   1 -16   25.13    0.91
  -2   1 -16   25.88    0.92
  -3  -1 -16    7.18    0.31
  -3  -1 -16    7.41    0.32
  -3  -1 -16    6.75    0.38
  -3   1 -16    7.00    0.31
  -3   1 -16    7.50    0.32
  -4  -1 -16    0.14    0.06
  -4  -1 -16    0.20    0.06
  -4  -1 -16    0.11    0.11
  -4   1 -16    0.17    0.06
  -4   1 -16    0.13    0.05
  -5  -1 -16    0.23    0.06
  -5  -1 -16    0.14    0.05
  -5  -1 -16    0.15    0.12
  -5   1 -16    0.21    0.07
  -5   1 -16    0.13    0.05
  -6  -1 -16    0.05    0.04
  -6  -1 -16    0.00    0.14
  -6  -1 -16    0.07    0.06
  -6   1 -16   -0.02    0.05
  -6   1 -16    0.04    0.04
  -7  -1 -16    0.34    0.11
  -7   1 -16    0.10    0.05
  -7   1 -16    0.11    0.04
  -8   1 -16    0.04    0.04
  -8   1 -16   -0.01    0.06
  15   2 -16    1.88    0.12
 -14  -2  16    0.68    0.17
  14   2 -16    0.58    0.10
  13  -2 -16   -0.03    0.11
  13   2 -16   -0.03    0.06
  12  -2 -16    5.02    0.30
  12   2 -16    4.58    0.23
  11  -2 -16    0.41    0.13
  11   2 -16    0.27    0.09
  10  -2 -16    0.84    0.17
  10   2 -16    0.79    0.19
   9  -2 -16    1.50    0.21
   9   2 -16    1.46    0.23
   8  -2 -16    0.03    0.10
   8   2 -16    0.27    0.13
   7  -2 -16   17.20    0.75
   7  -2 -16   18.45    0.68
   6  -2 -16   14.03    0.53
   6  -2 -16   12.32    0.59
   5  -2 -16    0.09    0.08
   5  -2 -16    0.06    0.10
   5   2 -16   -0.23    0.13
   3  -2 -16    7.10    0.39
   3  -2 -16    7.08    0.32
   3   2 -16    7.61    0.34
   2  -2 -16    1.71    0.20
   2  -2 -16    1.71    0.15
   2   2 -16    1.90    0.17
   2   2 -16    1.70    0.16
   1  -2 -16    2.70    0.24
   1  -2 -16    2.87    0.17
   1  -2 -16    2.56    0.18
   1   2 -16    2.91    0.18
   1   2 -16    2.57    0.19
   0  -2 -16    2.45    0.17
   0  -2 -16    2.25    0.22
   0  -2 -16    2.38    0.15
   0   2 -16    2.34    0.17
   0   2 -16    2.33    0.17
  -1  -2 -16    2.39    0.17
  -1  -2 -16    2.56    0.23
  -1  -2 -16    2.60    0.16
  -1   2 -16    2.60    0.17
  -1   2 -16    2.70    0.18
  -2  -2 -16    9.82    0.48
  -2  -2 -16    9.84    0.41
  -2  -2 -16   10.48    0.42
  -2   2 -16   10.31    0.42
  -2   2 -16   10.60    0.42
  -3  -2 -16    1.68    0.13
  -3  -2 -16    1.41    0.19
  -3   2 -16    1.48    0.13
  -3   2 -16    1.43    0.13
  -4  -2 -16    0.74    0.11
  -4  -2 -16    0.44    0.15
  -4   2 -16    0.84    0.11
  -4   2 -16    0.60    0.09
  -5  -2 -16    1.64    0.12
  -5  -2 -16    1.47    0.19
  -5   2 -16    1.48    0.11
  -5   2 -16    1.52    0.12
  -6  -2 -16    6.54    0.34
  -6  -2 -16    6.90    0.28
  -6   2 -16    6.68    0.28
  -6   2 -16    6.79    0.28
  -7   2 -16    0.18    0.04
  -7   2 -16    0.17    0.05
  14   3 -16    2.01    0.13
  13   3 -16    8.37    0.33
  12  -3 -16   15.26    0.63
  12   3 -16   14.83    0.55
  11  -3 -16    6.13    0.35
 -11   3  16    6.53    0.29
  11   3 -16    6.13    0.27
  10  -3 -16    5.25    0.32
  10   3 -16    5.36    0.25
 -10   3  16    5.26    0.26
   8  -3 -16    0.72    0.18
   7  -3 -16    0.22    0.11
   6  -3 -16   48.16    1.64
   6  -3 -16   45.17    1.71
   5  -3 -16    0.15    0.07
   5  -3 -16    0.02    0.10
  -5   3  16    0.05    0.12
   4  -3 -16   16.21    0.61
   4  -3 -16   15.73    0.68
   2  -3 -16    0.53    0.16
   2  -3 -16    0.53    0.11
   2   3 -16    0.38    0.09
   2   3 -16    0.35    0.10
   1  -3 -16    0.98    0.12
   1  -3 -16    1.08    0.18
   1   3 -16    0.85    0.12
   1   3 -16    1.12    0.14
   0  -3 -16   16.83    0.61
   0  -3 -16   14.67    0.67
   0   3 -16   16.41    0.61
   0   3 -16   16.47    0.62
  -1  -3 -16    2.42    0.21
  -1  -3 -16    2.26    0.16
  -1   3 -16    2.38    0.16
  -1   3 -16    2.14    0.16
  -2  -3 -16    4.05    0.21
  -2  -3 -16    4.28    0.27
  -2   3 -16    4.49    0.22
  -2   3 -16    4.29    0.22
  -3  -3 -16    2.85    0.22
  -3  -3 -16    2.81    0.17
  -3   3 -16    2.71    0.16
  -3   3 -16    2.88    0.17
  -4  -3 -16    0.35    0.14
  -4  -3 -16    0.36    0.11
  -4   3 -16    0.31    0.08
  -4   3 -16    0.31    0.09
  -5  -3 -16    0.25    0.11
  -5  -3 -16    0.42    0.14
  -5   3 -16    0.30    0.08
  -5   3 -16    0.31    0.07
  -6   3 -16    1.14    0.09
  -6   3 -16    0.96    0.08
   6   3  16    0.99    0.08
  13   4 -16    2.22    0.13
 -12   4  16    2.26    0.18
  12   4 -16    2.92    0.15
  11   4 -16    0.69    0.11
 -11   4  16    0.88    0.11
  10  -4 -16    0.10    0.17
 -10   4  16   -0.03    0.06
  10   4 -16    0.06    0.07
   9  -4 -16   18.37    0.74
  -9   4  16   18.67    0.68
   9   4 -16   18.36    0.67
   8  -4 -16    0.08    0.13
   8   4 -16   -0.03    0.08
   7  -4 -16    0.20    0.12
   7   4 -16   -0.05    0.09
   5  -4 -16   10.34    0.49
  -5   4  16   10.67    0.43
   4  -4 -16    2.14    0.21
  -4   4  16    2.38    0.16
   2  -4 -16    1.60    0.19
   2  -4 -16    1.40    0.13
  -2   4  16    1.86    0.13
   2   4 -16    1.68    0.14
   1  -4 -16    0.03    0.05
   1  -4 -16    0.02    0.09
   1   4 -16    0.07    0.11
   1   4 -16    0.04    0.08
  -1   4  16    0.08    0.05
   1   4 -16    0.18    0.06
   0  -4 -16    0.02    0.06
   0  -4 -16    0.10    0.09
   0   4 -16    0.02    0.11
   0   4 -16    0.12    0.07
   0   4 -16    0.08    0.05
   0   4  16    0.02    0.05
  -1  -4 -16    0.81    0.11
  -1  -4 -16    0.71    0.15
  -1   4 -16    0.75    0.11
   1   4  16    0.69    0.09
  -1   4 -16    0.57    0.10
  -2  -4 -16    0.63    0.10
  -2  -4 -16    0.54    0.14
  -2   4 -16    0.44    0.08
   2   4  16    0.44    0.08
  -2   4 -16    0.40    0.09
  -3  -4 -16    0.14    0.09
  -3   4 -16    0.11    0.05
   3   4  16    0.10    0.04
  -3   4 -16    0.13    0.05
  -4  -4 -16   10.76    0.45
  -4   4 -16   10.39    0.39
  -4   4 -16   10.06    0.39
   4   4  16   10.64    0.39
  -5   4 -16    1.81    0.10
  -5   4 -16    1.83    0.11
   5   4  16    1.81    0.10
  11   5 -16    4.97    0.21
 -11   5  16    5.01    0.21
 -10   5  16    0.70    0.09
  10   5 -16    0.71    0.10
   9   5 -16   10.37    0.39
  -9   5  16   10.41    0.40
   8   5 -16    0.16    0.10
   8   5 -16    0.06    0.08
  -8   5  16    0.10    0.05
  -7   5  16   11.32    0.42
   7   5 -16   10.72    0.44
   7   5 -16   10.73    0.42
   6  -5 -16   -0.03    0.27
   6   5 -16   -0.06    0.10
   6   5 -16    0.00    0.07
   5  -5 -16    1.00    0.23
   5   5 -16    1.36    0.15
   4  -5 -16    1.56    0.22
   4   5 -16    1.40    0.16
  -4   5  16    1.42    0.13
   3  -5 -16    2.76    0.24
  -3   5  16    2.59    0.15
   2  -5 -16    2.88    0.24
   2   5 -16    3.27    0.21
   2   5 -16    2.91    0.17
  -2   5  16    3.01    0.16
   1  -5 -16    0.18    0.12
  -1   5  16    0.11    0.04
   1   5 -16    0.03    0.05
   1   5 -16    0.06    0.09
   0  -5 -16    0.18    0.12
   0   5  16    0.04    0.04
   0   5 -16    0.02    0.05
  -1  -5 -16    0.10    0.12
  -1   5 -16    0.08    0.04
  -1   5 -16    0.14    0.08
   1   5  16    0.07    0.04
   2   5  16    2.36    0.12
  -2   5 -16    2.32    0.14
  -2   5 -16    2.33    0.13
   3   5  16    3.63    0.16
  -3   5 -16    3.51    0.17
  -3   5 -16    3.70    0.16
  -7   6  16    9.73    0.36
  -6   6  16    0.96    0.09
   5   6 -16    0.61    0.14
  -5   6  16    0.46    0.08
   4   6 -16    0.11    0.08
  -4   6  16    0.07    0.05
  -3   6  16    3.91    0.18
  -3   6  16    3.70    0.17
  -2   6  16    3.65    0.16
  -2   6  16    3.77    0.18
  -1   6  16    0.23    0.06
  12   0 -17   -0.03    0.10
  11   0 -17   38.36    1.42
  10   0 -17   -0.08    0.10
   9   0 -17    9.02    0.45
   8   0 -17    0.09    0.11
   6   0 -17    0.01    0.09
   6   0 -17    0.01    0.10
   5   0 -17    9.50    0.39
   5   0 -17    8.71    0.45
   4   0 -17    0.08    0.10
   4   0 -17   -0.08    0.09
   4   0 -17    0.02    0.08
   3   0 -17    0.67    0.18
   3   0 -17    0.46    0.13
   3   0 -17    0.58    0.13
   2   0 -17    0.02    0.11
   2   0 -17   -0.07    0.07
   2   0 -17    0.20    0.08
   1   0 -17   21.06    0.76
   1   0 -17   20.75    0.77
   1   0 -17   19.78    0.82
   0   0 -17    0.06    0.12
   0   0 -17   -0.05    0.06
   0   0 -17    0.10    0.06
  -1   0 -17    5.26    0.25
  -1   0 -17    5.04    0.25
  -1   0 -17    5.19    0.33
  -2   0 -17    0.04    0.05
  -2   0 -17    0.08    0.14
  -2   0 -17    0.13    0.06
  -3   0 -17   29.49    1.02
  -3   0 -17   27.44    1.01
  -4   0 -17    0.03    0.05
  -4   0 -17    0.00    0.04
  -5   0 -17    2.06    0.13
  -5   0 -17    2.24    0.13
  -6   0 -17    0.08    0.05
  -6   0 -17    0.00    0.04
  -7   0 -17   12.11    0.44
  13  -1 -17    0.47    0.16
  13   1 -17   -0.02    0.11
  12  -1 -17    2.17    0.22
  12   1 -17    2.91    0.22
  11  -1 -17    4.63    0.30
  11   1 -17    4.99    0.30
  10  -1 -17    1.56    0.20
  10   1 -17    1.82    0.21
   9  -1 -17    7.07    0.38
   9   1 -17    6.91    0.38
   8  -1 -17    0.24    0.12
   8  -1 -17    0.05    0.09
   8   1 -17    0.23    0.11
   7  -1 -17    0.13    0.10
   7  -1 -17    0.17    0.08
   7   1 -17   -0.02    0.11
   6  -1 -17    6.53    0.37
   6  -1 -17    6.62    0.31
   6   1 -17    6.95    0.38
   5  -1 -17    3.94    0.22
   5  -1 -17    3.80    0.27
   5   1 -17    4.03    0.24
   5   1 -17    3.55    0.28
   4  -1 -17    6.30    0.29
   4  -1 -17    6.13    0.35
   4   1 -17    6.08    0.30
   4   1 -17    6.02    0.35
   3  -1 -17    9.26    0.39
   3  -1 -17    8.66    0.45
   3  -1 -17    9.54    0.38
   3   1 -17    9.44    0.39
   3   1 -17    9.11    0.45
   2  -1 -17    0.39    0.12
   2  -1 -17    0.44    0.12
   2  -1 -17    0.55    0.11
   2   1 -17    0.39    0.12
   2   1 -17    0.27    0.14
   2   1 -17    0.51    0.12
   1  -1 -17   11.36    0.54
   1  -1 -17   11.64    0.46
   1  -1 -17   11.92    0.47
   1   1 -17   12.18    0.48
   1   1 -17   11.39    0.47
   0  -1 -17    4.23    0.22
   0  -1 -17    4.20    0.22
   0  -1 -17    3.85    0.27
   0   1 -17    4.21    0.22
   0   1 -17    4.31    0.23
  -1  -1 -17    1.92    0.15
  -1  -1 -17    1.87    0.21
  -1  -1 -17    1.79    0.14
  -1   1 -17    2.07    0.15
  -1   1 -17    2.10    0.14
  -2  -1 -17    0.07    0.11
  -2  -1 -17    0.03    0.06
  -2  -1 -17    0.10    0.05
  -2   1 -17    0.10    0.06
  -2   1 -17    0.06    0.05
  -3  -1 -17    0.40    0.13
  -3  -1 -17    0.47    0.09
  -3  -1 -17    0.53    0.10
  -3   1 -17    0.47    0.10
  -3   1 -17    0.54    0.09
  -4  -1 -17    0.44    0.08
  -4  -1 -17    0.45    0.09
  -4  -1 -17    0.62    0.19
  -4   1 -17    0.35    0.08
  -4   1 -17    0.41    0.09
  -5  -1 -17    0.00    0.15
  -5  -1 -17    0.03    0.05
  -5   1 -17   -0.02    0.04
  -5   1 -17   -0.02    0.05
  -6  -1 -17    0.46    0.09
  -6   1 -17    0.23    0.07
  -6   1 -17    0.19    0.06
  -7   1 -17    0.16    0.04
  -7   1 -17    0.11    0.05
  13  -2 -17    2.10    0.22
  13   2 -17    1.97    0.15
  10  -2 -17    2.51    0.23
  10   2 -17    2.18    0.24
   9  -2 -17    2.21    0.23
   9   2 -17    1.63    0.25
   8   2 -17   13.32    0.59
   7  -2 -17    3.89    0.28
   7  -2 -17    4.54    0.23
   6  -2 -17   23.26    0.98
   6  -2 -17   26.25    0.91
   5  -2 -17    0.02    0.07
   5  -2 -17    0.09    0.11
   4  -2 -17    0.12    0.07
   4  -2 -17   -0.02    0.09
   4   2 -17    0.11    0.10
   3  -2 -17   21.72    0.78
   3  -2 -17   19.56    0.84
   3   2 -17   21.52    0.78
   2  -2 -17    0.63    0.11
   2  -2 -17    0.89    0.17
   2   2 -17    0.54    0.14
   2   2 -17    0.46    0.13
   1  -2 -17    3.97    0.28
   1  -2 -17    4.49    0.23
   1   2 -17    4.65    0.23
   1   2 -17    4.80    0.24
   0  -2 -17   10.33    0.39
   0  -2 -17    8.58    0.44
   0   2 -17    8.85    0.39
   0   2 -17    9.22    0.38
  -1  -2 -17    1.60    0.20
  -1  -2 -17    1.59    0.13
  -1   2 -17    1.82    0.14
  -1   2 -17    1.74    0.14
  -2  -2 -17    1.06    0.11
  -2  -2 -17    0.70    0.17
  -2   2 -17    0.90    0.11
  -2   2 -17    0.75    0.10
  -3  -2 -17    0.42    0.16
  -3  -2 -17    0.37    0.09
  -3   2 -17    0.28    0.09
  -3   2 -17    0.42    0.08
  -4  -2 -17    2.20    0.13
  -4  -2 -17    2.16    0.20
  -4   2 -17    2.15    0.13
  -4   2 -17    2.10    0.13
  -5  -2 -17    6.38    0.25
  -5  -2 -17    5.96    0.32
  -5   2 -17    6.23    0.26
  -5   2 -17    5.90    0.25
  -6   2 -17   10.94    0.41
  -6   2 -17   11.19    0.41
  13   3 -17    1.12    0.13
  12  -3 -17   11.32    0.51
  12   3 -17   11.42    0.43
  11  -3 -17    0.09    0.13
  11   3 -17    0.22    0.09
 -11   3  17    0.19    0.09
  10  -3 -17    1.44    0.20
 -10   3  17    1.67    0.15
   9  -3 -17   12.42    0.55
   8  -3 -17    0.45    0.18
   7  -3 -17    8.91    0.44
   6  -3 -17    1.49    0.19
   5  -3 -17    2.07    0.21
   5  -3 -17    1.81    0.15
   4  -3 -17    0.56    0.10
   4  -3 -17    0.69    0.16
  -4   3  17    0.62    0.13
   2  -3 -17    3.00    0.25
   2  -3 -17    3.35    0.18
   2   3 -17    3.40    0.21
   2   3 -17    3.13    0.19
   1  -3 -17   12.02    0.55
   1  -3 -17   12.83    0.49
   1   3 -17   12.88    0.49
   1   3 -17   12.42    0.49
   0  -3 -17    0.13    0.06
   0  -3 -17    0.24    0.10
   0   3 -17    0.14    0.07
   0   3 -17    0.13    0.06
  -1  -3 -17    0.58    0.15
  -1  -3 -17    0.65    0.10
  -1   3 -17    0.41    0.10
  -1   3 -17    0.61    0.10
  -2  -3 -17    5.64    0.24
  -2  -3 -17    5.57    0.30
  -2   3 -17    5.15    0.24
  -2   3 -17    5.42    0.24
  -3  -3 -17   23.58    0.86
  -3  -3 -17   26.01    0.93
  -3   3 -17   24.76    0.87
  -3   3 -17   23.64    0.87
  -4  -3 -17    9.62    0.41
  -4  -3 -17    9.33    0.35
  -4   3 -17    8.95    0.35
  -4   3 -17    8.40    0.35
  -5   3 -17    0.83    0.08
   5   3  17    0.72    0.07
  -5   3 -17    0.65    0.07
 -11   4  17    1.35    0.12
  11   4 -17    1.13    0.14
  10   4 -17   11.46    0.44
 -10   4  17   11.88    0.44
   9  -4 -17    0.14    0.15
  -9   4  17    0.18    0.06
   9   4 -17    0.25    0.14
   8  -4 -17   -0.10    0.12
   7  -4 -17    0.44    0.18
   6  -4 -17    8.13    0.40
   5  -4 -17    3.60    0.26
   4  -4 -17   10.14    0.47
  -4   4  17   10.39    0.59
   3  -4 -17   17.14    0.71
  -3   4  17   18.09    0.64
   2  -4 -17    0.25    0.11
  -2   4  17    0.31    0.09
   2   4 -17    0.22    0.07
   1  -4 -17    0.79    0.10
   1  -4 -17    0.94    0.16
  -1   4  17    0.83    0.10
   1   4 -17    0.70    0.10
   0  -4 -17    1.35    0.18
   0  -4 -17    1.51    0.11
   0   4  17    1.36    0.11
   0   4 -17    1.22    0.11
   0   4 -17    1.23    0.13
  -1  -4 -17    0.02    0.10
   1   4  17    0.12    0.04
  -1   4 -17    0.11    0.05
  -1   4 -17    0.22    0.07
  -2  -4 -17   17.54    0.69
  -2   4 -17   18.11    0.64
   2   4  17   17.05    0.63
  -2   4 -17   17.79    0.63
  -3  -4 -17    0.04    0.11
  -3   4 -17    0.01    0.04
  -3   4 -17    0.03    0.05
   3   4  17    0.00    0.04
  -4   4 -17    6.63    0.25
  -4   4 -17    5.84    0.24
  -9   5  17    0.90    0.09
  -8   5  17    0.88    0.09
  -7   5  17   -0.02    0.05
  -6   5  17    0.34    0.08
   3  -5 -17    5.90    0.38
  -3   5  17    5.29    0.23
   2   5 -17    2.41    0.15
  -2   5  17    2.33    0.13
   1   5 -17    3.66    0.17
  -1   5  17    3.77    0.17
   0   5  17    0.07    0.04
   0   5 -17    0.04    0.05
   1   5  17    0.66    0.07
  -1   5 -17    0.68    0.07
  12   0 -18    0.96    0.17
  11   0 -18   -0.03    0.10
  10   0 -18    0.08    0.11
   9   0 -18   -0.02    0.10
   8   0 -18    3.42    0.26
   7   0 -18    0.08    0.11
   7   0 -18   -0.17    0.09
   6   0 -18   17.26    0.71
   6   0 -18   16.57    0.64
   5   0 -18   -0.03    0.07
   5   0 -18   -0.14    0.10
   4   0 -18    3.91    0.21
   4   0 -18    3.48    0.27
   3   0 -18    0.13    0.11
   3   0 -18    0.10    0.08
   3   0 -18    0.07    0.08
   2   0 -18   20.43    0.84
   2   0 -18   20.94    0.77
   2   0 -18   21.96    0.78
   1   0 -18    0.05    0.06
   1   0 -18    0.00    0.06
   1   0 -18   -0.05    0.12
   0   0 -18    8.22    0.34
   0   0 -18    7.71    0.34
   0   0 -18    8.30    0.42
  -1   0 -18   -0.02    0.15
  -1   0 -18    0.06    0.06
  -1   0 -18    0.02    0.05
  -2   0 -18    2.94    0.17
  -2   0 -18    3.40    0.18
  -3   0 -18    0.06    0.05
  -3   0 -18    0.02    0.04
  -4   0 -18    2.37    0.13
  -4   0 -18    2.37    0.14
  -5   0 -18    0.04    0.05
  -5   0 -18    0.02    0.03
  13  -1 -18   -0.01    0.11
  12  -1 -18    0.84    0.17
  11  -1 -18    0.17    0.11
  11   1 -18    0.26    0.12
  10  -1 -18   16.30    0.68
  10   1 -18   16.72    0.68
   9  -1 -18    1.40    0.19
   9   1 -18    1.54    0.21
   8  -1 -18    2.90    0.24
   8   1 -18    3.09    0.25
   7  -1 -18   -0.06    0.07
   7  -1 -18    0.07    0.10
   7   1 -18   -0.02    0.11
   6  -1 -18    0.21    0.10
   6  -1 -18    0.29    0.08
   6   1 -18    0.65    0.20
   6   1 -18    0.01    0.10
   5  -1 -18   24.35    0.98
   5  -1 -18   27.96    0.92
   5   1 -18   26.16    0.98
   5   1 -18   21.81    0.90
   4  -1 -18    4.58    0.30
   4  -1 -18    5.36    0.25
   4   1 -18    4.53    0.32
   4   1 -18    4.79    0.25
   2  -1 -18   10.62    0.50
   2  -1 -18   11.23    0.43
   2  -1 -18   10.27    0.41
   2   1 -18   11.21    0.43
   2   1 -18    9.22    0.42
   1  -1 -18    7.27    0.31
   1  -1 -18    7.73    0.33
   1  -1 -18    7.30    0.39
   1   1 -18    7.74    0.33
   1   1 -18    7.49    0.32
   0  -1 -18   51.99    1.84
   0  -1 -18   52.73    1.90
   0  -1 -18   55.06    1.85
   0   1 -18   52.49    1.84
   0   1 -18   53.33    1.84
  -1  -1 -18    2.82    0.17
  -1  -1 -18    2.77    0.24
  -1  -1 -18    2.67    0.15
  -1   1 -18    2.69    0.17
  -1   1 -18    2.80    0.16
  -2  -1 -18    0.20    0.05
  -2   1 -18    0.21    0.06
  -2   1 -18    0.29    0.09
  -3  -1 -18    3.99    0.19
  -3  -1 -18    4.52    0.20
  -3  -1 -18    4.72    0.30
  -3   1 -18    4.23    0.20
  -3   1 -18    4.21    0.20
  -4  -1 -18    0.43    0.08
  -4   1 -18    0.35    0.07
  -4   1 -18    0.45    0.08
  -5  -1 -18    0.28    0.08
  -5   1 -18    0.33    0.07
  -5   1 -18    0.33    0.06
  12  -2 -18    0.12    0.12
  11  -2 -18    2.29    0.21
  10  -2 -18    5.54    0.32
   7  -2 -18    2.48    0.22
   6  -2 -18    2.48    0.22
   6  -2 -18    2.43    0.16
   5  -2 -18    0.12    0.06
   5  -2 -18    0.11    0.10
   4  -2 -18   19.34    0.80
   4  -2 -18   19.84    0.73
   3  -2 -18    3.78    0.20
   3  -2 -18    3.69    0.27
   3   2 -18    3.86    0.21
   2  -2 -18    2.19    0.15
   2  -2 -18    2.04    0.21
   2   2 -18    2.26    0.16
   2   2 -18    1.89    0.15
   1  -2 -18    8.22    0.41
   1  -2 -18    8.43    0.34
   1   2 -18    7.78    0.34
   1   2 -18    8.27    0.34
   0  -2 -18    3.34    0.25
   0  -2 -18    3.16    0.18
   0   2 -18    3.17    0.18
   0   2 -18    3.26    0.18
  -1  -2 -18    0.00    0.09
  -1  -2 -18    0.11    0.05
  -1   2 -18   -0.01    0.06
  -1   2 -18    0.01    0.05
  -2  -2 -18    0.78    0.09
  -2  -2 -18    0.66    0.16
  -2   2 -18    0.67    0.09
  -2   2 -18    0.63    0.10
  -3  -2 -18   16.03    0.63
  -3  -2 -18   15.46    0.56
  -3   2 -18   15.86    0.57
  -3   2 -18   14.84    0.57
  -4  -2 -18   10.90    0.40
  -4   2 -18   11.05    0.41
  -4   2 -18   10.42    0.40
  -5   2 -18    0.61    0.07
  -5   2 -18    0.65    0.07
  11  -3 -18    0.22    0.13
  10  -3 -18    1.77    0.22
 -10   3  18    1.41    0.14
   9  -3 -18    0.51    0.17
   8  -3 -18    0.44    0.16
   7  -3 -18    1.76    0.20
   6  -3 -18    6.61    0.35
   5  -3 -18    9.87    0.40
   5  -3 -18   10.17    0.47
   4  -3 -18    1.04    0.16
   4  -3 -18    0.78    0.10
  -4   3  18    0.94    0.14
   3  -3 -18    0.83    0.16
   2  -3 -18   14.52    0.54
   2  -3 -18   14.86    0.61
   2   3 -18   14.14    0.54
   2   3 -18   14.23    0.54
   1  -3 -18    2.81    0.16
   1  -3 -18    3.02    0.23
   1   3 -18    2.97    0.17
   1   3 -18    2.88    0.17
   0  -3 -18    4.42    0.27
   0  -3 -18    3.91    0.19
   0   3 -18    4.07    0.20
   0   3 -18    4.00    0.20
  -1  -3 -18    1.16    0.18
  -1  -3 -18    1.46    0.11
  -1   3 -18    1.46    0.10
  -1   3 -18    1.49    0.12
  -2  -3 -18    2.28    0.20
  -2  -3 -18    2.34    0.13
  -2   3 -18    2.13    0.13
  -2   3 -18    2.06    0.12
  -3  -3 -18    1.03    0.10
  -3  -3 -18    0.77    0.26
  -3   3 -18    1.04    0.08
  -3   3 -18    0.97    0.09
  -4   3 -18    2.93    0.14
 -10   4  18    0.52    0.10
  -9   4  18    0.11    0.06
   8  -4 -18    0.28    0.14
  -8   4  18    0.15    0.06
   7  -4 -18   12.82    0.54
   6  -4 -18    1.25    0.20
   5  -4 -18    3.23    0.24
   4  -4 -18    1.07    0.18
   3  -4 -18    0.15    0.10
  -3   4  18    0.29    0.09
   2  -4 -18   13.58    0.56
   2   4 -18   13.12    0.49
  -2   4  18   13.52    0.49
   1  -4 -18    5.86    0.31
  -1   4  18    5.84    0.24
   1   4 -18    5.28    0.24
   0  -4 -18    1.04    0.17
   0   4 -18    0.65    0.09
   0   4  18    0.70    0.08
   0   4 -18    0.78    0.12
  -1   4 -18    5.15    0.21
  -1   4 -18    5.32    0.22
   1   4  18    4.78    0.21
   2   4  18    1.30    0.08
  -2   4 -18    1.54    0.11
  -2   4 -18    1.21    0.09
  -7   5  18    1.96    0.11
  -6   5  18    2.00    0.12
  -5   5  18    3.37    0.16
  -2   5  18   -0.11    0.06
  -1   5  18    0.37    0.09
  -1   5  18    0.45    0.07
  12   0 -19    0.02    0.11
  11   0 -19    2.01    0.21
  10   0 -19    0.14    0.11
   9   0 -19    1.64    0.20
   8   0 -19    0.10    0.11
   6   0 -19    0.12    0.08
   6   0 -19    0.06    0.12
   5   0 -19    3.50    0.26
   5   0 -19    3.57    0.20
   4   0 -19    0.15    0.11
   4   0 -19    0.00    0.06
   3   0 -19    5.31    0.25
   3   0 -19    5.39    0.32
   2   0 -19   -0.02    0.13
   2   0 -19    0.08    0.06
   2   0 -19   -0.11    0.06
   1   0 -19   25.97    0.92
   1   0 -19   25.75    0.92
   1   0 -19   25.26    0.98
   0   0 -19    0.09    0.05
   0   0 -19    0.57    0.23
  -1   0 -19    1.30    0.11
  -1   0 -19    1.43    0.11
  -2   0 -19   -0.01    0.04
  -2   0 -19    0.03    0.05
  -3   0 -19   14.42    0.51
  -3   0 -19   13.38    0.51
  -4   0 -19   -0.03    0.04
  12  -1 -19    1.61    0.19
  11  -1 -19    0.10    0.10
  11   1 -19    0.04    0.12
  10  -1 -19    4.23    0.27
  10   1 -19    3.99    0.29
   9  -1 -19   38.55    1.42
   9   1 -19   39.00    1.41
   8  -1 -19    6.85    0.37
   8   1 -19    7.34    0.39
   7  -1 -19    1.10    0.18
   7  -1 -19    1.03    0.13
   7   1 -19    0.89    0.21
   6  -1 -19    6.79    0.29
   6  -1 -19    6.67    0.36
   6   1 -19    6.33    0.37
   5  -1 -19   -0.01    0.10
   5  -1 -19   -0.02    0.06
   5   1 -19    0.04    0.08
   5   1 -19    0.02    0.14
   4  -1 -19   22.36    0.81
   4  -1 -19   22.10    0.88
   4   1 -19   22.49    0.81
   3  -1 -19    5.70    0.33
   3  -1 -19    5.82    0.27
   3   1 -19    5.96    0.27
   2  -1 -19    4.70    0.22
   2  -1 -19    4.82    0.29
   2   1 -19    4.42    0.22
   2   1 -19    4.82    0.23
   1  -1 -19    2.91    0.17
   1  -1 -19    3.23    0.25
   1   1 -19    2.89    0.17
   1   1 -19    2.97    0.17
   0  -1 -19    1.91    0.22
   0  -1 -19    1.99    0.13
   0   1 -19    1.88    0.13
   0   1 -19    2.01    0.14
  -1  -1 -19    2.65    0.25
  -1  -1 -19    2.65    0.15
  -1   1 -19    2.75    0.15
  -1   1 -19    2.77    0.15
  -2  -1 -19    3.68    0.17
  -2  -1 -19    4.12    0.35
  -2   1 -19    3.58    0.17
  -2   1 -19    3.51    0.18
  -3  -1 -19    0.10    0.05
  -3   1 -19    0.08    0.04
  -3   1 -19    0.01    0.04
  -4  -1 -19    2.31    0.12
  -4   1 -19    2.22    0.12
  -4   1 -19    2.21    0.11
  11  -2 -19    3.92    0.26
  10  -2 -19    3.71    0.26
   9  -2 -19    1.16    0.17
   8  -2 -19    6.57    0.35
   7  -2 -19    9.79    0.46
   6  -2 -19    6.00    0.33
   6  -2 -19    5.90    0.26
   5  -2 -19   17.63    0.72
   5  -2 -19   17.49    0.65
   4  -2 -19    5.50    0.25
   4  -2 -19    5.72    0.32
   3  -2 -19    0.07    0.10
   3  -2 -19    0.05    0.06
   3   2 -19   -0.02    0.08
   3   2 -19   -0.16    0.07
   2  -2 -19    1.99    0.13
   2  -2 -19    1.87    0.19
   2   2 -19    1.98    0.14
   2   2 -19    1.86    0.14
   1  -2 -19    6.77    0.29
   1  -2 -19    7.01    0.36
   1   2 -19    7.20    0.29
   1   2 -19    7.02    0.29
   0  -2 -19    0.26    0.11
   0  -2 -19    0.27    0.06
   0   2 -19    0.32    0.08
   0   2 -19    0.34    0.09
  -1  -2 -19    7.84    0.32
  -1  -2 -19    8.66    0.40
  -1   2 -19    8.27    0.33
  -1   2 -19    8.41    0.33
  -2  -2 -19    0.32    0.07
  -2  -2 -19    0.28    0.16
  -2   2 -19    0.27    0.07
  -2   2 -19    0.23    0.07
  -3  -2 -19   -0.02    0.05
  -3   2 -19    0.00    0.04
  -3   2 -19    0.05    0.04
 -10   3  19    1.14    0.14
   9  -3 -19    1.03    0.19
  -9   3  19    1.00    0.11
   8  -3 -19   -0.07    0.10
   7  -3 -19    1.47    0.19
   6  -3 -19    0.41    0.16
   5  -3 -19    0.15    0.10
   4  -3 -19    6.41    0.33
   4  -3 -19    6.04    0.26
   3  -3 -19    0.01    0.09
   3  -3 -19    0.10    0.05
  -3   3  19   -0.01    0.06
   2  -3 -19    3.63    0.24
   2  -3 -19    3.43    0.17
   2   3 -19    3.21    0.18
  -2   3  19    3.66    0.17
   1  -3 -19    0.54    0.08
   1  -3 -19    0.64    0.16
   1   3 -19    0.46    0.11
   1   3 -19    0.51    0.09
  -1   3  19    0.60    0.08
   0  -3 -19    1.58    0.11
   0  -3 -19    1.75    0.19
   0   3  19    1.62    0.11
   0   3 -19    1.70    0.12
   0   3 -19    1.53    0.11
  -1  -3 -19    6.50    0.26
   1   3  19    6.71    0.26
  -1   3 -19    6.57    0.26
  -1   3 -19    5.96    0.25
  -2   3 -19    9.18    0.34
  -2   3 -19    8.94    0.33
   2   3  19    8.67    0.33
  -9   4  19    2.88    0.15
  -8   4  19    3.29    0.16
   5  -4 -19    1.45    0.24
   4  -4 -19    5.43    0.31
   3  -4 -19    6.88    0.42
  -2   4  19   12.37    0.45
  -1   4  19    0.59    0.08
   0   4  19    1.87    0.10
  10   0 -20    7.95    0.39
   9   0 -20    0.00    0.12
   8   0 -20    9.80    0.45
   7   0 -20   -0.03    0.11
   6   0 -20    4.94    0.23
   6   0 -20    4.56    0.30
   5   0 -20    0.01    0.13
   5   0 -20   -0.03    0.07
   4   0 -20    7.71    0.40
   4   0 -20    7.95    0.32
   3   0 -20    0.01    0.06
   3   0 -20   -0.07    0.14
   2   0 -20   16.14    0.59
   2   0 -20   15.53    0.66
   1   0 -20    0.04    0.05
   0   0 -20   16.33    0.58
   0   0 -20   15.65    0.58
  -1   0 -20    0.01    0.04
  -2   0 -20    4.59    0.19
  10  -1 -20    8.50    0.40
   9  -1 -20    1.70    0.19
   9   1 -20    2.07    0.38
   8  -1 -20    4.91    0.29
   8   1 -20    5.06    0.34
   7  -1 -20    0.44    0.12
   7   1 -20    0.36    0.18
   6  -1 -20   12.84    0.56
   6  -1 -20   11.84    0.49
   6   1 -20   15.22    0.79
   5  -1 -20    0.25    0.07
   5  -1 -20    0.52    0.17
   5   1 -20    0.06    0.08
   4  -1 -20    0.35    0.12
   4  -1 -20    0.54    0.10
   4   1 -20    0.18    0.07
   3  -1 -20    0.88    0.18
   3  -1 -20    0.74    0.10
   3   1 -20    0.79    0.11
   2  -1 -20    0.28    0.08
   2  -1 -20    0.00    0.11
   2   1 -20    0.18    0.06
   2   1 -20    0.16    0.07
   1  -1 -20    0.28    0.08
   1  -1 -20    0.56    0.20
   1   1 -20    0.39    0.09
   1   1 -20    0.22    0.06
   0  -1 -20    6.31    0.26
   0   1 -20    6.76    0.27
   0   1 -20    6.41    0.26
  -1  -1 -20    0.12    0.05
  -1   1 -20    0.05    0.05
  -1   1 -20    0.02    0.04
  -2  -1 -20    2.32    0.12
  -2   1 -20    2.35    0.12
  -2   1 -20    2.47    0.13
   9  -2 -20    1.34    0.18
   8  -2 -20    0.16    0.10
   7  -2 -20    2.55    0.22
   6  -2 -20    7.65    0.38
   5  -2 -20    0.08    0.05
   5  -2 -20    0.00    0.10
   4  -2 -20    2.91    0.23
   4  -2 -20    2.97    0.16
   3  -2 -20    0.75    0.09
   3  -2 -20    0.84    0.17
   3   2 -20    0.68    0.12
  -3   2  20    0.86    0.12
   2  -2 -20    1.68    0.11
   2  -2 -20    1.99    0.20
   2   2 -20    1.70    0.13
   1  -2 -20   18.23    0.69
   1  -2 -20   17.22    0.62
   1   2 -20   17.51    0.62
   1   2 -20   16.14    0.61
   0  -2 -20    4.78    0.20
   0   2 -20    4.31    0.19
   0   2 -20    4.65    0.20
  -1  -2 -20   12.06    0.44
  -1   2 -20   12.08    0.44
  -1   2 -20   12.32    0.44
  -9   3  20    0.99    0.12
   7  -3 -20    0.18    0.12
   6  -3 -20    6.01    0.32
   5  -3 -20   -0.03    0.10
   4  -3 -20    1.07    0.17
   3  -3 -20    1.15    0.17
  -2   3  20    1.90    0.13
  -1   3  20    0.18    0.05
   0   3  20    2.02    0.11
   5   0 -21    0.04    0.06
   4   0 -21   -0.02    0.06
   3   0 -21    0.02    0.05
   2   0 -21   -0.01    0.05
   1   0 -21    1.09    0.09
   0   0 -21    0.08    0.04
   7  -1 -21    0.07    0.12
   6  -1 -21    6.90    0.35
   5  -1 -21    0.55    0.19
   5  -1 -21    0.48    0.09
   4  -1 -21   35.89    1.33
   4  -1 -21   37.68    1.28
   4   1 -21   37.14    1.27
   3  -1 -21    4.92    0.21
   3   1 -21    4.96    0.22
   2  -1 -21   10.11    0.38
   2   1 -21    9.87    0.38
   1  -1 -21    0.06    0.05
   1   1 -21    0.02    0.05
   0  -1 -21    0.05    0.04
   0   1 -21    0.00    0.04
   3  -2 -21    6.08    0.24
   2  -2 -21    2.05    0.11
   1  -2 -21    0.53    0.07
   4   0 -22    0.01    0.07
   3   0 -22    0.02    0.05
   0   0   0    0.00    0.00
;
_shelx_hkl_checksum              61122
_shelx_res_file
;
    shelx.res created by SHELXL-2014/7
TITL SKM216_0m_a.res in P2(1)/n
CELL  1.54178  14.7620   7.3509  17.9987   90.000  106.936   90.000
ZERR    4.000   0.0004   0.0002   0.0005    0.000    0.001    0.000
LATT  1
SYMM 1/2-X, 1/2+Y, 1/2-Z
SFAC C H N S O
UNIT 72 84 20 8 4
OMIT 1 0 1
TEMP -123
SIZE 0.16 0.20 0.20
L.S. 13
BOND $H
LIST 4
FMAP 2
PLAN 5
EQIV $1 x, y+1, z
HTAB N3 O1A_$1
HTAB N3 O1B_$1
EQIV $2 -x+1, -y+1, -z+1
HTAB N5 S1_$2
EQIV $3 -x+1/2, y+1/2, -z+1/2
HTAB C17A O1A_$3
HTAB C17B N2
CONF
ACTA 138
MPLA N1 C1 > C12
MPLA N2 N3 N4 C15 C16
EADP S2A S2B
EADP O1A O1B
EADP C17A C17B
EADP C18A C18B
WGHT    0.067600    1.679300
FVAR       0.18179   0.60383
S1    4    0.446807    0.790609    0.486033    11.00000    0.03262    0.01942 =
         0.04055   -0.00093    0.01894   -0.00384
N1    3    0.290319   -0.055641    0.601951    11.00000    0.02568    0.01482 =
         0.02382    0.00346    0.00956   -0.00113
N2    3    0.220633    0.493863    0.466255    11.00000    0.03054    0.01855 =
         0.03784    0.00331    0.00750   -0.00364
N3    3    0.272610    0.628292    0.443303    11.00000    0.03219    0.01839 =
         0.03156    0.00461    0.00694   -0.00243
AFIX   3
H3A   2    0.246161    0.703109    0.402459    11.00000   -1.20000
AFIX   0
N4    3    0.364871    0.516074    0.546125    11.00000    0.02457    0.01588 =
         0.02547    0.00042    0.00904    0.00000
N5    3    0.442021    0.476217    0.610525    11.00000    0.02723    0.02469 =
         0.02753   -0.00110    0.00621    0.00311
AFIX   3
H5A   2    0.462073    0.585340    0.633271    11.00000   -1.20000
H5B   2    0.487820    0.429849    0.591364    11.00000   -1.20000
AFIX   0
C1    1    0.205002   -0.147151    0.588595    11.00000    0.02585    0.01451 =
         0.02096   -0.00073    0.00885   -0.00008
C2    1    0.121518   -0.124753    0.528826    11.00000    0.03066    0.01970 =
         0.02548    0.00176    0.00545    0.00231
AFIX  43
H2    2    0.116454   -0.036247    0.489360    11.00000   -1.20000
AFIX   0
C3    1    0.045974   -0.236332    0.528963    11.00000    0.02742    0.02667 =
         0.03557   -0.00266    0.00160    0.00007
AFIX  43
H3    2   -0.011698   -0.224545    0.488441    11.00000   -1.20000
AFIX   0
C4    1    0.052327   -0.366113    0.587256    11.00000    0.02827    0.02541 =
         0.04046   -0.00341    0.01106   -0.00762
AFIX  43
H4    2   -0.001175   -0.438974    0.586233    11.00000   -1.20000
AFIX   0
C5    1    0.135865   -0.389134    0.646334    11.00000    0.03114    0.01860 =
         0.03096    0.00036    0.01358   -0.00341
AFIX  43
H5    2    0.140295   -0.477978    0.685565    11.00000   -1.20000
AFIX   0
C6    1    0.213654   -0.279478    0.647340    11.00000    0.02620    0.01354 =
         0.02113   -0.00049    0.00972    0.00010
C7    1    0.309503   -0.267223    0.697550    11.00000    0.02639    0.01586 =
         0.01929   -0.00125    0.00928    0.00138
C8    1    0.360904   -0.363275    0.763549    11.00000    0.03640    0.02247 =
         0.02084    0.00228    0.01026    0.00510
AFIX  43
H8    2    0.331705   -0.457244    0.784648    11.00000   -1.20000
AFIX   0
C9    1    0.454944   -0.318902    0.797475    11.00000    0.03576    0.03393 =
         0.02351   -0.00040    0.00336    0.01148
AFIX  43
H9    2    0.490529   -0.383175    0.842271    11.00000   -1.20000
AFIX   0
C10   1    0.498351   -0.180757    0.766745    11.00000    0.02458    0.03594 =
         0.03336   -0.00802    0.00517    0.00321
AFIX  43
H10   2    0.563129   -0.153430    0.791061    11.00000   -1.20000
AFIX   0
C11   1    0.449388   -0.082832    0.701836    11.00000    0.02547    0.02551 =
         0.03334   -0.00480    0.01134   -0.00243
AFIX  43
H11   2    0.479224    0.011203    0.681343    11.00000   -1.20000
AFIX   0
C12   1    0.354460   -0.127508    0.667612    11.00000    0.02408    0.01671 =
         0.02208   -0.00231    0.00881    0.00102
C13   1    0.305888    0.098756    0.557082    11.00000    0.03517    0.01464 =
         0.02808    0.00333    0.01652   -0.00036
AFIX  23
H13A  2    0.278627    0.071905    0.501094    11.00000   -1.20000
H13B  2    0.374840    0.117490    0.567220    11.00000   -1.20000
AFIX   0
C14   1    0.261343    0.273968    0.576715    11.00000    0.03110    0.01590 =
         0.03506    0.00164    0.01624   -0.00054
AFIX  23
H14A  2    0.192272    0.256491    0.566348    11.00000   -1.20000
H14B  2    0.288643    0.302159    0.632574    11.00000   -1.20000
AFIX   0
C15   1    0.279121    0.428378    0.529323    11.00000    0.02530    0.01377 =
         0.03167   -0.00140    0.01179   -0.00026
C16   1    0.360480    0.646417    0.490549    11.00000    0.03052    0.01525 =
         0.02744   -0.00187    0.01384    0.00112
PART 1
S2A   4    0.203447    0.067461    0.346148    21.00000    0.03713    0.02541 =
         0.02978    0.00242    0.00501   -0.00033
O1A   5    0.209304   -0.124211    0.319403    21.00000    0.04528    0.01994 =
         0.03769    0.00410   -0.00164   -0.00264
C17A  1    0.309988    0.180119    0.345933    21.00000    0.03345    0.03701 =
         0.04049    0.00857    0.00967   -0.00388
AFIX  33
H17A  2    0.308166    0.306126    0.363221    21.00000   -1.50000
H17B  2    0.364120    0.117147    0.381212    21.00000   -1.50000
H17C  2    0.316386    0.179162    0.293246    21.00000   -1.50000
AFIX   0
C18A  1    0.123484    0.186747    0.269220    21.00000    0.03756    0.03665 =
         0.06372    0.02013   -0.00125   -0.00081
AFIX  33
H18A  2    0.118176    0.312913    0.285045    21.00000   -1.50000
H18B  2    0.146808    0.185058    0.223517    21.00000   -1.50000
H18C  2    0.061152    0.128376    0.256466    21.00000   -1.50000
AFIX   0
PART 2
SAME 0.003 S2A > C18A
S2B   4    0.218289    0.050753    0.298731   -21.00000    0.03713    0.02541 =
         0.02978    0.00242    0.00501   -0.00033
O1B   5    0.193603   -0.069318    0.358267   -21.00000    0.04528    0.01994 =
         0.03769    0.00410   -0.00164   -0.00264
C17B  1    0.317088    0.185158    0.350001   -21.00000    0.03345    0.03701 =
         0.04049    0.00857    0.00967   -0.00388
AFIX  33
H17D  2    0.335616    0.265511    0.313484   -21.00000   -1.50000
H17E  2    0.299808    0.258613    0.389241   -21.00000   -1.50000
H17F  2    0.370217    0.105321    0.375495   -21.00000   -1.50000
AFIX   0
C18B  1    0.131351    0.224492    0.275827   -21.00000    0.03756    0.03665 =
         0.06372    0.02013   -0.00125   -0.00081
AFIX  33
H18D  2    0.144130    0.306680    0.237198   -21.00000   -1.50000
H18E  2    0.068564    0.169744    0.254677   -21.00000   -1.50000
H18F  2    0.133278    0.293141    0.322937   -21.00000   -1.50000
AFIX   0
HKLF 4
REM  SKM216_0m_a.res in P2(1)/n
REM R1 =  0.0455 for    3350 Fo > 4sig(Fo)  and  0.0476 for all    3572 data
REM    248 parameters refined using      6 restraints
END
WGHT      0.0676      1.6793
REM Highest difference peak  0.572,  deepest hole -0.755,  1-sigma level  0.068
Q1    1   0.2461  0.0747  0.2844  11.00000  0.05    0.57
Q2    1   0.1814  0.0299  0.3017  11.00000  0.05    0.50
Q3    1   0.1838 -0.0262  0.3852  11.00000  0.05    0.36
Q4    1   0.2614 -0.2804  0.6779  11.00000  0.05    0.27
Q5    1   0.3331 -0.3189  0.7284  11.00000  0.05    0.27
;
_shelx_res_checksum              24693
loop_
_space_group_symop_operation_xyz
'x, y, z'
'-x+1/2, y+1/2, -z+1/2'
'-x, -y, -z'
'x-1/2, -y-1/2, z-1/2'
loop_
_atom_site_type_symbol
_atom_site_label
_atom_site_fract_x
_atom_site_fract_y
_atom_site_fract_z
_atom_site_U_iso_or_equiv
_atom_site_adp_type
_atom_site_calc_flag
_atom_site_occupancy
_atom_site_disorder_assembly
_atom_site_disorder_group
S S1 0.44681(3) 0.79061(6) 0.48603(3) 0.02910(16) Uani d 1 . .
N N1 0.29032(11) -0.0556(2) 0.60195(9) 0.0209(3) Uani d 1 . .
N N2 0.22063(12) 0.4939(2) 0.46625(10) 0.0295(4) Uani d 1 . .
N N3 0.27261(12) 0.6283(2) 0.44330(10) 0.0279(4) Uani d 1 . .
H H3A 0.2462 0.7031 0.4025 0.033 Uiso d 1 . .
N N4 0.36487(11) 0.5161(2) 0.54612(9) 0.0216(3) Uani d 1 . .
N N5 0.44202(12) 0.4762(2) 0.61052(10) 0.0269(4) Uani d 1 . .
H H5A 0.4621 0.5853 0.6333 0.032 Uiso d 1 . .
H H5B 0.4878 0.4298 0.5914 0.032 Uiso d 1 . .
C C1 0.20500(13) -0.1472(2) 0.58859(10) 0.0200(4) Uani d 1 . .
C C2 0.12152(14) -0.1248(3) 0.52883(11) 0.0259(4) Uani d 1 . .
H H2 0.1165 -0.0362 0.4894 0.031 Uiso calc 1 . .
C C3 0.04597(15) -0.2363(3) 0.52896(13) 0.0315(4) Uani d 1 . .
H H3 -0.0117 -0.2245 0.4884 0.038 Uiso calc 1 . .
C C4 0.05233(14) -0.3661(3) 0.58726(13) 0.0312(5) Uani d 1 . .
H H4 -0.0012 -0.4390 0.5862 0.037 Uiso calc 1 . .
C C5 0.13586(14) -0.3891(3) 0.64633(12) 0.0259(4) Uani d 1 . .
H H5 0.1403 -0.4780 0.6856 0.031 Uiso calc 1 . .
C C6 0.21365(13) -0.2795(2) 0.64734(10) 0.0197(4) Uani d 1 . .
C C7 0.30950(13) -0.2672(2) 0.69755(10) 0.0200(4) Uani d 1 . .
C C8 0.36090(14) -0.3633(3) 0.76355(11) 0.0262(4) Uani d 1 . .
H H8 0.3317 -0.4572 0.7846 0.031 Uiso calc 1 . .
C C9 0.45494(15) -0.3189(3) 0.79747(12) 0.0322(5) Uani d 1 . .
H H9 0.4905 -0.3832 0.8423 0.039 Uiso calc 1 . .
C C10 0.49835(14) -0.1808(3) 0.76675(12) 0.0320(5) Uani d 1 . .
H H10 0.5631 -0.1534 0.7911 0.038 Uiso calc 1 . .
C C11 0.44939(14) -0.0828(3) 0.70184(12) 0.0275(4) Uani d 1 . .
H H11 0.4792 0.0112 0.6813 0.033 Uiso calc 1 . .
C C12 0.35446(13) -0.1275(2) 0.66761(10) 0.0205(4) Uani d 1 . .
C C13 0.30589(14) 0.0988(2) 0.55708(11) 0.0244(4) Uani d 1 . .
H H13A 0.2786 0.0719 0.5011 0.029 Uiso calc 1 . .
H H13B 0.3748 0.1175 0.5672 0.029 Uiso calc 1 . .
C C14 0.26134(14) 0.2740(2) 0.57672(12) 0.0260(4) Uani d 1 . .
H H14A 0.1923 0.2565 0.5663 0.031 Uiso calc 1 . .
H H14B 0.2886 0.3022 0.6326 0.031 Uiso calc 1 . .
C C15 0.27912(13) 0.4284(2) 0.52932(11) 0.0228(4) Uani d 1 . .
C C16 0.36048(14) 0.6464(2) 0.49055(11) 0.0233(4) Uani d 1 . .
S S2A 0.20345(6) 0.06746(11) 0.34615(5) 0.0318(2) Uani d 0.6038(10) A 1
O O1A 0.20930(19) -0.1242(3) 0.31940(15) 0.0372(6) Uani d 0.6038(10) A 1
C C17A 0.3100(5) 0.1801(13) 0.3459(10) 0.0372(5) Uani d 0.6038(10) A 1
H H17A 0.3082 0.3061 0.3632 0.056 Uiso calc 0.6038(10) A 1
H H17B 0.3641 0.1171 0.3812 0.056 Uiso calc 0.6038(10) A 1
H H17C 0.3164 0.1792 0.2932 0.056 Uiso calc 0.6038(10) A 1
C C18A 0.1235(4) 0.1867(10) 0.2692(10) 0.0494(18) Uani d 0.6038(10) A 1
H H18A 0.1182 0.3129 0.2850 0.074 Uiso calc 0.6038(10) A 1
H H18B 0.1468 0.1851 0.2235 0.074 Uiso calc 0.6038(10) A 1
H H18C 0.0612 0.1284 0.2565 0.074 Uiso calc 0.6038(10) A 1
S S2B 0.21829(9) 0.05075(17) 0.29873(8) 0.0318(2) Uani d 0.3962(10) A 2
O O1B 0.1936(3) -0.0693(5) 0.3583(2) 0.0372(6) Uani d 0.3962(10) A 2
C C17B 0.3171(8) 0.185(2) 0.3500(15) 0.0372(5) Uani d 0.3962(10) A 2
H H17D 0.3356 0.2655 0.3135 0.056 Uiso calc 0.3962(10) A 2
H H17E 0.2998 0.2586 0.3892 0.056 Uiso calc 0.3962(10) A 2
H H17F 0.3702 0.1053 0.3755 0.056 Uiso calc 0.3962(10) A 2
C C18B 0.1314(6) 0.2245(18) 0.2758(16) 0.0494(18) Uani d 0.3962(10) A 2
H H18D 0.1441 0.3067 0.2372 0.074 Uiso calc 0.3962(10) A 2
H H18E 0.0686 0.1697 0.2547 0.074 Uiso calc 0.3962(10) A 2
H H18F 0.1333 0.2931 0.3229 0.074 Uiso calc 0.3962(10) A 2
loop_
_atom_site_aniso_label
_atom_site_aniso_U_11
_atom_site_aniso_U_22
_atom_site_aniso_U_33
_atom_site_aniso_U_12
_atom_site_aniso_U_13
_atom_site_aniso_U_23
S1 0.0326(3) 0.0194(3) 0.0406(3) -0.00384(17) 0.0189(2) -0.00093(18)
N1 0.0257(8) 0.0148(7) 0.0238(8) -0.0011(6) 0.0096(6) 0.0035(6)
N2 0.0305(9) 0.0185(8) 0.0378(9) -0.0036(6) 0.0075(7) 0.0033(7)
N3 0.0322(9) 0.0184(8) 0.0316(9) -0.0024(6) 0.0069(7) 0.0046(6)
N4 0.0246(8) 0.0159(7) 0.0255(8) 0.0000(6) 0.0090(6) 0.0004(6)
N5 0.0272(8) 0.0247(8) 0.0275(8) 0.0031(6) 0.0062(7) -0.0011(6)
C1 0.0258(9) 0.0145(8) 0.0210(8) -0.0001(7) 0.0088(7) -0.0007(6)
C2 0.0307(10) 0.0197(9) 0.0255(9) 0.0023(7) 0.0054(8) 0.0018(7)
C3 0.0274(10) 0.0267(10) 0.0356(11) 0.0001(8) 0.0016(8) -0.0027(8)
C4 0.0283(10) 0.0254(10) 0.0405(11) -0.0076(8) 0.0111(9) -0.0034(8)
C5 0.0311(10) 0.0186(9) 0.0310(10) -0.0034(7) 0.0136(8) 0.0004(7)
C6 0.0262(9) 0.0135(8) 0.0211(8) 0.0001(6) 0.0097(7) -0.0005(6)
C7 0.0264(9) 0.0159(8) 0.0193(8) 0.0014(7) 0.0093(7) -0.0012(6)
C8 0.0364(10) 0.0225(9) 0.0208(9) 0.0051(8) 0.0103(8) 0.0023(7)
C9 0.0358(11) 0.0339(11) 0.0235(9) 0.0115(9) 0.0034(8) -0.0004(8)
C10 0.0246(9) 0.0359(11) 0.0334(11) 0.0032(8) 0.0052(8) -0.0080(9)
C11 0.0255(9) 0.0255(10) 0.0333(10) -0.0024(8) 0.0113(8) -0.0048(8)
C12 0.0241(9) 0.0167(8) 0.0221(8) 0.0010(7) 0.0088(7) -0.0023(7)
C13 0.0352(10) 0.0146(8) 0.0281(9) -0.0004(7) 0.0165(8) 0.0033(7)
C14 0.0311(10) 0.0159(9) 0.0351(10) -0.0005(7) 0.0162(8) 0.0016(7)
C15 0.0253(9) 0.0138(8) 0.0317(10) -0.0003(7) 0.0118(8) -0.0014(7)
C16 0.0305(9) 0.0152(8) 0.0274(9) 0.0011(7) 0.0138(8) -0.0019(7)
S2A 0.0371(4) 0.0254(4) 0.0298(4) -0.0003(3) 0.0050(3) 0.0024(3)
O1A 0.0453(12) 0.0199(12) 0.0377(14) -0.0026(9) -0.0016(11) 0.0041(9)
C17A 0.0335(14) 0.0370(13) 0.0405(17) -0.0039(10) 0.0097(13) 0.0086(12)
C18A 0.0376(16) 0.037(4) 0.064(3) -0.0008(19) -0.0012(19) 0.020(4)
S2B 0.0371(4) 0.0254(4) 0.0298(4) -0.0003(3) 0.0050(3) 0.0024(3)
O1B 0.0453(12) 0.0199(12) 0.0377(14) -0.0026(9) -0.0016(11) 0.0041(9)
C17B 0.0335(14) 0.0370(13) 0.0405(17) -0.0039(10) 0.0097(13) 0.0086(12)
C18B 0.0376(16) 0.037(4) 0.064(3) -0.0008(19) -0.0012(19) 0.020(4)
loop_
_atom_type_symbol
_atom_type_description
_atom_type_scat_dispersion_real
_atom_type_scat_dispersion_imag
_atom_type_scat_source
C C 0.0181 0.0091 'International Tables Vol C Tables 4.2.6.8 and 6.1.1.4'
H H 0.0000 0.0000 'International Tables Vol C Tables 4.2.6.8 and 6.1.1.4'
N N 0.0311 0.0180 'International Tables Vol C Tables 4.2.6.8 and 6.1.1.4'
S S 0.3331 0.5567 'International Tables Vol C Tables 4.2.6.8 and 6.1.1.4'
O O 0.0492 0.0322 'International Tables Vol C Tables 4.2.6.8 and 6.1.1.4'
loop_
_geom_angle_atom_site_label_1
_geom_angle_atom_site_label_2
_geom_angle_atom_site_label_3
_geom_angle
C1 N1 C12 108.88(14)
C1 N1 C13 124.54(15)
C12 N1 C13 126.43(16)
C15 N2 N3 103.85(16)
C16 N3 N2 113.64(16)
C16 N3 H3A 124.3
N2 N3 H3A 121.8
C16 N4 C15 108.80(16)
C16 N4 N5 127.16(16)
C15 N4 N5 124.04(15)
N4 N5 H5A 105.5
N4 N5 H5B 106.2
H5A N5 H5B 108.7
N1 C1 C2 129.28(17)
N1 C1 C6 108.93(15)
C2 C1 C6 121.78(17)
C3 C2 C1 117.48(18)
C3 C2 H2 121.3
C1 C2 H2 121.3
C2 C3 C4 121.76(19)
C2 C3 H3 119.1
C4 C3 H3 119.1
C5 C4 C3 120.59(18)
C5 C4 H4 119.7
C3 C4 H4 119.7
C4 C5 C6 118.93(18)
C4 C5 H5 120.5
C6 C5 H5 120.5
C5 C6 C1 119.44(17)
C5 C6 C7 134.08(17)
C1 C6 C7 106.48(15)
C8 C7 C12 119.46(17)
C8 C7 C6 133.64(17)
C12 C7 C6 106.89(15)
C9 C8 C7 118.81(19)
C9 C8 H8 120.6
C7 C8 H8 120.6
C8 C9 C10 120.90(19)
C8 C9 H9 119.6
C10 C9 H9 119.6
C11 C10 C9 121.68(19)
C11 C10 H10 119.2
C9 C10 H10 119.2
C10 C11 C12 117.43(19)
C10 C11 H11 121.3
C12 C11 H11 121.3
N1 C12 C11 129.45(17)
N1 C12 C7 108.81(15)
C11 C12 C7 121.72(17)
N1 C13 C14 112.40(15)
N1 C13 H13A 109.1
C14 C13 H13A 109.1
N1 C13 H13B 109.1
C14 C13 H13B 109.1
H13A C13 H13B 107.9
C15 C14 C13 110.45(15)
C15 C14 H14A 109.6
C13 C14 H14A 109.6
C15 C14 H14B 109.6
C13 C14 H14B 109.6
H14A C14 H14B 108.1
N2 C15 N4 110.67(16)
N2 C15 C14 126.79(17)
N4 C15 C14 122.47(17)
N3 C16 N4 103.03(16)
N3 C16 S1 130.04(15)
N4 C16 S1 126.93(15)
O1A S2A C18A 107.6(5)
O1A S2A C17A 107.6(6)
C18A S2A C17A 99.0(4)
S2A C17A H17A 109.5
S2A C17A H17B 109.5
H17A C17A H17B 109.5
S2A C17A H17C 109.5
H17A C17A H17C 109.5
H17B C17A H17C 109.5
S2A C18A H18A 109.5
S2A C18A H18B 109.5
H18A C18A H18B 109.5
S2A C18A H18C 109.5
H18A C18A H18C 109.5
H18B C18A H18C 109.5
O1B S2B C18B 106.1(6)
O1B S2B C17B 106.7(7)
C18B S2B C17B 98.6(5)
S2B C17B H17D 109.5
S2B C17B H17E 109.5
H17D C17B H17E 109.5
S2B C17B H17F 109.5
H17D C17B H17F 109.5
H17E C17B H17F 109.5
S2B C18B H18D 109.5
S2B C18B H18E 109.5
H18D C18B H18E 109.5
S2B C18B H18F 109.5
H18D C18B H18F 109.5
H18E C18B H18F 109.5
loop_
_geom_bond_atom_site_label_1
_geom_bond_atom_site_label_2
_geom_bond_distance
S1 C16 1.6776(19)
N1 C1 1.386(2)
N1 C12 1.386(2)
N1 C13 1.450(2)
N2 C15 1.302(3)
N2 N3 1.386(2)
N3 C16 1.334(3)
N3 H3A 0.9100
N4 C16 1.373(2)
N4 C15 1.373(2)
N4 N5 1.399(2)
N5 H5A 0.9100
N5 H5B 0.9100
C1 C2 1.390(3)
C1 C6 1.415(2)
C2 C3 1.385(3)
C2 H2 0.9500
C3 C4 1.401(3)
C3 H3 0.9500
C4 C5 1.384(3)
C4 H4 0.9500
C5 C6 1.399(3)
C5 H5 0.9500
C6 C7 1.443(3)
C7 C8 1.400(3)
C7 C12 1.412(2)
C8 C9 1.383(3)
C8 H8 0.9500
C9 C10 1.398(3)
C9 H9 0.9500
C10 C11 1.383(3)
C10 H10 0.9500
C11 C12 1.396(3)
C11 H11 0.9500
C13 C14 1.533(3)
C13 H13A 0.9900
C13 H13B 0.9900
C14 C15 1.488(3)
C14 H14A 0.9900
C14 H14B 0.9900
S2A O1A 1.500(2)
S2A C18A 1.768(7)
S2A C17A 1.778(7)
C17A H17A 0.9800
C17A H17B 0.9800
C17A H17C 0.9800
C18A H18A 0.9800
C18A H18B 0.9800
C18A H18C 0.9800
S2B O1B 1.512(3)
S2B C18B 1.772(8)
S2B C17B 1.781(8)
C17B H17D 0.9800
C17B H17E 0.9800
C17B H17F 0.9800
C18B H18D 0.9800
C18B H18E 0.9800
C18B H18F 0.9800
loop_
_geom_hbond_atom_site_label_D
_geom_hbond_atom_site_label_H
_geom_hbond_atom_site_label_A
_geom_hbond_site_symmetry_A
_geom_hbond_distance_DH
_geom_hbond_distance_HA
_geom_hbond_distance_DA
_geom_hbond_angle_DHA
N3 H3A O1A 1_565 0.91 1.92 2.818(3) 171
N3 H3A O1B 1_565 0.91 1.92 2.758(4) 153
N5 H5B S1 3_666 0.91 2.51 3.3500(17) 154
C17A H17C O1A 2 0.98 2.43 3.242(15) 140
C5 H5 Cg4 2_546 0.95 2.54 3.452(2) 161
N5 H5A Cg4 1_565 0.91 2.60 3.2718(18) 131
loop_
_geom_torsion_atom_site_label_1
_geom_torsion_atom_site_label_2
_geom_torsion_atom_site_label_3
_geom_torsion_atom_site_label_4
_geom_torsion
C15 N2 N3 C16 -0.2(2)
C12 N1 C1 C2 -178.40(18)
C13 N1 C1 C2 5.8(3)
C12 N1 C1 C6 0.7(2)
C13 N1 C1 C6 -175.03(15)
N1 C1 C2 C3 179.56(18)
C6 C1 C2 C3 0.5(3)
C1 C2 C3 C4 0.6(3)
C2 C3 C4 C5 -1.2(3)
C3 C4 C5 C6 0.6(3)
C4 C5 C6 C1 0.5(3)
C4 C5 C6 C7 -178.90(19)
N1 C1 C6 C5 179.69(16)
C2 C1 C6 C5 -1.1(3)
N1 C1 C6 C7 -0.75(19)
C2 C1 C6 C7 178.46(17)
C5 C6 C7 C8 1.3(4)
C1 C6 C7 C8 -178.19(19)
C5 C6 C7 C12 179.95(19)
C1 C6 C7 C12 0.49(19)
C12 C7 C8 C9 -0.3(3)
C6 C7 C8 C9 178.20(19)
C7 C8 C9 C10 0.0(3)
C8 C9 C10 C11 0.3(3)
C9 C10 C11 C12 -0.2(3)
C1 N1 C12 C11 177.88(18)
C13 N1 C12 C11 -6.5(3)
C1 N1 C12 C7 -0.4(2)
C13 N1 C12 C7 175.25(16)
C10 C11 C12 N1 -178.21(18)
C10 C11 C12 C7 -0.1(3)
C8 C7 C12 N1 178.85(16)
C6 C7 C12 N1 -0.05(19)
C8 C7 C12 C11 0.4(3)
C6 C7 C12 C11 -178.51(17)
C1 N1 C13 C14 75.0(2)
C12 N1 C13 C14 -100.0(2)
N1 C13 C14 C15 -179.99(15)
N3 N2 C15 N4 -0.2(2)
N3 N2 C15 C14 -177.15(18)
C16 N4 C15 N2 0.4(2)
N5 N4 C15 N2 179.78(16)
C16 N4 C15 C14 177.57(16)
N5 N4 C15 C14 -3.1(3)
C13 C14 C15 N2 99.2(2)
C13 C14 C15 N4 -77.4(2)
N2 N3 C16 N4 0.4(2)
N2 N3 C16 S1 -179.43(14)
C15 N4 C16 N3 -0.49(19)
N5 N4 C16 N3 -179.81(16)
C15 N4 C16 S1 179.35(14)
N5 N4 C16 S1 0.0(3)

_cod_database_fobs_code 1544662
