#------------------------------------------------------------------------------
#$Date: 2017-01-09 08:42:38 +0200 (Mon, 09 Jan 2017) $
#$Revision: 190278 $
#$URL: file:///home/coder/svn-repositories/cod/cif/1/54/42/1544241.cif $
#------------------------------------------------------------------------------
#
# This file is available in the Crystallography Open Database (COD),
# http://www.crystallography.net/
#
# All data on this site have been placed in the public domain by the
# contributors.
#
data_1544241
loop_
_publ_author_name
'Sabatini, Randy P.'
'Mark, Michael F.'
'Mark, Daniel J.'
'Kryman, Mark W.'
'Hill, Jacqueline E.'
'Brennessel, William W.'
'Detty, Michael R.'
'Eisenberg, Richard'
'McCamant, David W.'
_publ_section_title
;
 A comparative study of the photophysics of phenyl, thienyl, and chalcogen
 substituted rhodamine dyes.
;
_journal_issue                   11
_journal_name_full
'Photochemical &amp; photobiological sciences : Official journal of the European Photochemistry Association and the European Society for Photobiology'
_journal_page_first              1417
_journal_page_last               1432
_journal_paper_doi               10.1039/c6pp00233a
_journal_volume                  15
_journal_year                    2016
_chemical_formula_moiety         'C21 H21 N2 O S, F6 P'
_chemical_formula_sum            'C21 H21 F6 N2 O P S'
_chemical_formula_weight         494.43
_chemical_name_common            eisrs03
_space_group_crystal_system      monoclinic
_space_group_IT_number           14
_space_group_name_Hall           '-P 2ybc'
_space_group_name_H-M_alt        'P 1 21/c 1'
_symmetry_space_group_name_Hall  '-P 2ybc'
_symmetry_space_group_name_H-M   'P 1 21/c 1'
_atom_sites_solution_hydrogens   geom
_atom_sites_solution_primary     direct
_atom_sites_solution_secondary   difmap
_audit_creation_method           SHELXL-2014/7
_audit_update_record
;
2016-01-09 deposited with the CCDC.
2016-10-03 downloaded from the CCDC.
;
_cell_angle_alpha                90
_cell_angle_beta                 102.883(3)
_cell_angle_gamma                90
_cell_formula_units_Z            4
_cell_length_a                   15.031(2)
_cell_length_b                   21.396(3)
_cell_length_c                   7.4045(11)
_cell_measurement_reflns_used    4078
_cell_measurement_temperature    100.0(5)
_cell_measurement_theta_max      24.48
_cell_measurement_theta_min      2.36
_cell_volume                     2321.4(6)
_computing_cell_refinement       'SAINT (Bruker, 2014)'
_computing_data_collection       'APEX2 (Bruker, 2014)'
_computing_data_reduction        'SAINT (Bruker, 2014)'
_computing_molecular_graphics    'SHELXTL (Sheldrick, 2008)'
_computing_publication_material  'SHELXTL (Sheldrick, 2008)'
_computing_structure_refinement  'SHELXL-2014/7 (Sheldrick, 2015)'
_computing_structure_solution    'SIR2011 (Burla et al., 2012)'
_diffrn_ambient_temperature      100.0(5)
_diffrn_measured_fraction_theta_full 0.999
_diffrn_measured_fraction_theta_max 0.998
_diffrn_measurement_device_type  'Bruker SMART APEX II CCD platform'
_diffrn_measurement_method       '\w scans'
_diffrn_radiation_type           MoK\a
_diffrn_radiation_wavelength     0.71073
_diffrn_reflns_av_R_equivalents  0.0988
_diffrn_reflns_av_unetI/netI     0.0638
_diffrn_reflns_Laue_measured_fraction_full 0.999
_diffrn_reflns_Laue_measured_fraction_max 0.998
_diffrn_reflns_limit_h_max       17
_diffrn_reflns_limit_h_min       -17
_diffrn_reflns_limit_k_max       25
_diffrn_reflns_limit_k_min       -25
_diffrn_reflns_limit_l_max       8
_diffrn_reflns_limit_l_min       -8
_diffrn_reflns_number            23326
_diffrn_reflns_point_group_measured_fraction_full 0.999
_diffrn_reflns_point_group_measured_fraction_max 0.998
_diffrn_reflns_theta_full        25.028
_diffrn_reflns_theta_max         25.066
_diffrn_reflns_theta_min         1.904
_diffrn_source                   'fine-focus sealed tube'
_exptl_absorpt_coefficient_mu    0.272
_exptl_absorpt_correction_T_max  0.7452
_exptl_absorpt_correction_T_min  0.5916
_exptl_absorpt_correction_type   multi-scan
_exptl_absorpt_process_details   'SADABS (Sheldrick, 2014)'
_exptl_crystal_colour            yellow-violet
_exptl_crystal_density_diffrn    1.415
_exptl_crystal_description       needle
_exptl_crystal_F_000             1016
_exptl_crystal_size_max          0.48
_exptl_crystal_size_mid          0.16
_exptl_crystal_size_min          0.08
_refine_diff_density_max         0.281
_refine_diff_density_min         -0.292
_refine_diff_density_rms         0.059
_refine_ls_extinction_method     none
_refine_ls_goodness_of_fit_ref   1.014
_refine_ls_hydrogen_treatment    constr
_refine_ls_matrix_type           full
_refine_ls_number_parameters     307
_refine_ls_number_reflns         4105
_refine_ls_number_restraints     13
_refine_ls_restrained_S_all      1.014
_refine_ls_R_factor_all          0.0957
_refine_ls_R_factor_gt           0.0523
_refine_ls_shift/su_max          0.000
_refine_ls_shift/su_mean         0.000
_refine_ls_structure_factor_coef Fsqd
_refine_ls_weighting_details
'w=1/[\s^2^(Fo^2^)+(0.0520P)^2^+1.6810P] where P=(Fo^2^+2Fc^2^)/3'
_refine_ls_weighting_scheme      calc
_refine_ls_wR_factor_gt          0.1119
_refine_ls_wR_factor_ref         0.1289
_reflns_Friedel_coverage         0.000
_reflns_number_gt                2636
_reflns_number_total             4105
_reflns_threshold_expression     'I > 2\s(I)'
_cod_data_source_file            c6pp00233a2.cif
_cod_data_source_block           eisrs03
_cod_depositor_comments
'Adding full bibliography for 1544240--1544241.cif.'
_cod_original_cell_volume        2321.3(6)
_cod_database_code               1544241
_shelx_shelxl_version_number     2014/7
_shelx_space_group_comment
; 
The symmetry employed for this shelxl refinement is uniquely defined 
by the following loop, which should always be used as a source of 
symmetry information in preference to the above space-group names. 
They are only intended as comments. 
;
_shelx_estimated_absorpt_t_min   0.881
_shelx_estimated_absorpt_t_max   0.979
_shelx_res_file
; 
  
    eisrs03.res created by SHELXL-2014/7 
  
  
TITL eisrs03 in P2(1)/c 
CELL 0.71073  15.03110  21.39560   7.40450  90.0000 102.8833  90.0000 
ZERR    4.00   0.00220   0.00320   0.00110   0.0000   0.0029   0.0000 
LATT  1 
SYMM -X, 0.5+Y, 0.5-Z 
SFAC C H N O F P S 
UNIT 84 84 8 4 24 4 4 
TEMP -173 
SIZE 0.48 0.16 0.08 
  
OMIT  1  0  0 
OMIT  1  1  0 
  
L.S. 5 0   23 
BOND $H 
FMAP 2 
PLAN 18 
  
ACTA 50.055 
CONF 
HTAB 
  
ABIN 
WGHT    0.052000    1.681000 
FVAR       0.07445   0.81486   1.24378 
O1    4    0.191231    0.314400    0.744958    11.00000    0.01917    0.02220 = 
         0.02922   -0.00117    0.00536    0.00288 
N1    3    0.488812    0.355932    0.670372    11.00000    0.01962    0.02925 = 
         0.02983    0.00038    0.00698   -0.00073 
N2    3   -0.112916    0.296522    0.809921    11.00000    0.02329    0.03603 = 
         0.03225   -0.00040    0.00709   -0.00083 
C1    1    0.379124    0.206900    0.723908    11.00000    0.02843    0.02422 = 
         0.02421    0.00129    0.00497    0.00762 
AFIX  43 
H1A   2    0.394523    0.163771    0.732111    11.00000   -1.20000 
AFIX   0 
C2    1    0.444219    0.248764    0.706991    11.00000    0.02174    0.03203 = 
         0.02764    0.00163    0.00656    0.00873 
AFIX  43 
H2A   2    0.503464    0.234268    0.702796    11.00000   -1.20000 
AFIX   0 
C3    1    0.425710    0.314424    0.695284    11.00000    0.02193    0.02893 = 
         0.01716    0.00001    0.00062    0.00103 
C4    1    0.338154    0.333940    0.711899    11.00000    0.02341    0.02219 = 
         0.02244    0.00036    0.00165    0.00506 
AFIX  43 
H4A   2    0.324089    0.377234    0.711564    11.00000   -1.20000 
AFIX   0 
C5    1    0.042224    0.304708    0.776080    11.00000    0.02702    0.02484 = 
         0.01847    0.00171    0.00418    0.00452 
AFIX  43 
H5A   2    0.039187    0.349048    0.777808    11.00000   -1.20000 
AFIX   0 
C6    1   -0.034787    0.268586    0.790006    11.00000    0.02569    0.03283 = 
         0.01968   -0.00044    0.00135    0.00139 
C7    1   -0.027614    0.202439    0.777655    11.00000    0.02596    0.03129 = 
         0.02443    0.00046    0.00380   -0.00446 
AFIX  43 
H7A   2   -0.079359    0.177197    0.779841    11.00000   -1.20000 
AFIX   0 
C8    1    0.051694    0.174717    0.762816    11.00000    0.02901    0.02464 = 
         0.02497   -0.00193    0.00398   -0.00162 
AFIX  43 
H8A   2    0.053928    0.130433    0.755586    11.00000   -1.20000 
AFIX   0 
C9    1    0.216768    0.184187    0.743882    11.00000    0.02782    0.02588 = 
         0.01373   -0.00137    0.00164    0.00229 
C10   1    0.288542    0.224648    0.729956    11.00000    0.02341    0.01861 = 
         0.01868    0.00171    0.00169    0.00477 
C11   1    0.273740    0.290716    0.728431    11.00000    0.01846    0.02616 = 
         0.02016   -0.00077    0.00443    0.00554 
C12   1    0.120853    0.275617    0.760164    11.00000    0.02414    0.02466 = 
         0.01666    0.00062    0.00233   -0.00182 
C13   1    0.131556    0.209722    0.757727    11.00000    0.02386    0.02387 = 
         0.01847    0.00030    0.00221    0.00033 
C14   1    0.581756    0.334848    0.669176    11.00000    0.02259    0.04120 = 
         0.03958    0.00241    0.01013   -0.00064 
AFIX 137 
H14A  2    0.579652    0.305974    0.565564    11.00000   -1.50000 
H14B  2    0.607960    0.313478    0.785991    11.00000   -1.50000 
H14C  2    0.619620    0.371034    0.655177    11.00000   -1.50000 
AFIX   0 
C15   1    0.467830    0.422454    0.650080    11.00000    0.02890    0.02959 = 
         0.04334    0.00412    0.00914   -0.00378 
AFIX 137 
H15A  2    0.414796    0.428725    0.547498    11.00000   -1.50000 
H15B  2    0.520424    0.444911    0.624151    11.00000   -1.50000 
H15C  2    0.454169    0.438429    0.764956    11.00000   -1.50000 
AFIX   0 
C16   1   -0.120895    0.364402    0.807517    11.00000    0.03080    0.04086 = 
         0.04441    0.00526    0.01117    0.01289 
AFIX 137 
H16A  2   -0.105809    0.380806    0.694433    11.00000   -1.50000 
H16B  2   -0.078686    0.381856    0.916046    11.00000   -1.50000 
H16C  2   -0.183555    0.376198    0.810454    11.00000   -1.50000 
AFIX   0 
C17   1   -0.191726    0.260754    0.835392    11.00000    0.02887    0.04686 = 
         0.04326   -0.00295    0.01104   -0.00154 
AFIX 137 
H17A  2   -0.170972    0.224473    0.914352    11.00000   -1.50000 
H17B  2   -0.226865    0.246526    0.714648    11.00000   -1.50000 
H17C  2   -0.230332    0.287213    0.894305    11.00000   -1.50000 
AFIX   0 
SADI 0.01 C18 S1 C18' S1' 
EADP C18 C18' 
EXYZ C18 C18' 
EADP C19 S1' 
EADP C20 C21' 
EADP C21 C20' 
EADP S1 C19' 
FLAT 0.01 C18' C19' C20' C21' S1' 
PART   1 
C18   1    0.228283    0.115835    0.745908    21.00000    0.02839    0.02248 = 
         0.02454   -0.00296    0.00203   -0.00044 
C19   1    0.205956    0.075630    0.869608    21.00000    0.03385    0.02297 = 
         0.02748    0.00586    0.00409   -0.00710 
AFIX  43 
H19A  2    0.179798    0.088881    0.968742    21.00000   -1.20000 
AFIX   0 
C20   1    0.225061    0.011274    0.838694    21.00000    0.03590    0.02529 = 
         0.03384    0.00580    0.00471   -0.00371 
AFIX  43 
H20A  2    0.213976   -0.022590    0.913708    21.00000   -1.20000 
AFIX   0 
C21   1    0.261299    0.005656    0.686704    21.00000    0.04906    0.01783 = 
         0.03712    0.00333    0.01469    0.00044 
AFIX  43 
H21A  2    0.278063   -0.033217    0.641912    21.00000   -1.20000 
AFIX   0 
S1    7    0.273491    0.075800    0.584894    21.00000    0.05681    0.02005 = 
         0.03705   -0.00082    0.02155    0.00555 
PART   5 
SAME C18 > S1 
C18'  1    0.228283    0.115835    0.745908   -21.00000    0.02839    0.02248 = 
         0.02454   -0.00296    0.00203   -0.00044 
C19'  1    0.271861    0.087329    0.626903   -21.00000    0.05681    0.02005 = 
         0.03705   -0.00082    0.02155    0.00555 
AFIX  43 
H19B  2    0.290742    0.107755    0.527834   -21.00000   -1.20000 
AFIX   0 
C20'  1    0.285872    0.021508    0.670750   -21.00000    0.04906    0.01783 = 
         0.03712    0.00333    0.01469    0.00044 
AFIX  43 
H20B  2    0.315209   -0.006770    0.603941   -21.00000   -1.20000 
AFIX   0 
C21'  1    0.252065    0.005523    0.818072   -21.00000    0.03590    0.02529 = 
         0.03384    0.00580    0.00471   -0.00371 
AFIX  43 
H21B  2    0.255020   -0.035711    0.866634   -21.00000   -1.20000 
AFIX   0 
S1'   7    0.203618    0.066214    0.908718   -21.00000    0.03385    0.02297 = 
         0.02748    0.00586    0.00409   -0.00710 
PART   0 
P1    6    0.332295    0.599637    0.784708    11.00000    0.03360    0.03890 = 
         0.03159   -0.00080    0.00797   -0.00105 
F1    5    0.292986    0.529881    0.762805    11.00000    0.08555    0.03472 = 
         0.04181   -0.00277    0.00319    0.00201 
F2    5    0.369405    0.669419    0.807004    11.00000    0.05050    0.05077 = 
         0.07490    0.00178    0.01189   -0.02595 
F3    5    0.265517    0.618374    0.592682    11.00000    0.05960    0.04016 = 
         0.03738   -0.00029   -0.00148    0.00881 
F4    5    0.253731    0.618297    0.890096    11.00000    0.05124    0.04149 = 
         0.05539   -0.00195    0.03046   -0.00248 
F5    5    0.396656    0.580419    0.976966    11.00000    0.05319    0.07401 = 
         0.04397    0.00950   -0.00740   -0.00064 
F6    5    0.408517    0.580300    0.678785    11.00000    0.07262    0.10010 = 
         0.07026    0.03154    0.04529    0.04485 
  
HKLF 4 
  
REM  eisrs03 in P2(1)/c 
REM R1 =  0.0523 for    2636 Fo > 4sig(Fo)  and  0.0957 for all    4105 data 
REM    307 parameters refined using     13 restraints 
  
END 
  
WGHT      0.0525      1.6934 
  
REM Instructions for potential hydrogen bonds 
EQIV $1 -x+1, y-1/2, -z+3/2 
HTAB C2 F2_$1 
EQIV $2 x, -y+1/2, z-1/2 
HTAB C4 S1'_$2 
EQIV $3 -x+1, -y+1, -z+1 
HTAB C14 F6_$3 
EQIV $4 x, -y+1/2, z+1/2 
HTAB C20 F1_$4 
HTAB C20 F3_$4 
HTAB C21 F4_$2 
HTAB C21 F5_$2 
HTAB C20' F1_$2 
HTAB C20' F5_$2 
HTAB C21' F3_$4 
  
REM Highest difference peak  0.281,  deepest hole -0.292,  1-sigma level  0.059 
Q1    1   0.4241  0.6224  0.7932  11.00000  0.05    0.28 
Q2    1   0.4207  0.6337  0.7098  11.00000  0.05    0.26 
Q3    1   0.3327  0.6351  0.9197  11.00000  0.05    0.25 
Q4    1   0.0018  0.2884  0.7700  11.00000  0.05    0.25 
Q5    1   0.3298  0.5958  0.5791  11.00000  0.05    0.24 
Q6    1   0.3463  0.6127  1.0036  11.00000  0.05    0.24 
Q7    1   0.3173  0.6521  0.6361  11.00000  0.05    0.23 
Q8    1   0.2205  0.1512  0.7428  11.00000  0.05    0.23 
Q9    1   0.2773  0.2580  0.7036  11.00000  0.05    0.23 
Q10   1   0.0648  0.1277  0.7203  11.00000  0.05    0.23 
Q11   1   0.4391  0.6113  0.8964  11.00000  0.05    0.23 
Q12   1   0.1760  0.1905  0.7551  11.00000  0.05    0.23 
Q13   1   0.1205  0.2415  0.7105  11.00000  0.05    0.23 
Q14   1   0.2312  0.6107  0.6901  11.00000  0.05    0.22 
Q15   1   0.2606 -0.0347  0.5701  11.00000  0.05    0.22 
Q16   1   0.1540  0.1032  0.7560  11.00000  0.05    0.22 
Q17   1   0.2814  0.0080  0.4618  11.00000  0.05    0.22 
Q18   1   0.0438  0.3519  0.9271  11.00000  0.05    0.22 
;
_shelx_res_checksum              56260
_shelx_fab_file
; 
    0    0    2    -22.41      0.00 
    0    0    4      0.11      0.00 
    0    0    6      0.64      0.00 
    0    0    8      0.71      0.00 
    0    1    1      7.51      0.00 
    0    1    2     -0.93      0.00 
    0    1    3     -5.49      0.00 
    0    1    4     -1.09      0.00 
    0    1    5      2.46      0.00 
    0    1    6      0.41      0.00 
    0    1    7     -1.70      0.00 
    0    1    8      0.15      0.00 
    0    2    0     70.70      0.00 
    0    2    1      1.69      0.00 
    0    2    2    -20.90      0.00 
    0    2    3     -3.48      0.00 
    0    2    4      0.45      0.00 
    0    2    5      0.74      0.00 
    0    2    6      0.64      0.00 
    0    2    7      0.53      0.00 
    0    2    8      0.83      0.00 
    0    3    1      3.19      0.00 
    0    3    2     -2.33      0.00 
    0    3    3     -3.39      0.00 
    0    3    4     -2.62      0.00 
    0    3    5      2.54      0.00 
    0    3    6      0.89      0.00 
    0    3    7     -1.03      0.00 
    0    3    8      0.22      0.00 
    0    4    0     46.78      0.00 
    0    4    1      2.36      0.00 
    0    4    2    -16.94      0.00 
    0    4    3     -5.45      0.00 
    0    4    4      1.35      0.00 
    0    4    5      1.46      0.00 
    0    4    6      0.66      0.00 
    0    4    7      0.69      0.00 
    0    4    8      1.05      0.00 
    0    5    1     -2.35      0.00 
    0    5    2     -2.46      0.00 
    0    5    3     -0.42      0.00 
    0    5    4     -2.78      0.00 
    0    5    5      2.56      0.00 
    0    5    6      0.77      0.00 
    0    5    7     -0.15      0.00 
    0    5    8     -0.02      0.00 
    0    6    0     22.34      0.00 
    0    6    1      2.05      0.00 
    0    6    2    -12.02      0.00 
    0    6    3     -5.41      0.00 
    0    6    4      2.44      0.00 
    0    6    5      1.86      0.00 
    0    6    6      0.67      0.00 
    0    6    7      0.46      0.00 
    0    6    8      1.10      0.00 
    0    7    1     -5.96      0.00 
    0    7    2     -1.20      0.00 
    0    7    3      1.91      0.00 
    0    7    4     -1.89      0.00 
    0    7    5      2.38      0.00 
    0    7    6      0.42      0.00 
    0    7    7      0.43      0.00 
    0    7    8     -0.26      0.00 
    0    8    0      6.78      0.00 
    0    8    1      1.56      0.00 
    0    8    2     -7.77      0.00 
    0    8    3     -3.85      0.00 
    0    8    4      3.08      0.00 
    0    8    5      1.59      0.00 
    0    8    6      0.55      0.00 
    0    8    7      0.12      0.00 
    0    8    8      0.89      0.00 
    0    9    1     -6.85      0.00 
    0    9    2      0.79      0.00 
    0    9    3      2.85      0.00 
    0    9    4     -0.80      0.00 
    0    9    5      1.99      0.00 
    0    9    6      0.35      0.00 
    0    9    7      0.49      0.00 
    0    9    8     -0.22      0.00 
    0   10    0      0.77      0.00 
    0   10    1      1.37      0.00 
    0   10    2     -5.09      0.00 
    0   10    3     -1.68      0.00 
    0   10    4      2.80      0.00 
    0   10    5      0.71      0.00 
    0   10    6      0.23      0.00 
    0   10    7     -0.15      0.00 
    0   11    1     -6.00      0.00 
    0   11    2      2.39      0.00 
    0   11    3      2.69      0.00 
    0   11    4     -0.06      0.00 
    0   11    5      1.51      0.00 
    0   11    6      0.69      0.00 
    0   11    7      0.22      0.00 
    0   12    0      0.00      0.00 
    0   12    1      1.30      0.00 
    0   12    2     -3.76      0.00 
    0   12    3      0.33      0.00 
    0   12    4      1.67      0.00 
    0   12    5     -0.24      0.00 
    0   12    6     -0.14      0.00 
    0   12    7     -0.37      0.00 
    0   13    1     -4.28      0.00 
    0   13    2      2.84      0.00 
    0   13    3      2.12      0.00 
    0   13    4      0.28      0.00 
    0   13    5      0.97      0.00 
    0   13    6      1.10      0.00 
    0   13    7     -0.09      0.00 
    0   14    0      1.01      0.00 
    0   14    1      1.08      0.00 
    0   14    2     -3.00      0.00 
    0   14    3      1.51      0.00 
    0   14    4      0.19      0.00 
    0   14    5     -0.69      0.00 
    0   14    6     -0.30      0.00 
    0   14    7     -0.50      0.00 
    0   15    1     -2.03      0.00 
    0   15    2      2.22      0.00 
    0   15    3      1.56      0.00 
    0   15    4      0.29      0.00 
    0   15    5      0.26      0.00 
    0   15    6      1.19      0.00 
    0   16    0      2.70      0.00 
    0   16    1      0.76      0.00 
    0   16    2     -2.36      0.00 
    0   16    3      1.48      0.00 
    0   16    4     -1.08      0.00 
    0   16    5     -0.57      0.00 
    0   16    6     -0.17      0.00 
    0   17    1      0.24      0.00 
    0   17    2      1.18      0.00 
    0   17    3      1.08      0.00 
    0   17    4      0.03      0.00 
    0   17    5     -0.59      0.00 
    0   17    6      0.84      0.00 
    0   18    0      4.54      0.00 
    0   18    1      0.46      0.00 
    0   18    2     -1.87      0.00 
    0   18    3      0.49      0.00 
    0   18    4     -1.78      0.00 
    0   18    5     -0.25      0.00 
    0   18    6      0.11      0.00 
    0   19    1      1.67      0.00 
    0   19    2      0.39      0.00 
    0   19    3      0.70      0.00 
    0   19    4     -0.28      0.00 
    0   19    5     -1.21      0.00 
    0   20    0      5.49      0.00 
    0   20    1      0.09      0.00 
    0   20    2     -1.63      0.00 
    0   20    3     -0.59      0.00 
    0   20    4     -1.77      0.00 
    0   20    5     -0.06      0.00 
    0   21    1      1.84      0.00 
    0   21    2      0.09      0.00 
    0   21    3      0.49      0.00 
    0   21    4     -0.35      0.00 
    0   22    0      4.82      0.00 
    0   22    1     -0.41      0.00 
    0   22    2     -1.46      0.00 
    0   22    3     -0.93      0.00 
    0   22    4     -1.18      0.00 
    0   23    1      1.15      0.00 
    0   23    2      0.19      0.00 
    0   23    3      0.40      0.00 
    0   24    0      2.94      0.00 
    0   24    1     -0.77      0.00 
    0   24    2     -1.10      0.00 
    0   25    1      0.36      0.00 
   -1    0    8     -0.85      0.00 
   -1    0    6      1.34      0.00 
   -1    0    4     -2.39      0.00 
   -1    0    2    -16.96      0.00 
    1    0    0     71.84      0.00 
    1    0    2    -22.11      0.00 
    1    0    4      1.93      0.00 
    1    0    6     -0.32      0.00 
    1    0    8      1.50      0.00 
   -1    1    8      0.38      0.00 
   -1    1    7     -1.05      0.00 
   -1    1    6      0.45      0.00 
   -1    1    5      2.10      0.00 
   -1    1    4     -1.29      0.00 
   -1    1    3     -7.80      0.00 
   -1    1    2     -0.30      0.00 
   -1    1    1     27.10      0.00 
    1    1    0      1.15      0.00 
    1    1    1    -11.97      0.00 
    1    1    2     -1.74      0.00 
    1    1    3     -1.75      0.00 
    1    1    4     -0.65      0.00 
    1    1    5      1.53      0.00 
    1    1    6      0.26      0.00 
    1    1    7     -1.60      0.00 
    1    1    8     -0.04      0.00 
   -1    2    8     -0.50      0.00 
   -1    2    7      0.41      0.00 
   -1    2    6      1.21      0.00 
   -1    2    5     -0.09      0.00 
   -1    2    4     -1.77      0.00 
   -1    2    3     -3.04      0.00 
   -1    2    2    -16.46      0.00 
   -1    2    1      0.15      0.00 
    1    2    0     62.91      0.00 
    1    2    1      1.77      0.00 
    1    2    2    -20.26      0.00 
    1    2    3     -3.62      0.00 
    1    2    4      2.02      0.00 
    1    2    5      1.47      0.00 
    1    2    6     -0.22      0.00 
    1    2    7      0.67      0.00 
    1    2    8      1.44      0.00 
   -1    3    8      0.77      0.00 
   -1    3    7     -0.56      0.00 
   -1    3    6      1.08      0.00 
   -1    3    5      2.24      0.00 
   -1    3    4     -3.19      0.00 
   -1    3    3     -5.64      0.00 
   -1    3    2     -0.79      0.00 
   -1    3    1     18.42      0.00 
    1    3    0      2.67      0.00 
    1    3    1    -11.62      0.00 
    1    3    2     -4.30      0.00 
    1    3    3     -0.25      0.00 
    1    3    4     -1.46      0.00 
    1    3    5      1.87      0.00 
    1    3    6      0.50      0.00 
    1    3    7     -1.12      0.00 
    1    3    8     -0.24      0.00 
   -1    4    8      0.30      0.00 
   -1    4    7      0.36      0.00 
   -1    4    6      0.96      0.00 
   -1    4    5      0.28      0.00 
   -1    4    4     -0.16      0.00 
   -1    4    3     -4.74      0.00 
   -1    4    2    -14.81      0.00 
   -1    4    1      0.24      0.00 
    1    4    0     41.73      0.00 
    1    4    1      2.49      0.00 
    1    4    2    -15.59      0.00 
    1    4    3     -5.63      0.00 
    1    4    4      2.32      0.00 
    1    4    5      2.45      0.00 
    1    4    6     -0.01      0.00 
    1    4    7      1.00      0.00 
    1    4    8      1.27      0.00 
   -1    5    8      0.57      0.00 
   -1    5    7      0.19      0.00 
   -1    5    6      1.16      0.00 
   -1    5    5      2.38      0.00 
   -1    5    4     -3.64      0.00 
   -1    5    3     -2.47      0.00 
   -1    5    2     -0.80      0.00 
   -1    5    1      6.71      0.00 
    1    5    0      2.66      0.00 
    1    5    1    -10.65      0.00 
    1    5    2     -4.64      0.00 
    1    5    3      1.82      0.00 
    1    5    4     -1.30      0.00 
    1    5    5      2.18      0.00 
    1    5    6      0.29      0.00 
    1    5    7     -0.57      0.00 
    1    5    8     -0.53      0.00 
   -1    6    8      1.03      0.00 
   -1    6    7     -0.15      0.00 
   -1    6    6      0.80      0.00 
   -1    6    5      0.83      0.00 
   -1    6    4      1.73      0.00 
   -1    6    3     -4.65      0.00 
   -1    6    2    -12.08      0.00 
   -1    6    1      0.32      0.00 
    1    6    0     20.05      0.00 
    1    6    1      2.27      0.00 
    1    6    2    -10.15      0.00 
    1    6    3     -5.49      0.00 
    1    6    4      2.75      0.00 
    1    6    5      2.63      0.00 
    1    6    6      0.14      0.00 
    1    6    7      0.96      0.00 
    1    6    8      0.92      0.00 
   -1    7    8      0.13      0.00 
   -1    7    7      0.77      0.00 
   -1    7    6      0.90      0.00 
   -1    7    5      2.33      0.00 
   -1    7    4     -2.85      0.00 
   -1    7    3      0.22      0.00 
   -1    7    2     -0.04      0.00 
   -1    7    1     -1.94      0.00 
    1    7    0      1.65      0.00 
    1    7    1     -9.09      0.00 
    1    7    2     -2.84      0.00 
    1    7    3      3.34      0.00 
    1    7    4     -0.52      0.00 
    1    7    5      2.12      0.00 
    1    7    6      0.03      0.00 
    1    7    7     -0.32      0.00 
    1    7    8     -0.65      0.00 
   -1    8    8      1.28      0.00 
   -1    8    7     -0.73      0.00 
   -1    8    6      0.73      0.00 
   -1    8    5      0.89      0.00 
   -1    8    4      2.93      0.00 
   -1    8    3     -3.25      0.00 
   -1    8    2     -9.00      0.00 
   -1    8    1      0.47      0.00 
    1    8    0      6.20      0.00 
    1    8    1      1.98      0.00 
    1    8    2     -5.85      0.00 
    1    8    3     -3.80      0.00 
    1    8    4      2.99      0.00 
    1    8    5      2.03      0.00 
    1    8    6      0.11      0.00 
    1    8    7      0.75      0.00 
    1    8    8      0.49      0.00 
   -1    9    8     -0.10      0.00 
   -1    9    7      0.83      0.00 
   -1    9    6      0.71      0.00 
   -1    9    5      2.00      0.00 
   -1    9    4     -1.58      0.00 
   -1    9    3      1.55      0.00 
   -1    9    2      1.28      0.00 
   -1    9    1     -5.53      0.00 
    1    9    0      0.67      0.00 
    1    9    1     -7.38      0.00 
    1    9    2     -0.13      0.00 
    1    9    3      3.79      0.00 
    1    9    4      0.13      0.00 
    1    9    5      1.70      0.00 
    1    9    6      0.14      0.00 
    1    9    7     -0.31      0.00 
   -1   10    8      0.99      0.00 
   -1   10    7     -1.02      0.00 
   -1   10    6      0.57      0.00 
   -1   10    5      0.23      0.00 
   -1   10    4      2.85      0.00 
   -1   10    3     -1.34      0.00 
   -1   10    2     -6.53      0.00 
   -1   10    1      0.63      0.00 
    1   10    0      0.77      0.00 
    1   10    1      2.00      0.00 
    1   10    2     -3.41      0.00 
    1   10    3     -1.52      0.00 
    1   10    4      2.68      0.00 
    1   10    5      0.96      0.00 
    1   10    6     -0.07      0.00 
    1   10    7      0.46      0.00 
   -1   11    7      0.40      0.00 
   -1   11    6      0.86      0.00 
   -1   11    5      1.47      0.00 
   -1   11    4     -0.45      0.00 
   -1   11    3      1.67      0.00 
   -1   11    2      2.41      0.00 
   -1   11    1     -5.56      0.00 
    1   11    0      0.17      0.00 
    1   11    1     -5.80      0.00 
    1   11    2      2.05      0.00 
    1   11    3      3.43      0.00 
    1   11    4      0.32      0.00 
    1   11    5      1.16      0.00 
    1   11    6      0.60      0.00 
    1   11    7     -0.31      0.00 
   -1   12    7     -0.97      0.00 
   -1   12    6      0.35      0.00 
   -1   12    5     -0.62      0.00 
   -1   12    4      1.65      0.00 
   -1   12    3      0.38      0.00 
   -1   12    2     -4.90      0.00 
   -1   12    1      0.70      0.00 
    1   12    0      0.05      0.00 
    1   12    1      1.95      0.00 
    1   12    2     -2.41      0.00 
    1   12    3      0.50      0.00 
    1   12    4      1.71      0.00 
    1   12    5     -0.05      0.00 
    1   12    6     -0.24      0.00 
    1   12    7      0.11      0.00 
   -1   13    7     -0.14      0.00 
   -1   13    6      1.20      0.00 
   -1   13    5      0.82      0.00 
   -1   13    4      0.25      0.00 
   -1   13    3      1.30      0.00 
   -1   13    2      2.66      0.00 
   -1   13    1     -3.96      0.00 
    1   13    0     -0.03      0.00 
    1   13    1     -4.14      0.00 
    1   13    2      2.94      0.00 
    1   13    3      2.75      0.00 
    1   13    4      0.24      0.00 
    1   13    5      0.67      0.00 
    1   13    6      0.97      0.00 
    1   13    7     -0.20      0.00 
   -1   14    7     -0.71      0.00 
   -1   14    6      0.24      0.00 
   -1   14    5     -1.03      0.00 
   -1   14    4      0.12      0.00 
   -1   14    3      1.36      0.00 
   -1   14    2     -3.64      0.00 
   -1   14    1      0.72      0.00 
    1   14    0      1.02      0.00 
    1   14    1      1.50      0.00 
    1   14    2     -2.11      0.00 
    1   14    3      1.63      0.00 
    1   14    4      0.35      0.00 
    1   14    5     -0.54      0.00 
    1   14    6     -0.28      0.00 
    1   14    7     -0.21      0.00 
   -1   15    7     -0.41      0.00 
   -1   15    6      1.36      0.00 
   -1   15    5      0.01      0.00 
   -1   15    4      0.39      0.00 
   -1   15    3      0.97      0.00 
   -1   15    2      2.04      0.00 
   -1   15    1     -1.56      0.00 
    1   15    0     -0.17      0.00 
    1   15    1     -2.26      0.00 
    1   15    2      2.61      0.00 
    1   15    3      2.00      0.00 
    1   15    4      0.14      0.00 
    1   15    5      0.16      0.00 
    1   15    6      0.92      0.00 
   -1   16    6      0.30      0.00 
   -1   16    5     -0.87      0.00 
   -1   16    4     -0.99      0.00 
   -1   16    3      1.32      0.00 
   -1   16    2     -2.40      0.00 
   -1   16    1      0.79      0.00 
    1   16    0      2.66      0.00 
    1   16    1      0.84      0.00 
    1   16    2     -2.01      0.00 
    1   16    3      1.49      0.00 
    1   16    4     -0.98      0.00 
    1   16    5     -0.47      0.00 
    1   16    6     -0.16      0.00 
   -1   17    6      1.08      0.00 
   -1   17    5     -0.97      0.00 
   -1   17    4      0.06      0.00 
   -1   17    3      0.78      0.00 
   -1   17    2      1.09      0.00 
   -1   17    1      1.03      0.00 
    1   17    0     -0.24      0.00 
    1   17    1     -0.58      0.00 
    1   17    2      1.62      0.00 
    1   17    3      1.25      0.00 
    1   17    4      0.03      0.00 
    1   17    5     -0.36      0.00 
    1   17    6      0.52      0.00 
   -1   18    6      0.39      0.00 
   -1   18    5     -0.51      0.00 
   -1   18    4     -1.37      0.00 
   -1   18    3      0.47      0.00 
   -1   18    2     -1.42      0.00 
   -1   18    1      0.78      0.00 
    1   18    0      4.37      0.00 
    1   18    1      0.29      0.00 
    1   18    2     -1.96      0.00 
    1   18    3      0.34      0.00 
    1   18    4     -1.84      0.00 
    1   18    5     -0.18      0.00 
   -1   19    5     -1.71      0.00 
   -1   19    4     -0.32      0.00 
   -1   19    3      0.69      0.00 
   -1   19    2      0.39      0.00 
   -1   19    1      2.86      0.00 
    1   19    0     -0.23      0.00 
    1   19    1      0.31      0.00 
    1   19    2      0.62      0.00 
    1   19    3      0.63      0.00 
    1   19    4     -0.16      0.00 
    1   19    5     -0.69      0.00 
   -1   20    5     -0.24      0.00 
   -1   20    4     -1.08      0.00 
   -1   20    3     -0.44      0.00 
   -1   20    2     -1.00      0.00 
   -1   20    1      0.47      0.00 
    1   20    0      5.17      0.00 
    1   20    1     -0.15      0.00 
    1   20    2     -1.86      0.00 
    1   20    3     -0.87      0.00 
    1   20    4     -1.97      0.00 
    1   20    5      0.02      0.00 
   -1   21    4     -0.31      0.00 
   -1   21    3      0.63      0.00 
   -1   21    2      0.12      0.00 
   -1   21    1      3.20      0.00 
    1   21    0     -0.19      0.00 
    1   21    1      0.34      0.00 
    1   21    2      0.08      0.00 
    1   21    3      0.28      0.00 
    1   21    4     -0.30      0.00 
   -1   22    4     -0.48      0.00 
   -1   22    3     -0.73      0.00 
   -1   22    2     -1.01      0.00 
   -1   22    1     -0.13      0.00 
    1   22    0      4.44      0.00 
    1   22    1     -0.58      0.00 
    1   22    2     -1.57      0.00 
    1   22    3     -1.24      0.00 
    1   22    4     -1.43      0.00 
   -1   23    3      0.54      0.00 
   -1   23    2      0.16      0.00 
   -1   23    1      2.28      0.00 
    1   23    0     -0.15      0.00 
    1   23    1      0.01      0.00 
    1   23    2      0.08      0.00 
    1   23    3      0.21      0.00 
   -1   24    2     -0.96      0.00 
   -1   24    1     -0.61      0.00 
    1   24    0      2.62      0.00 
    1   24    1     -0.87      0.00 
    1   24    2     -1.04      0.00 
   -1   25    1      1.01      0.00 
    1   25    0     -0.06      0.00 
    1   25    1     -0.18      0.00 
   -2    0    8     -2.38      0.00 
   -2    0    6      1.42      0.00 
   -2    0    4     -4.36      0.00 
   -2    0    2     -7.55      0.00 
    2    0    0     49.25      0.00 
    2    0    2    -16.97      0.00 
    2    0    4      2.26      0.00 
    2    0    6     -1.03      0.00 
    2    0    8      1.33      0.00 
   -2    1    8      0.53      0.00 
   -2    1    7      0.11      0.00 
   -2    1    6      0.37      0.00 
   -2    1    5      0.67      0.00 
   -2    1    4     -1.29      0.00 
   -2    1    3     -7.67      0.00 
   -2    1    2     -0.08      0.00 
   -2    1    1     39.12      0.00 
    2    1    0      1.66      0.00 
    2    1    1    -24.22      0.00 
    2    1    2     -2.39      0.00 
    2    1    3      1.78      0.00 
    2    1    4     -0.05      0.00 
    2    1    5     -0.25      0.00 
    2    1    6      0.08      0.00 
    2    1    7     -0.94      0.00 
    2    1    8     -0.13      0.00 
   -2    2    8     -1.89      0.00 
   -2    2    7      0.35      0.00 
   -2    2    6      1.24      0.00 
   -2    2    5     -0.71      0.00 
   -2    2    4     -3.61      0.00 
   -2    2    3     -2.48      0.00 
   -2    2    2     -8.34      0.00 
   -2    2    1     -1.97      0.00 
    2    2    0     43.22      0.00 
    2    2    1      0.33      0.00 
    2    2    2    -15.41      0.00 
    2    2    3     -3.33      0.00 
    2    2    4      2.30      0.00 
    2    2    5      1.78      0.00 
    2    2    6     -0.96      0.00 
    2    2    7      0.78      0.00 
    2    2    8      1.23      0.00 
   -2    3    8      1.11      0.00 
   -2    3    7      0.12      0.00 
   -2    3    6      1.00      0.00 
   -2    3    5      1.11      0.00 
   -2    3    4     -3.26      0.00 
   -2    3    3     -6.13      0.00 
   -2    3    2     -0.22      0.00 
   -2    3    1     28.26      0.00 
    2    3    0      3.91      0.00 
    2    3    1    -20.77      0.00 
    2    3    2     -5.91      0.00 
    2    3    3      2.60      0.00 
    2    3    4      0.05      0.00 
    2    3    5      0.52      0.00 
    2    3    6      0.09      0.00 
    2    3    7     -0.81      0.00 
    2    3    8     -0.40      0.00 
   -2    4    8     -0.69      0.00 
   -2    4    7      0.20      0.00 
   -2    4    6      0.89      0.00 
   -2    4    5     -0.65      0.00 
   -2    4    4     -1.62      0.00 
   -2    4    3     -3.74      0.00 
   -2    4    2     -9.77      0.00 
   -2    4    1     -2.66      0.00 
    2    4    0     28.88      0.00 
    2    4    1      0.48      0.00 
    2    4    2    -11.51      0.00 
    2    4    3     -5.10      0.00 
    2    4    4      2.41      0.00 
    2    4    5      2.79      0.00 
    2    4    6     -0.83      0.00 
    2    4    7      1.18      0.00 
    2    4    8      1.01      0.00 
   -2    5    8      0.85      0.00 
   -2    5    7      0.30      0.00 
   -2    5    6      1.37      0.00 
   -2    5    5      1.70      0.00 
   -2    5    4     -3.88      0.00 
   -2    5    3     -3.71      0.00 
   -2    5    2     -0.17      0.00 
   -2    5    1     13.33      0.00 
    2    5    0      3.95      0.00 
    2    5    1    -15.53      0.00 
    2    5    2     -6.52      0.00 
    2    5    3      3.66      0.00 
    2    5    4      0.49      0.00 
    2    5    5      1.34      0.00 
    2    5    6     -0.12      0.00 
    2    5    7     -0.81      0.00 
    2    5    8     -0.67      0.00 
   -2    6    8      0.60      0.00 
   -2    6    7     -0.48      0.00 
   -2    6    6      0.73      0.00 
   -2    6    5     -0.05      0.00 
   -2    6    4      0.81      0.00 
   -2    6    3     -3.43      0.00 
   -2    6    2    -10.19      0.00 
   -2    6    1     -1.94      0.00 
    2    6    0     14.14      0.00 
    2    6    1      0.71      0.00 
    2    6    2     -7.05      0.00 
    2    6    3     -4.84      0.00 
    2    6    4      2.61      0.00 
    2    6    5      2.74      0.00 
    2    6    6     -0.73      0.00 
    2    6    7      1.15      0.00 
    2    6    8      0.65      0.00 
   -2    7    8      0.17      0.00 
   -2    7    7      0.58      0.00 
   -2    7    6      1.38      0.00 
   -2    7    5      1.98      0.00 
   -2    7    4     -3.24      0.00 
   -2    7    3     -1.42      0.00 
   -2    7    2      0.32      0.00 
   -2    7    1      1.81      0.00 
    2    7    0      2.56      0.00 
    2    7    1    -10.63      0.00 
    2    7    2     -4.44      0.00 
    2    7    3      4.32      0.00 
    2    7    4      0.92      0.00 
    2    7    5      1.56      0.00 
    2    7    6     -0.23      0.00 
    2    7    7     -1.00      0.00 
   -2    8    8      1.34      0.00 
   -2    8    7     -1.26      0.00 
   -2    8    6      0.81      0.00 
   -2    8    5      0.24      0.00 
   -2    8    4      2.56      0.00 
   -2    8    3     -2.08      0.00 
   -2    8    2     -9.13      0.00 
   -2    8    1     -0.74      0.00 
    2    8    0      4.58      0.00 
    2    8    1      1.40      0.00 
    2    8    2     -3.58      0.00 
    2    8    3     -3.17      0.00 
    2    8    4      2.71      0.00 
    2    8    5      1.92      0.00 
    2    8    6     -0.61      0.00 
    2    8    7      0.88      0.00 
   -2    9    8     -0.32      0.00 
   -2    9    7      0.62      0.00 
   -2    9    6      1.18      0.00 
   -2    9    5      1.71      0.00 
   -2    9    4     -1.96      0.00 
   -2    9    3     -0.02      0.00 
   -2    9    2      1.21      0.00 
   -2    9    1     -3.56      0.00 
    2    9    0      1.16      0.00 
    2    9    1     -7.24      0.00 
    2    9    2     -1.25      0.00 
    2    9    3      4.31      0.00 
    2    9    4      0.91      0.00 
    2    9    5      1.18      0.00 
    2    9    6      0.04      0.00 
    2    9    7     -1.12      0.00 
   -2   10    8      1.26      0.00 
   -2   10    7     -1.61      0.00 
   -2   10    6      0.93      0.00 
   -2   10    5     -0.20      0.00 
   -2   10    4      2.85      0.00 
   -2   10    3     -0.49      0.00 
   -2   10    2     -7.37      0.00 
   -2   10    1      0.04      0.00 
    2   10    0      0.69      0.00 
    2   10    1      2.25      0.00 
    2   10    2     -1.65      0.00 
    2   10    3     -1.10      0.00 
    2   10    4      2.45      0.00 
    2   10    5      0.80      0.00 
    2   10    6     -0.37      0.00 
    2   10    7      0.56      0.00 
   -2   11    7      0.25      0.00 
   -2   11    6      1.08      0.00 
   -2   11    5      1.01      0.00 
   -2   11    4     -0.62      0.00 
   -2   11    3      0.41      0.00 
   -2   11    2      2.03      0.00 
   -2   11    1     -4.42      0.00 
    2   11    0      0.37      0.00 
    2   11    1     -5.16      0.00 
    2   11    2      1.49      0.00 
    2   11    3      3.79      0.00 
    2   11    4      0.45      0.00 
    2   11    5      0.66      0.00 
    2   11    6      0.54      0.00 
    2   11    7     -0.90      0.00 
   -2   12    7     -1.33      0.00 
   -2   12    6      0.98      0.00 
   -2   12    5     -0.91      0.00 
   -2   12    4      1.79      0.00 
   -2   12    3      0.78      0.00 
   -2   12    2     -5.66      0.00 
   -2   12    1      0.29      0.00 
    2   12    0      0.14      0.00 
    2   12    1      2.56      0.00 
    2   12    2     -0.99      0.00 
    2   12    3      0.59      0.00 
    2   12    4      1.67      0.00 
    2   12    5     -0.14      0.00 
    2   12    6     -0.05      0.00 
    2   12    7      0.24      0.00 
   -2   13    7     -0.25      0.00 
   -2   13    6      1.19      0.00 
   -2   13    5      0.15      0.00 
   -2   13    4      0.31      0.00 
   -2   13    3      0.36      0.00 
   -2   13    2      2.29      0.00 
   -2   13    1     -3.14      0.00 
    2   13    0     -0.06      0.00 
    2   13    1     -3.64      0.00 
    2   13    2      2.96      0.00 
    2   13    3      3.03      0.00 
    2   13    4     -0.01      0.00 
    2   13    5      0.31      0.00 
    2   13    6      0.86      0.00 
    2   13    7     -0.43      0.00 
   -2   14    7     -0.68      0.00 
   -2   14    6      0.98      0.00 
   -2   14    5     -1.27      0.00 
   -2   14    4      0.28      0.00 
   -2   14    3      1.42      0.00 
   -2   14    2     -3.94      0.00 
   -2   14    1      0.49      0.00 
    2   14    0      1.00      0.00 
    2   14    1      2.09      0.00 
    2   14    2     -1.05      0.00 
    2   14    3      1.38      0.00 
    2   14    4      0.49      0.00 
    2   14    5     -0.61      0.00 
    2   14    6      0.18      0.00 
   -2   15    7     -0.47      0.00 
   -2   15    6      1.27      0.00 
   -2   15    5     -0.73      0.00 
   -2   15    4      0.53      0.00 
   -2   15    3      0.32      0.00 
   -2   15    2      1.92      0.00 
   -2   15    1     -0.86      0.00 
    2   15    0     -0.38      0.00 
    2   15    1     -2.33      0.00 
    2   15    2      3.07      0.00 
    2   15    3      2.16      0.00 
    2   15    4     -0.12      0.00 
    2   15    5      0.07      0.00 
    2   15    6      0.76      0.00 
   -2   16    6      0.91      0.00 
   -2   16    5     -1.15      0.00 
   -2   16    4     -0.70      0.00 
   -2   16    3      1.28      0.00 
   -2   16    2     -2.13      0.00 
   -2   16    1      0.86      0.00 
    2   16    0      2.46      0.00 
    2   16    1      1.26      0.00 
    2   16    2     -1.39      0.00 
    2   16    3      1.06      0.00 
    2   16    4     -0.74      0.00 
    2   16    5     -0.57      0.00 
    2   16    6      0.21      0.00 
   -2   17    6      1.03      0.00 
   -2   17    5     -1.56      0.00 
   -2   17    4      0.13      0.00 
   -2   17    3      0.42      0.00 
   -2   17    2      1.26      0.00 
   -2   17    1      1.76      0.00 
    2   17    0     -0.55      0.00 
    2   17    1     -1.40      0.00 
    2   17    2      2.14      0.00 
    2   17    3      1.28      0.00 
    2   17    4      0.02      0.00 
    2   17    5     -0.14      0.00 
    2   17    6      0.34      0.00 
   -2   18    6      0.67      0.00 
   -2   18    5     -0.83      0.00 
   -2   18    4     -0.76      0.00 
   -2   18    3      0.53      0.00 
   -2   18    2     -0.67      0.00 
   -2   18    1      1.11      0.00 
    2   18    0      3.84      0.00 
    2   18    1      0.52      0.00 
    2   18    2     -1.68      0.00 
    2   18    3     -0.07      0.00 
    2   18    4     -1.55      0.00 
    2   18    5     -0.25      0.00 
   -2   19    5     -2.06      0.00 
   -2   19    4     -0.32      0.00 
   -2   19    3      0.56      0.00 
   -2   19    2      0.66      0.00 
   -2   19    1      3.69      0.00 
    2   19    0     -0.55      0.00 
    2   19    1     -1.03      0.00 
    2   19    2      0.82      0.00 
    2   19    3      0.54      0.00 
    2   19    4      0.06      0.00 
    2   19    5     -0.23      0.00 
   -2   20    5     -0.48      0.00 
   -2   20    4     -0.18      0.00 
   -2   20    3     -0.28      0.00 
   -2   20    2     -0.09      0.00 
   -2   20    1      0.86      0.00 
    2   20    0      4.28      0.00 
    2   20    1     -0.04      0.00 
    2   20    2     -1.69      0.00 
    2   20    3     -1.17      0.00 
    2   20    4     -1.68      0.00 
    2   20    5      0.03      0.00 
   -2   21    5     -1.86      0.00 
   -2   21    4     -0.29      0.00 
   -2   21    3      0.62      0.00 
   -2   21    2      0.27      0.00 
   -2   21    1      4.08      0.00 
    2   21    0     -0.51      0.00 
    2   21    1     -0.98      0.00 
    2   21    2     -0.10      0.00 
    2   21    3      0.14      0.00 
    2   21    4     -0.06      0.00 
   -2   22    4      0.43      0.00 
   -2   22    3     -0.61      0.00 
   -2   22    2     -0.29      0.00 
   -2   22    1      0.19      0.00 
    2   22    0      3.43      0.00 
    2   22    1     -0.50      0.00 
    2   22    2     -1.37      0.00 
    2   22    3     -1.44      0.00 
    2   22    4     -1.22      0.00 
   -2   23    3      0.54      0.00 
   -2   23    2      0.11      0.00 
   -2   23    1      3.04      0.00 
    2   23    0     -0.47      0.00 
    2   23    1     -0.84      0.00 
    2   23    2     -0.23      0.00 
    2   23    3      0.04      0.00 
   -2   24    2     -0.62      0.00 
   -2   24    1     -0.41      0.00 
    2   24    0      1.83      0.00 
    2   24    1     -0.77      0.00 
    2   24    2     -0.85      0.00 
   -2   25    1      1.49      0.00 
    2   25    0     -0.30      0.00 
    2   25    1     -0.47      0.00 
   -3    0    8     -2.98      0.00 
   -3    0    6      0.93      0.00 
   -3    0    4     -4.92      0.00 
   -3    0    2      2.22      0.00 
    3    0    0     23.08      0.00 
    3    0    2     -9.67      0.00 
    3    0    4      1.17      0.00 
    3    0    6     -1.14      0.00 
    3    0    8      0.66      0.00 
   -3    1    8      0.52      0.00 
   -3    1    7      1.17      0.00 
   -3    1    6      0.20      0.00 
   -3    1    5     -1.10      0.00 
   -3    1    4     -1.21      0.00 
   -3    1    3     -5.19      0.00 
   -3    1    2     -0.25      0.00 
   -3    1    1     39.84      0.00 
    3    1    0      1.32      0.00 
    3    1    1    -26.60      0.00 
    3    1    2     -2.63      0.00 
    3    1    3      3.79      0.00 
    3    1    4      0.51      0.00 
    3    1    5     -2.00      0.00 
    3    1    6     -0.01      0.00 
    3    1    7     -0.11      0.00 
    3    1    8     -0.11      0.00 
   -3    2    8     -2.57      0.00 
   -3    2    7      0.35      0.00 
   -3    2    6      0.82      0.00 
   -3    2    5     -1.03      0.00 
   -3    2    4     -4.26      0.00 
   -3    2    3     -1.93      0.00 
   -3    2    2      0.39      0.00 
   -3    2    1     -3.56      0.00 
    3    2    0     20.32      0.00 
    3    2    1     -1.85      0.00 
    3    2    2     -8.68      0.00 
    3    2    3     -2.61      0.00 
    3    2    4      1.33      0.00 
    3    2    5      1.55      0.00 
    3    2    6     -1.22      0.00 
    3    2    7      0.82      0.00 
    3    2    8      0.61      0.00 
   -3    3    8      1.06      0.00 
   -3    3    7      0.66      0.00 
   -3    3    6      0.72      0.00 
   -3    3    5     -0.36      0.00 
   -3    3    4     -3.08      0.00 
   -3    3    3     -4.72      0.00 
   -3    3    2     -0.60      0.00 
   -3    3    1     29.66      0.00 
    3    3    0      3.12      0.00 
    3    3    1    -22.36      0.00 
    3    3    2     -6.55      0.00 
    3    3    3      4.17      0.00 
    3    3    4      1.45      0.00 
    3    3    5     -0.94      0.00 
    3    3    6     -0.09      0.00 
    3    3    7     -0.27      0.00 
    3    3    8     -0.32      0.00 
   -3    4    8     -1.47      0.00 
   -3    4    7      0.33      0.00 
   -3    4    6      0.63      0.00 
   -3    4    5     -1.17      0.00 
   -3    4    4     -2.44      0.00 
   -3    4    3     -2.70      0.00 
   -3    4    2     -3.59      0.00 
   -3    4    1     -4.82      0.00 
    3    4    0     13.75      0.00 
    3    4    1     -2.69      0.00 
    3    4    2     -6.21      0.00 
    3    4    3     -3.92      0.00 
    3    4    4      1.71      0.00 
    3    4    5      2.32      0.00 
    3    4    6     -1.44      0.00 
    3    4    7      1.18      0.00 
    3    4    8      0.55      0.00 
   -3    5    8      0.68      0.00 
   -3    5    7      0.21      0.00 
   -3    5    6      1.34      0.00 
   -3    5    5      0.69      0.00 
   -3    5    4     -3.69      0.00 
   -3    5    3     -3.77      0.00 
   -3    5    2     -0.59      0.00 
   -3    5    1     15.49      0.00 
    3    5    0      3.22      0.00 
    3    5    1    -16.10      0.00 
    3    5    2     -7.41      0.00 
    3    5    3      4.60      0.00 
    3    5    4      2.05      0.00 
    3    5    5      0.24      0.00 
    3    5    6     -0.26      0.00 
    3    5    7     -0.67      0.00 
   -3    6    8     -0.10      0.00 
   -3    6    7     -0.21      0.00 
   -3    6    6      0.65      0.00 
   -3    6    5     -0.57      0.00 
   -3    6    4     -0.02      0.00 
   -3    6    3     -2.06      0.00 
   -3    6    2     -6.88      0.00 
   -3    6    1     -3.60      0.00 
    3    6    0      6.89      0.00 
    3    6    1     -1.98      0.00 
    3    6    2     -3.38      0.00 
    3    6    3     -3.56      0.00 
    3    6    4      2.12      0.00 
    3    6    5      2.10      0.00 
    3    6    6     -1.58      0.00 
    3    6    7      1.02      0.00 
   -3    7    8     -0.21      0.00 
   -3    7    7      0.13      0.00 
   -3    7    6      1.68      0.00 
   -3    7    5      1.39      0.00 
   -3    7    4     -3.11      0.00 
   -3    7    3     -2.58      0.00 
   -3    7    2     -0.16      0.00 
   -3    7    1      4.18      0.00 
    3    7    0      2.26      0.00 
    3    7    1    -10.40      0.00 
    3    7    2     -5.47      0.00 
    3    7    3      4.69      0.00 
    3    7    4      2.03      0.00 
    3    7    5      0.71      0.00 
    3    7    6     -0.30      0.00 
    3    7    7     -1.19      0.00 
   -3    8    8      0.89      0.00 
   -3    8    7     -1.00      0.00 
   -3    8    6      0.88      0.00 
   -3    8    5     -0.15      0.00 
   -3    8    4      2.01      0.00 
   -3    8    3     -0.69      0.00 
   -3    8    2     -7.96      0.00 
   -3    8    1     -1.60      0.00 
    3    8    0      2.30      0.00 
    3    8    1     -0.07      0.00 
    3    8    2     -1.15      0.00 
    3    8    3     -2.16      0.00 
    3    8    4      2.33      0.00 
    3    8    5      1.25      0.00 
    3    8    6     -1.36      0.00 
    3    8    7      0.61      0.00 
   -3    9    8     -0.83      0.00 
   -3    9    7      0.18      0.00 
   -3    9    6      1.56      0.00 
   -3    9    5      1.28      0.00 
   -3    9    4     -1.86      0.00 
   -3    9    3     -1.58      0.00 
   -3    9    2      0.56      0.00 
   -3    9    1     -1.52      0.00 
    3    9    0      1.28      0.00 
    3    9    1     -6.51      0.00 
    3    9    2     -2.26      0.00 
    3    9    3      4.34      0.00 
    3    9    4      1.31      0.00 
    3    9    5      0.50      0.00 
    3    9    6     -0.03      0.00 
    3    9    7     -1.46      0.00 
   -3   10    8      1.09      0.00 
   -3   10    7     -1.46      0.00 
   -3   10    6      1.13      0.00 
   -3   10    5     -0.38      0.00 
   -3   10    4      2.73      0.00 
   -3   10    3      0.59      0.00 
   -3   10    2     -7.29      0.00 
   -3   10    1     -0.32      0.00 
    3   10    0      0.33      0.00 
    3   10    1      1.95      0.00 
    3   10    2      0.07      0.00 
    3   10    3     -0.67      0.00 
    3   10    4      2.18      0.00 
    3   10    5      0.30      0.00 
    3   10    6     -0.68      0.00 
    3   10    7      0.25      0.00 
   -3   11    7      0.01      0.00 
   -3   11    6      1.25      0.00 
   -3   11    5      0.44      0.00 
   -3   11    4     -0.50      0.00 
   -3   11    3     -0.99      0.00 
   -3   11    2      1.25      0.00 
   -3   11    1     -2.89      0.00 
    3   11    0      0.58      0.00 
    3   11    1     -4.22      0.00 
    3   11    2      0.74      0.00 
    3   11    3      3.66      0.00 
    3   11    4      0.27      0.00 
    3   11    5      0.20      0.00 
    3   11    6      0.44      0.00 
    3   11    7     -1.21      0.00 
   -3   12    7     -1.22      0.00 
   -3   12    6      1.29      0.00 
   -3   12    5     -0.90      0.00 
   -3   12    4      2.02      0.00 
   -3   12    3      1.39      0.00 
   -3   12    2     -5.80      0.00 
   -3   12    1      0.14      0.00 
    3   12    0      0.11      0.00 
    3   12    1      3.03      0.00 
    3   12    2      0.35      0.00 
    3   12    3      0.32      0.00 
    3   12    4      1.60      0.00 
    3   12    5     -0.40      0.00 
    3   12    6      0.15      0.00 
    3   12    7      0.06      0.00 
   -3   13    7     -0.27      0.00 
   -3   13    6      1.07      0.00 
   -3   13    5     -0.67      0.00 
   -3   13    4      0.47      0.00 
   -3   13    3     -0.65      0.00 
   -3   13    2      1.65      0.00 
   -3   13    1     -2.01      0.00 
    3   13    0      0.00      0.00 
    3   13    1     -2.89      0.00 
    3   13    2      2.69      0.00 
    3   13    3      2.84      0.00 
    3   13    4     -0.43      0.00 
    3   13    5      0.14      0.00 
    3   13    6      0.78      0.00 
   -3   14    7     -0.45      0.00 
   -3   14    6      1.32      0.00 
   -3   14    5     -1.21      0.00 
   -3   14    4      0.66      0.00 
   -3   14    3      1.69      0.00 
   -3   14    2     -3.83      0.00 
   -3   14    1      0.49      0.00 
    3   14    0      0.85      0.00 
    3   14    1      2.93      0.00 
    3   14    2     -0.03      0.00 
    3   14    3      0.60      0.00 
    3   14    4      0.65      0.00 
    3   14    5     -0.71      0.00 
    3   14    6      0.63      0.00 
   -3   15    7     -0.35      0.00 
   -3   15    6      0.98      0.00 
   -3   15    5     -1.60      0.00 
   -3   15    4      0.70      0.00 
   -3   15    3     -0.29      0.00 
   -3   15    2      1.69      0.00 
   -3   15    1     -0.03      0.00 
    3   15    0     -0.49      0.00 
    3   15    1     -2.23      0.00 
    3   15    2      3.20      0.00 
    3   15    3      1.97      0.00 
    3   15    4     -0.42      0.00 
    3   15    5      0.18      0.00 
    3   15    6      0.75      0.00 
   -3   16    6      1.12      0.00 
   -3   16    5     -1.20      0.00 
   -3   16    4     -0.27      0.00 
   -3   16    3      1.50      0.00 
   -3   16    2     -1.57      0.00 
   -3   16    1      1.05      0.00 
    3   16    0      2.00      0.00 
    3   16    1      2.14      0.00 
    3   16    2     -0.66      0.00 
    3   16    3      0.20      0.00 
    3   16    4     -0.37      0.00 
    3   16    5     -0.62      0.00 
    3   16    6      0.56      0.00 
   -3   17    6      0.74      0.00 
   -3   17    5     -2.13      0.00 
   -3   17    4      0.28      0.00 
   -3   17    3      0.12      0.00 
   -3   17    2      1.46      0.00 
   -3   17    1      2.33      0.00 
    3   17    0     -0.73      0.00 
    3   17    1     -2.07      0.00 
    3   17    2      2.31      0.00 
    3   17    3      1.14      0.00 
    3   17    4      0.03      0.00 
    3   17    5      0.15      0.00 
   -3   18    6      0.67      0.00 
   -3   18    5     -1.02      0.00 
   -3   18    4     -0.22      0.00 
   -3   18    3      0.87      0.00 
   -3   18    2      0.26      0.00 
   -3   18    1      1.42      0.00 
    3   18    0      2.92      0.00 
    3   18    1      1.22      0.00 
    3   18    2     -1.12      0.00 
    3   18    3     -0.60      0.00 
    3   18    4     -1.03      0.00 
    3   18    5     -0.30      0.00 
   -3   19    5     -2.12      0.00 
   -3   19    4     -0.22      0.00 
   -3   19    3      0.43      0.00 
   -3   19    2      1.04      0.00 
   -3   19    1      4.03      0.00 
    3   19    0     -0.79      0.00 
    3   19    1     -2.10      0.00 
    3   19    2      0.71      0.00 
    3   19    3      0.49      0.00 
    3   19    4      0.36      0.00 
    3   19    5      0.08      0.00 
   -3   20    5     -0.70      0.00 
   -3   20    4      0.52      0.00 
   -3   20    3      0.08      0.00 
   -3   20    2      0.94      0.00 
   -3   20    1      1.22      0.00 
    3   20    0      3.00      0.00 
    3   20    1      0.43      0.00 
    3   20    2     -1.19      0.00 
    3   20    3     -1.24      0.00 
    3   20    4     -1.11      0.00 
   -3   21    4     -0.27      0.00 
   -3   21    3      0.51      0.00 
   -3   21    2      0.51      0.00 
   -3   21    1      4.27      0.00 
    3   21    0     -0.87      0.00 
    3   21    1     -1.91      0.00 
    3   21    2     -0.51      0.00 
    3   21    3      0.10      0.00 
    3   21    4      0.30      0.00 
   -3   22    4      1.13      0.00 
   -3   22    3     -0.42      0.00 
   -3   22    2      0.53      0.00 
   -3   22    1      0.55      0.00 
    3   22    0      2.17      0.00 
    3   22    1     -0.14      0.00 
    3   22    2     -0.95      0.00 
    3   22    3     -1.27      0.00 
   -3   23    3      0.41      0.00 
   -3   23    2      0.07      0.00 
   -3   23    1      3.17      0.00 
    3   23    0     -0.89      0.00 
    3   23    1     -1.33      0.00 
    3   23    2     -0.68      0.00 
    3   23    3     -0.03      0.00 
   -3   24    2     -0.17      0.00 
   -3   24    1     -0.10      0.00 
    3   24    0      0.94      0.00 
    3   24    1     -0.41      0.00 
    3   24    2     -0.60      0.00 
   -3   25    1      1.59      0.00 
    3   25    0     -0.65      0.00 
   -4    0    8     -2.41      0.00 
   -4    0    6      0.28      0.00 
   -4    0    4     -3.94      0.00 
   -4    0    2      8.96      0.00 
    4    0    0      2.86      0.00 
    4    0    2     -2.92      0.00 
    4    0    4     -0.59      0.00 
    4    0    6     -0.64      0.00 
   -4    1    8      0.38      0.00 
   -4    1    7      1.57      0.00 
   -4    1    6      0.02      0.00 
   -4    1    5     -2.47      0.00 
   -4    1    4     -1.13      0.00 
   -4    1    3     -1.48      0.00 
   -4    1    2     -0.60      0.00 
   -4    1    1     31.25      0.00 
    4    1    0      0.34      0.00 
    4    1    1    -21.48      0.00 
    4    1    2     -2.43      0.00 
    4    1    3      3.77      0.00 
    4    1    4      0.86      0.00 
    4    1    5     -2.92      0.00 
    4    1    6      0.06      0.00 
    4    1    7      0.60      0.00 
   -4    2    8     -2.26      0.00 
   -4    2    6      0.30      0.00 
   -4    2    5     -1.17      0.00 
   -4    2    4     -3.54      0.00 
   -4    2    3     -1.47      0.00 
   -4    2    2      6.72      0.00 
   -4    2    1     -3.87      0.00 
    4    2    0      2.53      0.00 
    4    2    1     -3.73      0.00 
    4    2    2     -2.43      0.00 
    4    2    3     -1.63      0.00 
    4    2    4     -0.22      0.00 
    4    2    5      0.98      0.00 
    4    2    6     -0.92      0.00 
    4    2    7      0.74      0.00 
   -4    3    8      0.73      0.00 
   -4    3    7      0.82      0.00 
   -4    3    6      0.33      0.00 
   -4    3    5     -1.65      0.00 
   -4    3    4     -2.83      0.00 
   -4    3    3     -2.07      0.00 
   -4    3    2     -1.47      0.00 
   -4    3    1     23.82      0.00 
    4    3    0      0.80      0.00 
    4    3    1    -18.17      0.00 
    4    3    2     -6.12      0.00 
    4    3    3      4.11      0.00 
    4    3    4      2.28      0.00 
    4    3    5     -1.92      0.00 
    4    3    6      0.10      0.00 
    4    3    7      0.33      0.00 
   -4    4    8     -1.73      0.00 
   -4    4    7      0.66      0.00 
   -4    4    6      0.39      0.00 
   -4    4    5     -1.41      0.00 
   -4    4    4     -2.33      0.00 
   -4    4    3     -1.82      0.00 
   -4    4    2      1.59      0.00 
   -4    4    1     -5.24      0.00 
    4    4    0      1.70      0.00 
    4    4    1     -5.52      0.00 
    4    4    2     -1.21      0.00 
    4    4    3     -2.31      0.00 
    4    4    4      0.63      0.00 
    4    4    5      1.36      0.00 
    4    4    6     -1.54      0.00 
    4    4    7      1.00      0.00 
   -4    5    8      0.26      0.00 
   -4    5    7      0.06      0.00 
   -4    5    6      1.04      0.00 
   -4    5    5     -0.37      0.00 
   -4    5    4     -3.28      0.00 
   -4    5    3     -2.69      0.00 
   -4    5    2     -1.63      0.00 
   -4    5    1     13.31      0.00 
    4    5    0      0.87      0.00 
    4    5    1    -13.24      0.00 
    4    5    2     -7.10      0.00 
    4    5    3      4.43      0.00 
    4    5    4      2.92      0.00 
    4    5    5     -0.79      0.00 
    4    5    6     -0.02      0.00 
    4    5    7     -0.19      0.00 
   -4    6    8     -0.80      0.00 
   -4    6    7      0.58      0.00 
   -4    6    6      0.61      0.00 
   -4    6    5     -0.83      0.00 
   -4    6    4     -0.48      0.00 
   -4    6    3     -0.91      0.00 
   -4    6    2     -3.26      0.00 
   -4    6    1     -3.96      0.00 
    4    6    0      0.74      0.00 
    4    6    1     -4.63      0.00 
    4    6    2      0.16      0.00 
    4    6    3     -1.89      0.00 
    4    6    4      1.45      0.00 
    4    6    5      1.00      0.00 
    4    6    6     -1.99      0.00 
    4    6    7      0.71      0.00 
   -4    7    8     -0.65      0.00 
   -4    7    7     -0.18      0.00 
   -4    7    6      1.61      0.00 
   -4    7    5      0.69      0.00 
   -4    7    4     -2.60      0.00 
   -4    7    3     -2.89      0.00 
   -4    7    2     -1.19      0.00 
   -4    7    1      4.63      0.00 
    4    7    0      0.84      0.00 
    4    7    1     -8.60      0.00 
    4    7    2     -5.61      0.00 
    4    7    3      4.37      0.00 
    4    7    4      2.55      0.00 
    4    7    5     -0.28      0.00 
    4    7    6     -0.16      0.00 
    4    7    7     -0.83      0.00 
   -4    8    8      0.11      0.00 
   -4    8    7      0.02      0.00 
   -4    8    6      0.86      0.00 
   -4    8    5     -0.31      0.00 
   -4    8    4      1.36      0.00 
   -4    8    3      0.45      0.00 
   -4    8    2     -5.86      0.00 
   -4    8    1     -1.85      0.00 
    4    8    0      0.01      0.00 
    4    8    1     -1.84      0.00 
    4    8    2      1.17      0.00 
    4    8    3     -0.98      0.00 
    4    8    4      1.92      0.00 
    4    8    5      0.29      0.00 
    4    8    6     -1.77      0.00 
    4    8    7      0.22      0.00 
   -4    9    8     -1.26      0.00 
   -4    9    7     -0.09      0.00 
   -4    9    6      1.61      0.00 
   -4    9    5      0.92      0.00 
   -4    9    4     -1.37      0.00 
   -4    9    3     -2.68      0.00 
   -4    9    2     -0.50      0.00 
   -4    9    1     -0.06      0.00 
    4    9    0      0.86      0.00 
    4    9    1     -5.18      0.00 
    4    9    2     -2.88      0.00 
    4    9    3      3.87      0.00 
    4    9    4      1.35      0.00 
    4    9    5     -0.27      0.00 
    4    9    6     -0.09      0.00 
    4    9    7     -1.21      0.00 
   -4   10    8      0.52      0.00 
   -4   10    7     -0.59      0.00 
   -4   10    6      1.03      0.00 
   -4   10    5     -0.33      0.00 
   -4   10    4      2.33      0.00 
   -4   10    3      1.45      0.00 
   -4   10    2     -6.27      0.00 
   -4   10    1     -0.45      0.00 
    4   10    0     -0.26      0.00 
    4   10    1      1.24      0.00 
    4   10    2      1.58      0.00 
    4   10    3     -0.35      0.00 
    4   10    4      1.97      0.00 
    4   10    5     -0.31      0.00 
    4   10    6     -0.86      0.00 
    4   10    7     -0.12      0.00 
   -4   11    7     -0.08      0.00 
   -4   11    6      1.23      0.00 
   -4   11    5      0.20      0.00 
   -4   11    4     -0.15      0.00 
   -4   11    3     -2.23      0.00 
   -4   11    2      0.20      0.00 
   -4   11    1     -1.45      0.00 
    4   11    0      0.72      0.00 
    4   11    1     -3.02      0.00 
    4   11    2     -0.12      0.00 
    4   11    3      3.09      0.00 
    4   11    4     -0.01      0.00 
    4   11    5     -0.21      0.00 
    4   11    6      0.24      0.00 
    4   11    7     -1.10      0.00 
   -4   12    7     -0.66      0.00 
   -4   12    6      1.07      0.00 
   -4   12    5     -0.65      0.00 
   -4   12    4      2.05      0.00 
   -4   12    3      1.89      0.00 
   -4   12    2     -5.24      0.00 
   -4   12    1      0.18      0.00 
    4   12    0     -0.04      0.00 
    4   12    1      3.27      0.00 
    4   12    2      1.36      0.00 
    4   12    3     -0.26      0.00 
    4   12    4      1.62      0.00 
    4   12    5     -0.59      0.00 
    4   12    6      0.18      0.00 
   -4   13    7     -0.17      0.00 
   -4   13    6      0.91      0.00 
   -4   13    5     -1.01      0.00 
   -4   13    4      0.67      0.00 
   -4   13    3     -1.56      0.00 
   -4   13    2      0.82      0.00 
   -4   13    1     -0.88      0.00 
    4   13    0      0.30      0.00 
    4   13    1     -1.99      0.00 
    4   13    2      1.89      0.00 
    4   13    3      2.26      0.00 
    4   13    4     -0.76      0.00 
    4   13    5      0.09      0.00 
    4   13    6      0.63      0.00 
   -4   14    7     -0.14      0.00 
   -4   14    6      0.98      0.00 
   -4   14    5     -0.90      0.00 
   -4   14    4      0.98      0.00 
   -4   14    3      1.99      0.00 
   -4   14    2     -3.26      0.00 
   -4   14    1      0.72      0.00 
    4   14    0      0.56      0.00 
    4   14    1      3.83      0.00 
    4   14    2      0.70      0.00 
    4   14    3     -0.51      0.00 
    4   14    4      0.90      0.00 
    4   14    5     -0.58      0.00 
    4   14    6      0.71      0.00 
   -4   15    7     -0.17      0.00 
   -4   15    6      0.71      0.00 
   -4   15    5     -2.04      0.00 
   -4   15    4      0.86      0.00 
   -4   15    3     -0.72      0.00 
   -4   15    2      1.31      0.00 
   -4   15    1      0.71      0.00 
    4   15    0     -0.18      0.00 
    4   15    1     -1.95      0.00 
    4   15    2      2.60      0.00 
    4   15    3      1.50      0.00 
    4   15    4     -0.58      0.00 
    4   15    5      0.36      0.00 
    4   15    6      0.77      0.00 
   -4   16    6      0.69      0.00 
   -4   16    5     -1.02      0.00 
   -4   16    4      0.10      0.00 
   -4   16    3      1.87      0.00 
   -4   16    2     -0.80      0.00 
   -4   16    1      1.35      0.00 
    4   16    0      1.24      0.00 
    4   16    1      3.24      0.00 
    4   16    2     -0.03      0.00 
    4   16    3     -0.77      0.00 
    4   16    4      0.07      0.00 
    4   16    5     -0.40      0.00 
   -4   17    6      0.46      0.00 
   -4   17    5     -2.35      0.00 
   -4   17    4      0.52      0.00 
   -4   17    3      0.06      0.00 
   -4   17    2      1.53      0.00 
   -4   17    1      2.58      0.00 
    4   17    0     -0.48      0.00 
    4   17    1     -2.43      0.00 
    4   17    2      1.83      0.00 
    4   17    3      0.87      0.00 
    4   17    4      0.14      0.00 
    4   17    5      0.37      0.00 
   -4   18    6      0.26      0.00 
   -4   18    5     -1.02      0.00 
   -4   18    4      0.08      0.00 
   -4   18    3      1.42      0.00 
   -4   18    2      1.16      0.00 
   -4   18    1      1.70      0.00 
    4   18    0      1.66      0.00 
    4   18    1      2.10      0.00 
    4   18    2     -0.47      0.00 
    4   18    3     -0.92      0.00 
    4   18    4     -0.47      0.00 
    4   18    5     -0.18      0.00 
   -4   19    5     -1.88      0.00 
   -4   19    4      0.05      0.00 
   -4   19    3      0.46      0.00 
   -4   19    2      1.33      0.00 
   -4   19    1      3.80      0.00 
    4   19    0     -0.70      0.00 
    4   19    1     -2.70      0.00 
    4   19    2      0.23      0.00 
    4   19    3      0.42      0.00 
    4   19    4      0.65      0.00 
   -4   20    5     -0.80      0.00 
   -4   20    4      0.76      0.00 
   -4   20    3      0.65      0.00 
   -4   20    2      1.80      0.00 
   -4   20    1      1.51      0.00 
    4   20    0      1.58      0.00 
    4   20    1      0.99      0.00 
    4   20    2     -0.54      0.00 
    4   20    3     -0.90      0.00 
    4   20    4     -0.52      0.00 
   -4   21    4     -0.14      0.00 
   -4   21    3      0.43      0.00 
   -4   21    2      0.73      0.00 
   -4   21    1      3.77      0.00 
    4   21    0     -0.99      0.00 
    4   21    1     -2.35      0.00 
    4   21    2     -0.97      0.00 
    4   21    3      0.14      0.00 
    4   21    4      0.60      0.00 
   -4   22    4      1.33      0.00 
   -4   22    3     -0.07      0.00 
   -4   22    2      1.20      0.00 
   -4   22    1      0.94      0.00 
    4   22    0      1.01      0.00 
    4   22    1      0.29      0.00 
    4   22    2     -0.41      0.00 
    4   22    3     -0.67      0.00 
   -4   23    3      0.22      0.00 
   -4   23    2      0.07      0.00 
   -4   23    1      2.67      0.00 
    4   23    0     -1.14      0.00 
    4   23    1     -1.50      0.00 
    4   23    2     -1.06      0.00 
   -4   24    2      0.22      0.00 
   -4   24    1      0.35      0.00 
    4   24    0      0.28      0.00 
    4   24    1      0.06      0.00 
   -5    0    8     -1.20      0.00 
   -5    0    6     -0.15      0.00 
   -5    0    4     -2.01      0.00 
   -5    0    2     11.34      0.00 
    5    0    0     -7.29      0.00 
    5    0    2      1.71      0.00 
    5    0    4     -2.05      0.00 
    5    0    6      0.12      0.00 
   -5    1    8      0.22      0.00 
   -5    1    7      1.20      0.00 
   -5    1    6     -0.16      0.00 
   -5    1    5     -3.12      0.00 
   -5    1    4     -1.03      0.00 
   -5    1    3      2.02      0.00 
   -5    1    2     -0.88      0.00 
   -5    1    1     18.96      0.00 
    5    1    0     -0.76      0.00 
    5    1    1    -13.59      0.00 
    5    1    2     -1.99      0.00 
    5    1    3      2.20      0.00 
    5    1    4      0.90      0.00 
    5    1    5     -2.71      0.00 
    5    1    6      0.25      0.00 
    5    1    7      1.06      0.00 
   -5    2    8     -1.35      0.00 
   -5    2    7      0.32      0.00 
   -5    2    6     -0.03      0.00 
   -5    2    5     -1.31      0.00 
   -5    2    4     -1.88      0.00 
   -5    2    3     -1.11      0.00 
   -5    2    2      9.29      0.00 
   -5    2    1     -2.92      0.00 
    5    2    0     -6.52      0.00 
    5    2    1     -4.57      0.00 
    5    2    2      1.94      0.00 
    5    2    3     -0.56      0.00 
    5    2    4     -1.54      0.00 
    5    2    5      0.44      0.00 
    5    2    6     -0.27      0.00 
    5    2    7      0.52      0.00 
   -5    3    8      0.41      0.00 
   -5    3    7      0.58      0.00 
   -5    3    6     -0.12      0.00 
   -5    3    5     -2.42      0.00 
   -5    3    4     -2.53      0.00 
   -5    3    3      0.77      0.00 
   -5    3    2     -2.21      0.00 
   -5    3    1     14.78      0.00 
    5    3    0     -1.87      0.00 
    5    3    1    -11.66      0.00 
    5    3    2     -5.01      0.00 
    5    3    3      2.73      0.00 
    5    3    4      2.37      0.00 
    5    3    5     -2.12      0.00 
    5    3    6      0.57      0.00 
    5    3    7      0.81      0.00 
   -5    4    8     -1.52      0.00 
   -5    4    7      0.92      0.00 
   -5    4    6      0.24      0.00 
   -5    4    5     -1.65      0.00 
   -5    4    4     -1.37      0.00 
   -5    4    3     -1.23      0.00 
   -5    4    2      4.44      0.00 
   -5    4    1     -3.96      0.00 
    5    4    0     -4.73      0.00 
    5    4    1     -6.91      0.00 
    5    4    2      2.45      0.00 
    5    4    3     -0.59      0.00 
    5    4    4     -0.37      0.00 
    5    4    5      0.44      0.00 
    5    4    6     -1.14      0.00 
    5    4    7      0.63      0.00 
   -5    5    8      0.04      0.00 
   -5    5    7     -0.03      0.00 
   -5    5    6      0.47      0.00 
   -5    5    5     -1.20      0.00 
   -5    5    4     -2.75      0.00 
   -5    5    3     -0.96      0.00 
   -5    5    2     -2.62      0.00 
   -5    5    1      8.72      0.00 
    5    5    0     -2.00      0.00 
    5    5    1     -8.71      0.00 
    5    5    2     -5.90      0.00 
    5    5    3      3.31      0.00 
    5    5    4      2.96      0.00 
    5    5    5     -1.47      0.00 
    5    5    6      0.51      0.00 
    5    5    7      0.34      0.00 
   -5    6    8     -1.25      0.00 
   -5    6    7      1.41      0.00 
   -5    6    6      0.53      0.00 
   -5    6    5     -1.07      0.00 
   -5    6    4     -0.40      0.00 
   -5    6    3     -0.31      0.00 
   -5    6    2     -0.50      0.00 
   -5    6    1     -3.03      0.00 
    5    6    0     -2.91      0.00 
    5    6    1     -6.18      0.00 
    5    6    2      2.88      0.00 
    5    6    3     -0.14      0.00 
    5    6    4      0.78      0.00 
    5    6    5     -0.02      0.00 
    5    6    6     -1.76      0.00 
    5    6    7      0.34      0.00 
   -5    7    8     -0.68      0.00 
   -5    7    7     -0.17      0.00 
   -5    7    6      1.07      0.00 
   -5    7    5      0.08      0.00 
   -5    7    4     -1.90      0.00 
   -5    7    3     -2.34      0.00 
   -5    7    2     -2.29      0.00 
   -5    7    1      3.50      0.00 
    5    7    0     -1.17      0.00 
    5    7    1     -5.75      0.00 
    5    7    2     -4.89      0.00 
    5    7    3      3.46      0.00 
    5    7    4      2.45      0.00 
    5    7    5     -1.16      0.00 
    5    7    6      0.17      0.00 
    5    7    7     -0.23      0.00 
   -5    8    8     -0.63      0.00 
   -5    8    7      1.23      0.00 
   -5    8    6      0.70      0.00 
   -5    8    5     -0.41      0.00 
   -5    8    4      0.76      0.00 
   -5    8    3      0.91      0.00 
   -5    8    2     -3.67      0.00 
   -5    8    1     -1.49      0.00 
    5    8    0     -1.62      0.00 
    5    8    1     -3.20      0.00 
    5    8    2      2.94      0.00 
    5    8    3      0.21      0.00 
    5    8    4      1.50      0.00 
    5    8    5     -0.58      0.00 
    5    8    6     -1.62      0.00 
    5    8    7     -0.06      0.00 
   -5    9    8     -1.22      0.00 
   -5    9    7     -0.03      0.00 
   -5    9    6      1.18      0.00 
   -5    9    5      0.77      0.00 
   -5    9    4     -0.68      0.00 
   -5    9    3     -3.01      0.00 
   -5    9    2     -1.63      0.00 
   -5    9    1      0.47      0.00 
    5    9    0     -0.02      0.00 
    5    9    1     -3.30      0.00 
    5    9    2     -2.96      0.00 
    5    9    3      3.06      0.00 
    5    9    4      1.17      0.00 
    5    9    5     -0.99      0.00 
    5    9    6     -0.09      0.00 
    5    9    7     -0.64      0.00 
   -5   10    8     -0.14      0.00 
   -5   10    7      0.52      0.00 
   -5   10    6      0.67      0.00 
   -5   10    5     -0.21      0.00 
   -5   10    4      1.56      0.00 
   -5   10    3      1.69      0.00 
   -5   10    2     -4.75      0.00 
   -5   10    1     -0.40      0.00 
    5   10    0     -0.78      0.00 
    5   10    1      0.41      0.00 
    5   10    2      2.57      0.00 
    5   10    3     -0.05      0.00 
    5   10    4      1.77      0.00 
    5   10    5     -0.80      0.00 
    5   10    6     -0.80      0.00 
   -5   11    7      0.03      0.00 
   -5   11    6      0.95      0.00 
   -5   11    5      0.48      0.00 
   -5   11    4      0.33      0.00 
   -5   11    3     -2.91      0.00 
   -5   11    2     -0.85      0.00 
   -5   11    1     -0.48      0.00 
    5   11    0      0.73      0.00 
    5   11    1     -1.67      0.00 
    5   11    2     -0.95      0.00 
    5   11    3      2.34      0.00 
    5   11    4     -0.15      0.00 
    5   11    5     -0.60      0.00 
    5   11    6      0.00      0.00 
   -5   12    7      0.02      0.00 
   -5   12    6      0.50      0.00 
   -5   12    5     -0.38      0.00 
   -5   12    4      1.58      0.00 
   -5   12    3      1.98      0.00 
   -5   12    2     -4.16      0.00 
   -5   12    1      0.27      0.00 
    5   12    0     -0.17      0.00 
    5   12    1      3.21      0.00 
    5   12    2      1.86      0.00 
    5   12    3     -0.79      0.00 
    5   12    4      1.64      0.00 
    5   12    5     -0.60      0.00 
    5   12    6      0.08      0.00 
   -5   13    7     -0.04      0.00 
   -5   13    6      0.75      0.00 
   -5   13    5     -0.61      0.00 
   -5   13    4      0.89      0.00 
   -5   13    3     -2.07      0.00 
   -5   13    2      0.03      0.00 
   -5   13    1     -0.04      0.00 
    5   13    0      0.88      0.00 
    5   13    1     -1.11      0.00 
    5   13    2      0.61      0.00 
    5   13    3      1.58      0.00 
    5   13    4     -0.74      0.00 
    5   13    5     -0.03      0.00 
    5   13    6      0.37      0.00 
   -5   14    7      0.10      0.00 
   -5   14    6      0.22      0.00 
   -5   14    5     -0.60      0.00 
   -5   14    4      0.95      0.00 
   -5   14    3      2.10      0.00 
   -5   14    2     -2.36      0.00 
   -5   14    1      0.91      0.00 
    5   14    0      0.21      0.00 
    5   14    1      4.43      0.00 
    5   14    2      1.00      0.00 
    5   14    3     -1.39      0.00 
    5   14    4      1.12      0.00 
    5   14    5     -0.20      0.00 
    5   14    6      0.45      0.00 
   -5   15    7     -0.07      0.00 
   -5   15    6      0.62      0.00 
   -5   15    5     -1.70      0.00 
   -5   15    4      1.03      0.00 
   -5   15    3     -0.78      0.00 
   -5   15    2      0.88      0.00 
   -5   15    1      1.15      0.00 
    5   15    0      0.69      0.00 
    5   15    1     -1.57      0.00 
    5   15    2      1.26      0.00 
    5   15    3      0.95      0.00 
    5   15    4     -0.41      0.00 
    5   15    5      0.36      0.00 
   -5   16    6     -0.12      0.00 
   -5   16    5     -0.78      0.00 
   -5   16    4      0.27      0.00 
   -5   16    3      2.17      0.00 
   -5   16    2     -0.03      0.00 
   -5   16    1      1.49      0.00 
    5   16    0      0.32      0.00 
    5   16    1      4.05      0.00 
    5   16    2      0.31      0.00 
    5   16    3     -1.37      0.00 
    5   16    4      0.43      0.00 
    5   16    5      0.06      0.00 
   -5   17    6      0.38      0.00 
   -5   17    5     -2.03      0.00 
   -5   17    4      0.85      0.00 
   -5   17    3      0.34      0.00 
   -5   17    2      1.41      0.00 
   -5   17    1      2.42      0.00 
    5   17    0      0.35      0.00 
    5   17    1     -2.38      0.00 
    5   17    2      0.79      0.00 
    5   17    3      0.54      0.00 
    5   17    4      0.35      0.00 
    5   17    5      0.38      0.00 
   -5   18    6     -0.38      0.00 
   -5   18    5     -0.87      0.00 
   -5   18    4      0.13      0.00 
   -5   18    3      1.95      0.00 
   -5   18    2      1.78      0.00 
   -5   18    1      1.73      0.00 
    5   18    0      0.31      0.00 
    5   18    1      2.68      0.00 
    5   18    2      0.01      0.00 
    5   18    3     -0.83      0.00 
    5   18    4     -0.04      0.00 
    5   18    5      0.09      0.00 
   -5   19    5     -1.39      0.00 
   -5   19    4      0.51      0.00 
   -5   19    3      0.76      0.00 
   -5   19    2      1.37      0.00 
   -5   19    1      3.09      0.00 
    5   19    0     -0.16      0.00 
    5   19    1     -2.71      0.00 
    5   19    2     -0.34      0.00 
    5   19    3      0.32      0.00 
    5   19    4      0.81      0.00 
   -5   20    5     -0.74      0.00 
   -5   20    4      0.55      0.00 
   -5   20    3      1.24      0.00 
   -5   20    2      2.26      0.00 
   -5   20    1      1.57      0.00 
    5   20    0      0.28      0.00 
    5   20    1      1.28      0.00 
    5   20    2      0.03      0.00 
    5   20    3     -0.22      0.00 
    5   20    4     -0.09      0.00 
   -5   21    4      0.18      0.00 
   -5   21    3      0.49      0.00 
   -5   21    2      0.81      0.00 
   -5   21    1      2.80      0.00 
    5   21    0     -0.74      0.00 
    5   21    1     -2.29      0.00 
    5   21    2     -1.16      0.00 
    5   21    3      0.18      0.00 
   -5   22    4      0.98      0.00 
   -5   22    3      0.36      0.00 
   -5   22    2      1.53      0.00 
   -5   22    1      1.20      0.00 
    5   22    0      0.19      0.00 
    5   22    1      0.52      0.00 
    5   22    2      0.11      0.00 
    5   22    3      0.11      0.00 
   -5   23    3      0.05      0.00 
   -5   23    2      0.09      0.00 
   -5   23    1      1.81      0.00 
    5   23    0     -1.01      0.00 
    5   23    1     -1.44      0.00 
    5   23    2     -1.11      0.00 
   -5   24    2      0.44      0.00 
   -5   24    1      0.77      0.00 
    5   24    0     -0.01      0.00 
    5   24    1      0.38      0.00 
   -6    0    8     -0.26      0.00 
   -6    0    6     -0.32      0.00 
   -6    0    4      0.06      0.00 
   -6    0    2     10.29      0.00 
    6    0    0     -9.17      0.00 
    6    0    2      3.93      0.00 
    6    0    4     -2.66      0.00 
    6    0    6      0.73      0.00 
   -6    1    8      0.13      0.00 
   -6    1    7      0.49      0.00 
   -6    1    6     -0.31      0.00 
   -6    1    5     -3.15      0.00 
   -6    1    4     -0.88      0.00 
   -6    1    3      4.34      0.00 
   -6    1    2     -0.93      0.00 
   -6    1    1      8.23      0.00 
    6    1    0     -1.54      0.00 
    6    1    1     -6.66      0.00 
    6    1    2     -1.49      0.00 
    6    1    3      0.05      0.00 
    6    1    4      0.71      0.00 
    6    1    5     -1.63      0.00 
    6    1    6      0.44      0.00 
    6    1    7      1.25      0.00 
   -6    2    8     -0.59      0.00 
   -6    2    7      0.10      0.00 
   -6    2    6     -0.18      0.00 
   -6    2    5     -1.48      0.00 
   -6    2    4      0.05      0.00 
   -6    2    3     -0.89      0.00 
   -6    2    2      8.72      0.00 
   -6    2    1     -1.38      0.00 
    6    2    0     -8.29      0.00 
    6    2    1     -4.35      0.00 
    6    2    2      4.05      0.00 
    6    2    3      0.43      0.00 
    6    2    4     -2.15      0.00 
    6    2    5      0.23      0.00 
    6    2    6      0.34      0.00 
    6    2    7      0.20      0.00 
   -6    3    8      0.32      0.00 
   -6    3    7      0.20      0.00 
   -6    3    6     -0.60      0.00 
   -6    3    5     -2.64      0.00 
   -6    3    4     -2.10      0.00 
   -6    3    3      2.87      0.00 
   -6    3    2     -2.39      0.00 
   -6    3    1      6.59      0.00 
    6    3    0     -3.82      0.00 
    6    3    1     -5.66      0.00 
    6    3    2     -3.71      0.00 
    6    3    3      0.79      0.00 
    6    3    4      1.87      0.00 
    6    3    5     -1.62      0.00 
    6    3    6      1.04      0.00 
    6    3    7      1.04      0.00 
   -6    4    8     -1.16      0.00 
   -6    4    7      0.80      0.00 
   -6    4    6      0.12      0.00 
   -6    4    5     -1.95      0.00 
   -6    4    4      0.06      0.00 
   -6    4    3     -1.02      0.00 
   -6    4    2      4.91      0.00 
   -6    4    1     -1.85      0.00 
    6    4    0     -6.20      0.00 
    6    4    1     -6.70      0.00 
    6    4    2      4.26      0.00 
    6    4    3      0.99      0.00 
    6    4    4     -0.97      0.00 
    6    4    5      0.05      0.00 
    6    4    6     -0.51      0.00 
    6    4    7      0.18      0.00 
   -6    5    8      0.28      0.00 
   -6    5    7     -0.02      0.00 
   -6    5    6     -0.32      0.00 
   -6    5    5     -1.60      0.00 
   -6    5    4     -2.13      0.00 
   -6    5    3      0.68      0.00 
   -6    5    2     -3.02      0.00 
   -6    5    1      4.07      0.00 
    6    5    0     -4.25      0.00 
    6    5    1     -4.13      0.00 
    6    5    2     -4.28      0.00 
    6    5    3      1.73      0.00 
    6    5    4      2.32      0.00 
    6    5    5     -1.65      0.00 
    6    5    6      1.02      0.00 
    6    5    7      0.66      0.00 
   -6    6    8     -1.33      0.00 
   -6    6    7      1.70      0.00 
   -6    6    6      0.36      0.00 
   -6    6    5     -1.38      0.00 
   -6    6    4      0.15      0.00 
   -6    6    3     -0.36      0.00 
   -6    6    2      0.77      0.00 
   -6    6    1     -1.42      0.00 
    6    6    0     -3.99      0.00 
    6    6    1     -6.28      0.00 
    6    6    2      4.21      0.00 
    6    6    3      1.43      0.00 
    6    6    4      0.22      0.00 
    6    6    5     -0.51      0.00 
    6    6    6     -1.10      0.00 
    6    6    7      0.00      0.00 
   -6    7    8     -0.10      0.00 
   -6    7    7      0.04      0.00 
   -6    7    6      0.13      0.00 
   -6    7    5     -0.26      0.00 
   -6    7    4     -1.19      0.00 
   -6    7    3     -1.32      0.00 
   -6    7    2     -2.95      0.00 
   -6    7    1      1.73      0.00 
    6    7    0     -3.00      0.00 
    6    7    1     -2.55      0.00 
    6    7    2     -3.56      0.00 
    6    7    3      2.28      0.00 
    6    7    4      1.90      0.00 
    6    7    5     -1.66      0.00 
    6    7    6      0.50      0.00 
    6    7    7      0.20      0.00 
   -6    8    8     -0.98      0.00 
   -6    8    7      1.89      0.00 
   -6    8    6      0.43      0.00 
   -6    8    5     -0.56      0.00 
   -6    8    4      0.35      0.00 
   -6    8    3      0.56      0.00 
   -6    8    2     -2.15      0.00 
   -6    8    1     -0.75      0.00 
    6    8    0     -2.22      0.00 
    6    8    1     -3.68      0.00 
    6    8    2      3.72      0.00 
    6    8    3      1.28      0.00 
    6    8    4      1.04      0.00 
    6    8    5     -1.04      0.00 
    6    8    6     -1.04      0.00 
   -6    9    8     -0.58      0.00 
   -6    9    7      0.21      0.00 
   -6    9    6      0.35      0.00 
   -6    9    5      0.82      0.00 
   -6    9    4      0.00      0.00 
   -6    9    3     -2.58      0.00 
   -6    9    2     -2.43      0.00 
   -6    9    1      0.33      0.00 
    6    9    0     -1.06      0.00 
    6    9    1     -1.22      0.00 
    6    9    2     -2.45      0.00 
    6    9    3      2.23      0.00 
    6    9    4      0.89      0.00 
    6    9    5     -1.44      0.00 
    6    9    6     -0.05      0.00 
   -6   10    8     -0.52      0.00 
   -6   10    7      1.21      0.00 
   -6   10    6      0.33      0.00 
   -6   10    5     -0.16      0.00 
   -6   10    4      0.57      0.00 
   -6   10    3      1.22      0.00 
   -6   10    2     -3.34      0.00 
   -6   10    1     -0.22      0.00 
    6   10    0     -0.93      0.00 
    6   10    1     -0.19      0.00 
    6   10    2      2.88      0.00 
    6   10    3      0.35      0.00 
    6   10    4      1.45      0.00 
    6   10    5     -1.05      0.00 
    6   10    6     -0.49      0.00 
   -6   11    7      0.21      0.00 
   -6   11    6      0.43      0.00 
   -6   11    5      1.02      0.00 
   -6   11    4      0.81      0.00 
   -6   11    3     -2.82      0.00 
   -6   11    2     -1.60      0.00 
   -6   11    1      0.01      0.00 
    6   11    0      0.60      0.00 
    6   11    1     -0.43      0.00 
    6   11    2     -1.49      0.00 
    6   11    3      1.73      0.00 
    6   11    4     -0.05      0.00 
    6   11    5     -0.90      0.00 
    6   11    6     -0.21      0.00 
   -6   12    7      0.43      0.00 
   -6   12    6      0.08      0.00 
   -6   12    5     -0.24      0.00 
   -6   12    4      0.66      0.00 
   -6   12    3      1.58      0.00 
   -6   12    2     -2.93      0.00 
   -6   12    1      0.25      0.00 
    6   12    0     -0.16      0.00 
    6   12    1      2.82      0.00 
    6   12    2      1.87      0.00 
    6   12    3     -0.88      0.00 
    6   12    4      1.47      0.00 
    6   12    5     -0.49      0.00 
    6   12    6      0.00      0.00 
   -6   13    7      0.03      0.00 
   -6   13    6      0.56      0.00 
   -6   13    5      0.25      0.00 
   -6   13    4      1.15      0.00 
   -6   13    3     -1.97      0.00 
   -6   13    2     -0.53      0.00 
   -6   13    1      0.47      0.00 
    6   13    0      1.59      0.00 
    6   13    1     -0.45      0.00 
    6   13    2     -0.76      0.00 
    6   13    3      1.08      0.00 
    6   13    4     -0.34      0.00 
    6   13    5     -0.29      0.00 
    6   13    6      0.03      0.00 
   -6   14    7      0.16      0.00 
   -6   14    6     -0.32      0.00 
   -6   14    5     -0.48      0.00 
   -6   14    4      0.53      0.00 
   -6   14    3      1.90      0.00 
   -6   14    2     -1.39      0.00 
   -6   14    1      0.77      0.00 
    6   14    0     -0.09      0.00 
    6   14    1      4.38      0.00 
    6   14    2      0.94      0.00 
    6   14    3     -1.58      0.00 
    6   14    4      1.10      0.00 
    6   14    5      0.22      0.00 
   -6   15    6      0.66      0.00 
   -6   15    5     -0.82      0.00 
   -6   15    4      1.23      0.00 
   -6   15    3     -0.45      0.00 
   -6   15    2      0.49      0.00 
   -6   15    1      1.24      0.00 
    6   15    0      1.85      0.00 
    6   15    1     -1.17      0.00 
    6   15    2     -0.33      0.00 
    6   15    3      0.52      0.00 
    6   15    4      0.05      0.00 
    6   15    5      0.10      0.00 
   -6   16    6     -0.73      0.00 
   -6   16    5     -0.65      0.00 
   -6   16    4      0.27      0.00 
   -6   16    3      2.19      0.00 
   -6   16    2      0.54      0.00 
   -6   16    1      1.18      0.00 
    6   16    0     -0.52      0.00 
    6   16    1      4.13      0.00 
    6   16    2      0.33      0.00 
    6   16    3     -1.29      0.00 
    6   16    4      0.53      0.00 
    6   16    5      0.53      0.00 
   -6   17    6      0.50      0.00 
   -6   17    5     -1.30      0.00 
   -6   17    4      1.21      0.00 
   -6   17    3      0.86      0.00 
   -6   17    2      1.09      0.00 
   -6   17    1      1.90      0.00 
    6   17    0      1.44      0.00 
    6   17    1     -1.97      0.00 
    6   17    2     -0.33      0.00 
    6   17    3      0.23      0.00 
    6   17    4      0.59      0.00 
    6   17    5      0.17      0.00 
   -6   18    6     -0.86      0.00 
   -6   18    5     -0.67      0.00 
   -6   18    4      0.12      0.00 
   -6   18    3      2.15      0.00 
   -6   18    2      1.92      0.00 
   -6   18    1      1.31      0.00 
    6   18    0     -0.82      0.00 
    6   18    1      2.66      0.00 
    6   18    2      0.16      0.00 
    6   18    3     -0.36      0.00 
    6   18    4      0.15      0.00 
   -6   19    5     -0.85      0.00 
   -6   19    4      1.03      0.00 
   -6   19    3      1.23      0.00 
   -6   19    2      1.12      0.00 
   -6   19    1      2.09      0.00 
    6   19    0      0.56      0.00 
    6   19    1     -2.23      0.00 
    6   19    2     -0.66      0.00 
    6   19    3      0.19      0.00 
    6   19    4      0.77      0.00 
   -6   20    5     -0.53      0.00 
   -6   20    4      0.19      0.00 
   -6   20    3      1.57      0.00 
   -6   20    2      2.17      0.00 
   -6   20    1      1.27      0.00 
    6   20    0     -0.64      0.00 
    6   20    1      1.16      0.00 
    6   20    2      0.31      0.00 
    6   20    3      0.45      0.00 
   -6   21    4      0.62      0.00 
   -6   21    3      0.70      0.00 
   -6   21    2      0.69      0.00 
   -6   21    1      1.70      0.00 
    6   21    0     -0.31      0.00 
    6   21    1     -1.85      0.00 
    6   21    2     -0.90      0.00 
    6   21    3      0.18      0.00 
   -6   22    3      0.67      0.00 
   -6   22    2      1.47      0.00 
   -6   22    1      1.16      0.00 
    6   22    0     -0.23      0.00 
    6   22    1      0.45      0.00 
    6   22    2      0.47      0.00 
   -6   23    3     -0.02      0.00 
   -6   23    2      0.11      0.00 
   -6   23    1      0.93      0.00 
    6   23    0     -0.64      0.00 
    6   23    1     -1.19      0.00 
   -6   24    1      0.95      0.00 
   -7    0    8     -0.15      0.00 
   -7    0    6     -0.53      0.00 
   -7    0    4      1.72      0.00 
   -7    0    2      7.68      0.00 
    7    0    0     -7.19      0.00 
    7    0    2      4.15      0.00 
    7    0    4     -2.40      0.00 
    7    0    6      0.89      0.00 
   -7    1    8      0.12      0.00 
   -7    1    7      0.02      0.00 
   -7    1    6     -0.45      0.00 
   -7    1    5     -2.85      0.00 
   -7    1    4     -0.67      0.00 
   -7    1    3      5.28      0.00 
   -7    1    2     -0.72      0.00 
   -7    1    1      1.38      0.00 
    7    1    0     -1.85      0.00 
    7    1    1     -1.93      0.00 
    7    1    2     -1.02      0.00 
    7    1    3     -1.77      0.00 
    7    1    4      0.43      0.00 
    7    1    5     -0.32      0.00 
    7    1    6      0.50      0.00 
    7    1    7      1.18      0.00 
   -7    2    8     -0.42      0.00 
   -7    2    7     -0.26      0.00 
   -7    2    6     -0.39      0.00 
   -7    2    5     -1.59      0.00 
   -7    2    4      1.67      0.00 
   -7    2    3     -0.79      0.00 
   -7    2    2      6.60      0.00 
   -7    2    1     -0.01      0.00 
    7    2    0     -6.56      0.00 
    7    2    1     -3.52      0.00 
    7    2    2      4.20      0.00 
    7    2    3      1.23      0.00 
    7    2    4     -2.03      0.00 
    7    2    5      0.42      0.00 
    7    2    6      0.58      0.00 
    7    2    7     -0.09      0.00 
   -7    3    8      0.47      0.00 
   -7    3    7     -0.01      0.00 
   -7    3    6     -1.08      0.00 
   -7    3    5     -2.42      0.00 
   -7    3    4     -1.58      0.00 
   -7    3    3      3.82      0.00 
   -7    3    2     -1.94      0.00 
   -7    3    1      1.20      0.00 
    7    3    0     -4.64      0.00 
    7    3    1     -1.33      0.00 
    7    3    2     -2.42      0.00 
    7    3    3     -0.91      0.00 
    7    3    4      1.13      0.00 
    7    3    5     -0.81      0.00 
    7    3    6      1.19      0.00 
    7    3    7      0.98      0.00 
   -7    4    8     -0.93      0.00 
   -7    4    7      0.24      0.00 
   -7    4    6     -0.08      0.00 
   -7    4    5     -2.19      0.00 
   -7    4    4      1.42      0.00 
   -7    4    3     -1.09      0.00 
   -7    4    2      3.88      0.00 
   -7    4    1      0.04      0.00 
    7    4    0     -5.05      0.00 
    7    4    1     -5.49      0.00 
    7    4    2      4.23      0.00 
    7    4    3      2.19      0.00 
    7    4    4     -1.14      0.00 
    7    4    5      0.31      0.00 
    7    4    6     -0.05      0.00 
    7    4    7     -0.20      0.00 
   -7    5    8      0.84      0.00 
   -7    5    7      0.03      0.00 
   -7    5    6     -1.19      0.00 
   -7    5    5     -1.51      0.00 
   -7    5    4     -1.52      0.00 
   -7    5    3      1.61      0.00 
   -7    5    2     -2.67      0.00 
   -7    5    1      0.78      0.00 
    7    5    0     -5.37      0.00 
    7    5    1     -0.50      0.00 
    7    5    2     -2.55      0.00 
    7    5    3      0.31      0.00 
    7    5    4      1.41      0.00 
    7    5    5     -1.42      0.00 
    7    5    6      1.19      0.00 
   -7    6    8     -1.12      0.00 
   -7    6    7      1.18      0.00 
   -7    6    6      0.15      0.00 
   -7    6    5     -1.65      0.00 
   -7    6    4      0.88      0.00 
   -7    6    3     -0.83      0.00 
   -7    6    2      0.77      0.00 
   -7    6    1      0.09      0.00 
    7    6    0     -3.38      0.00 
    7    6    1     -5.30      0.00 
    7    6    2      4.01      0.00 
    7    6    3      2.55      0.00 
    7    6    4     -0.20      0.00 
    7    6    5     -0.35      0.00 
    7    6    6     -0.46      0.00 
   -7    7    8      0.82      0.00 
   -7    7    7      0.19      0.00 
   -7    7    6     -0.97      0.00 
   -7    7    5     -0.26      0.00 
   -7    7    4     -0.62      0.00 
   -7    7    3     -0.47      0.00 
   -7    7    2     -2.89      0.00 
   -7    7    1      0.28      0.00 
    7    7    0     -4.12      0.00 
    7    7    1      0.19      0.00 
    7    7    2     -1.91      0.00 
    7    7    3      1.27      0.00 
    7    7    4      1.16      0.00 
    7    7    5     -1.69      0.00 
    7    7    6      0.63      0.00 
   -7    8    8     -0.89      0.00 
   -7    8    7      1.57      0.00 
   -7    8    6      0.25      0.00 
   -7    8    5     -0.70      0.00 
   -7    8    4      0.19      0.00 
   -7    8    3     -0.26      0.00 
   -7    8    2     -1.52      0.00 
   -7    8    1      0.04      0.00 
    7    8    0     -1.91      0.00 
    7    8    1     -3.31      0.00 
    7    8    2      3.44      0.00 
    7    8    3      2.03      0.00 
    7    8    4      0.52      0.00 
    7    8    5     -1.02      0.00 
    7    8    6     -0.41      0.00 
   -7    9    8      0.33      0.00 
   -7    9    7      0.33      0.00 
   -7    9    6     -0.64      0.00 
   -7    9    5      0.88      0.00 
   -7    9    4      0.48      0.00 
   -7    9    3     -1.82      0.00 
   -7    9    2     -2.62      0.00 
   -7    9    1      0.06      0.00 
    7    9    0     -1.86      0.00 
    7    9    1      0.53      0.00 
    7    9    2     -1.45      0.00 
    7    9    3      1.64      0.00 
    7    9    4      0.58      0.00 
    7    9    5     -1.48      0.00 
    7    9    6      0.00      0.00 
   -7   10    7      1.10      0.00 
   -7   10    6      0.28      0.00 
   -7   10    5     -0.12      0.00 
   -7   10    4     -0.28      0.00 
   -7   10    3      0.33      0.00 
   -7   10    2     -2.37      0.00 
   -7   10    1     -0.02      0.00 
    7   10    0     -0.72      0.00 
    7   10    1     -0.45      0.00 
    7   10    2      2.59      0.00 
    7   10    3      0.81      0.00 
    7   10    4      0.94      0.00 
    7   10    5     -1.07      0.00 
    7   10    6     -0.13      0.00 
   -7   11    7      0.29      0.00 
   -7   11    6     -0.20      0.00 
   -7   11    5      1.35      0.00 
   -7   11    4      1.20      0.00 
   -7   11    3     -2.13      0.00 
   -7   11    2     -1.87      0.00 
   -7   11    1      0.29      0.00 
    7   11    0      0.45      0.00 
    7   11    1      0.43      0.00 
    7   11    2     -1.50      0.00 
    7   11    3      1.40      0.00 
    7   11    4      0.15      0.00 
    7   11    5     -0.99      0.00 
    7   11    6     -0.31      0.00 
   -7   12    7      0.40      0.00 
   -7   12    6      0.16      0.00 
   -7   12    5     -0.15      0.00 
   -7   12    4     -0.29      0.00 
   -7   12    3      0.87      0.00 
   -7   12    2     -1.86      0.00 
   -7   12    1      0.05      0.00 
    7   12    0     -0.11      0.00 
    7   12    1      2.21      0.00 
    7   12    2      1.62      0.00 
    7   12    3     -0.46      0.00 
    7   12    4      1.00      0.00 
    7   12    5     -0.40      0.00 
    7   12    6      0.03      0.00 
   -7   13    7      0.07      0.00 
   -7   13    6      0.30      0.00 
   -7   13    5      0.92      0.00 
   -7   13    4      1.42      0.00 
   -7   13    3     -1.35      0.00 
   -7   13    2     -0.83      0.00 
   -7   13    1      0.73      0.00 
    7   13    0      2.15      0.00 
    7   13    1     -0.09      0.00 
    7   13    2     -1.67      0.00 
    7   13    3      0.81      0.00 
    7   13    4      0.18      0.00 
    7   13    5     -0.52      0.00 
   -7   14    7      0.08      0.00 
   -7   14    6     -0.23      0.00 
   -7   14    5     -0.45      0.00 
   -7   14    4      0.04      0.00 
   -7   14    3      1.39      0.00 
   -7   14    2     -0.56      0.00 
   -7   14    1      0.22      0.00 
    7   14    0     -0.35      0.00 
    7   14    1      3.68      0.00 
    7   14    2      0.73      0.00 
    7   14    3     -1.01      0.00 
    7   14    4      0.74      0.00 
    7   14    5      0.42      0.00 
   -7   15    6      0.63      0.00 
   -7   15    5      0.02      0.00 
   -7   15    4      1.43      0.00 
   -7   15    3      0.10      0.00 
   -7   15    2      0.09      0.00 
   -7   15    1      1.08      0.00 
    7   15    0      2.79      0.00 
    7   15    1     -0.84      0.00 
    7   15    2     -1.50      0.00 
    7   15    3      0.24      0.00 
    7   15    4      0.53      0.00 
    7   15    5     -0.23      0.00 
   -7   16    6     -0.72      0.00 
   -7   16    5     -0.59      0.00 
   -7   16    4      0.32      0.00 
   -7   16    3      1.82      0.00 
   -7   16    2      0.80      0.00 
   -7   16    1      0.36      0.00 
    7   16    0     -1.09      0.00 
    7   16    1      3.49      0.00 
    7   16    2      0.14      0.00 
    7   16    3     -0.62      0.00 
    7   16    4      0.34      0.00 
    7   16    5      0.75      0.00 
   -7   17    6      0.60      0.00 
   -7   17    5     -0.55      0.00 
   -7   17    4      1.45      0.00 
   -7   17    3      1.32      0.00 
   -7   17    2      0.56      0.00 
   -7   17    1      1.20      0.00 
    7   17    0      2.26      0.00 
    7   17    1     -1.41      0.00 
    7   17    2     -1.03      0.00 
    7   17    3      0.01      0.00 
    7   17    4      0.74      0.00 
   -7   18    5     -0.45      0.00 
   -7   18    4      0.28      0.00 
   -7   18    3      1.89      0.00 
   -7   18    2      1.61      0.00 
   -7   18    1      0.48      0.00 
    7   18    0     -1.47      0.00 
    7   18    1      2.14      0.00 
    7   18    2      0.02      0.00 
    7   18    3      0.23      0.00 
    7   18    4      0.14      0.00 
   -7   19    5     -0.41      0.00 
   -7   19    4      1.36      0.00 
   -7   19    3      1.57      0.00 
   -7   19    2      0.59      0.00 
   -7   19    1      1.12      0.00 
    7   19    0      1.02      0.00 
    7   19    1     -1.50      0.00 
    7   19    2     -0.58      0.00 
    7   19    3      0.09      0.00 
   -7   20    4      0.03      0.00 
   -7   20    3      1.45      0.00 
   -7   20    2      1.64      0.00 
   -7   20    1      0.65      0.00 
    7   20    0     -1.06      0.00 
    7   20    1      0.79      0.00 
    7   20    2      0.27      0.00 
    7   20    3      0.79      0.00 
   -7   21    4      0.95      0.00 
   -7   21    3      0.90      0.00 
   -7   21    2      0.35      0.00 
   -7   21    1      0.79      0.00 
    7   21    0     -0.02      0.00 
    7   21    1     -1.21      0.00 
    7   21    2     -0.31      0.00 
   -7   22    3      0.72      0.00 
   -7   22    2      1.10      0.00 
   -7   22    1      0.80      0.00 
    7   22    0     -0.30      0.00 
    7   22    1      0.22      0.00 
   -7   23    2      0.05      0.00 
   -7   23    1      0.30      0.00 
    7   23    0     -0.31      0.00 
   -8    0    8     -0.68      0.00 
   -8    0    6     -1.06      0.00 
   -8    0    4      2.85      0.00 
   -8    0    2      4.94      0.00 
    8    0    0     -4.71      0.00 
    8    0    2      2.99      0.00 
    8    0    4     -1.65      0.00 
    8    0    6      0.57      0.00 
   -8    1    8      0.14      0.00 
   -8    1    7      0.02      0.00 
   -8    1    6     -0.57      0.00 
   -8    1    5     -2.39      0.00 
   -8    1    4     -0.46      0.00 
   -8    1    3      5.19      0.00 
   -8    1    2     -0.38      0.00 
   -8    1    1     -2.08      0.00 
    8    1    0     -1.82      0.00 
    8    1    1      1.05      0.00 
    8    1    2     -0.53      0.00 
    8    1    3     -2.78      0.00 
    8    1    4      0.19      0.00 
    8    1    5      0.63      0.00 
    8    1    6      0.39      0.00 
   -8    2    8     -0.76      0.00 
   -8    2    7     -0.61      0.00 
   -8    2    6     -0.84      0.00 
   -8    2    5     -1.47      0.00 
   -8    2    4      2.75      0.00 
   -8    2    3     -0.72      0.00 
   -8    2    2      4.24      0.00 
   -8    2    1      0.79      0.00 
    8    2    0     -4.28      0.00 
    8    2    1     -2.56      0.00 
    8    2    2      2.98      0.00 
    8    2    3      1.69      0.00 
    8    2    4     -1.48      0.00 
    8    2    5      0.83      0.00 
    8    2    6      0.39      0.00 
   -8    3    8      0.63      0.00 
   -8    3    7      0.04      0.00 
   -8    3    6     -1.50      0.00 
   -8    3    5     -1.92      0.00 
   -8    3    4     -1.09      0.00 
   -8    3    3      3.76      0.00 
   -8    3    2     -1.14      0.00 
   -8    3    1     -1.57      0.00 
    8    3    0     -4.61      0.00 
    8    3    1      1.40      0.00 
    8    3    2     -1.11      0.00 
    8    3    3     -1.91      0.00 
    8    3    4      0.50      0.00 
    8    3    5     -0.15      0.00 
    8    3    6      0.92      0.00 
   -8    4    8     -0.86      0.00 
   -8    4    7     -0.52      0.00 
   -8    4    6     -0.36      0.00 
   -8    4    5     -2.10      0.00 
   -8    4    4      2.31      0.00 
   -8    4    3     -1.18      0.00 
   -8    4    2      2.40      0.00 
   -8    4    1      1.17      0.00 
    8    4    0     -3.28      0.00 
    8    4    1     -4.00      0.00 
    8    4    2      2.92      0.00 
    8    4    3      2.80      0.00 
    8    4    4     -1.04      0.00 
    8    4    5      0.92      0.00 
    8    4    6      0.04      0.00 
   -8    5    8      1.29      0.00 
   -8    5    7      0.07      0.00 
   -8    5    6     -1.96      0.00 
   -8    5    5     -1.08      0.00 
   -8    5    4     -1.04      0.00 
   -8    5    3      1.66      0.00 
   -8    5    2     -1.83      0.00 
   -8    5    1     -0.95      0.00 
    8    5    0     -5.49      0.00 
    8    5    1      1.79      0.00 
    8    5    2     -0.79      0.00 
    8    5    3     -0.57      0.00 
    8    5    4      0.60      0.00 
    8    5    5     -1.03      0.00 
    8    5    6      0.89      0.00 
   -8    6    8     -0.80      0.00 
   -8    6    7      0.09      0.00 
   -8    6    6      0.05      0.00 
   -8    6    5     -1.66      0.00 
   -8    6    4      1.38      0.00 
   -8    6    3     -1.25      0.00 
   -8    6    2      0.19      0.00 
   -8    6    1      1.04      0.00 
    8    6    0     -2.20      0.00 
    8    6    1     -3.88      0.00 
    8    6    2      2.77      0.00 
    8    6    3      2.98      0.00 
    8    6    4     -0.48      0.00 
    8    6    5      0.20      0.00 
    8    6    6     -0.15      0.00 
   -8    7    8      1.52      0.00 
   -8    7    7      0.13      0.00 
   -8    7    6     -1.92      0.00 
   -8    7    5     -0.06      0.00 
   -8    7    4     -0.30      0.00 
   -8    7    3     -0.19      0.00 
   -8    7    2     -2.29      0.00 
   -8    7    1     -0.44      0.00 
    8    7    0     -4.45      0.00 
    8    7    1      1.88      0.00 
    8    7    2     -0.18      0.00 
    8    7    3      0.68      0.00 
    8    7    4      0.47      0.00 
    8    7    5     -1.37      0.00 
    8    7    6      0.45      0.00 
   -8    8    8     -0.56      0.00 
   -8    8    7      0.47      0.00 
   -8    8    6      0.32      0.00 
   -8    8    5     -0.67      0.00 
   -8    8    4      0.17      0.00 
   -8    8    3     -0.96      0.00 
   -8    8    2     -1.40      0.00 
   -8    8    1      0.62      0.00 
    8    8    0     -1.24      0.00 
    8    8    1     -2.48      0.00 
    8    8    2      2.49      0.00 
    8    8    3      2.25      0.00 
    8    8    4      0.03      0.00 
    8    8    5     -0.67      0.00 
    8    8    6     -0.06      0.00 
   -8    9    7      0.22      0.00 
   -8    9    6     -1.45      0.00 
   -8    9    5      0.81      0.00 
   -8    9    4      0.69      0.00 
   -8    9    3     -1.23      0.00 
   -8    9    2     -2.28      0.00 
   -8    9    1      0.03      0.00 
    8    9    0     -2.21      0.00 
    8    9    1      1.55      0.00 
    8    9    2     -0.19      0.00 
    8    9    3      1.34      0.00 
    8    9    4      0.26      0.00 
    8    9    5     -1.15      0.00 
    8    9    6     -0.03      0.00 
   -8   10    7      0.32      0.00 
   -8   10    6      0.56      0.00 
   -8   10    5      0.07      0.00 
   -8   10    4     -0.72      0.00 
   -8   10    3     -0.44      0.00 
   -8   10    2     -1.76      0.00 
   -8   10    1      0.16      0.00 
    8   10    0     -0.50      0.00 
    8   10    1     -0.45      0.00 
    8   10    2      2.04      0.00 
    8   10    3      1.08      0.00 
    8   10    4      0.35      0.00 
    8   10    5     -0.93      0.00 
    8   10    6      0.10      0.00 
   -8   11    7      0.26      0.00 
   -8   11    6     -0.73      0.00 
   -8   11    5      1.18      0.00 
   -8   11    4      1.37      0.00 
   -8   11    3     -1.32      0.00 
   -8   11    2     -1.74      0.00 
   -8   11    1      0.52      0.00 
    8   11    0      0.35      0.00 
    8   11    1      0.89      0.00 
    8   11    2     -0.96      0.00 
    8   11    3      1.24      0.00 
    8   11    4      0.25      0.00 
    8   11    5     -0.78      0.00 
   -8   12    7      0.01      0.00 
   -8   12    6      0.64      0.00 
   -8   12    5      0.12      0.00 
   -8   12    4     -0.77      0.00 
   -8   12    3      0.16      0.00 
   -8   12    2     -1.02      0.00 
   -8   12    1     -0.22      0.00 
    8   12    0     -0.24      0.00 
    8   12    1      1.51      0.00 
    8   12    2      1.36      0.00 
    8   12    3      0.15      0.00 
    8   12    4      0.38      0.00 
    8   12    5     -0.42      0.00 
   -8   13    7      0.13      0.00 
   -8   13    6     -0.02      0.00 
   -8   13    5      0.94      0.00 
   -8   13    4      1.54      0.00 
   -8   13    3     -0.59      0.00 
   -8   13    2     -0.94      0.00 
   -8   13    1      0.81      0.00 
    8   13    0      2.39      0.00 
    8   13    1      0.11      0.00 
    8   13    2     -1.76      0.00 
    8   13    3      0.64      0.00 
    8   13    4      0.50      0.00 
    8   13    5     -0.54      0.00 
   -8   14    6      0.37      0.00 
   -8   14    5     -0.23      0.00 
   -8   14    4     -0.10      0.00 
   -8   14    3      0.73      0.00 
   -8   14    2      0.08      0.00 
   -8   14    1     -0.51      0.00 
    8   14    0     -0.66      0.00 
    8   14    1      2.64      0.00 
    8   14    2      0.54      0.00 
    8   14    3     -0.12      0.00 
    8   14    4      0.19      0.00 
    8   14    5      0.31      0.00 
   -8   15    6      0.41      0.00 
   -8   15    5      0.36      0.00 
   -8   15    4      1.45      0.00 
   -8   15    3      0.54      0.00 
   -8   15    2     -0.33      0.00 
   -8   15    1      0.76      0.00 
    8   15    0      3.14      0.00 
    8   15    1     -0.53      0.00 
    8   15    2     -1.82      0.00 
    8   15    3      0.04      0.00 
    8   15    4      0.75      0.00 
   -8   16    6     -0.16      0.00 
   -8   16    5     -0.39      0.00 
   -8   16    4      0.59      0.00 
   -8   16    3      1.13      0.00 
   -8   16    2      0.85      0.00 
   -8   16    1     -0.60      0.00 
    8   16    0     -1.36      0.00 
    8   16    1      2.53      0.00 
    8   16    2     -0.10      0.00 
    8   16    3      0.22      0.00 
    8   16    4      0.01      0.00 
   -8   17    6      0.48      0.00 
   -8   17    5     -0.08      0.00 
   -8   17    4      1.39      0.00 
   -8   17    3      1.41      0.00 
   -8   17    2     -0.12      0.00 
   -8   17    1      0.56      0.00 
    8   17    0      2.45      0.00 
    8   17    1     -0.86      0.00 
    8   17    2     -1.12      0.00 
    8   17    3     -0.12      0.00 
    8   17    4      0.69      0.00 
   -8   18    5     -0.17      0.00 
   -8   18    4      0.68      0.00 
   -8   18    3      1.22      0.00 
   -8   18    2      1.08      0.00 
   -8   18    1     -0.40      0.00 
    8   18    0     -1.57      0.00 
    8   18    1      1.53      0.00 
    8   18    2     -0.27      0.00 
    8   18    3      0.65      0.00 
   -8   19    5     -0.15      0.00 
   -8   19    4      1.30      0.00 
   -8   19    3      1.52      0.00 
   -8   19    2     -0.13      0.00 
   -8   19    1      0.42      0.00 
    8   19    0      1.01      0.00 
    8   19    1     -0.85      0.00 
    8   19    2     -0.25      0.00 
    8   19    3      0.09      0.00 
   -8   20    4      0.19      0.00 
   -8   20    3      0.95      0.00 
   -8   20    2      0.92      0.00 
   -8   20    1      0.02      0.00 
    8   20    0     -0.99      0.00 
    8   20    1      0.50      0.00 
    8   20    2      0.03      0.00 
   -8   21    3      0.92      0.00 
   -8   21    2     -0.14      0.00 
   -8   21    1      0.28      0.00 
    8   21    0     -0.06      0.00 
    8   21    1     -0.62      0.00 
    8   21    2      0.24      0.00 
   -8   22    2      0.61      0.00 
   -8   22    1      0.35      0.00 
    8   22    0     -0.14      0.00 
    8   22    1      0.06      0.00 
   -9    0    8     -1.23      0.00 
   -9    0    6     -1.78      0.00 
   -9    0    4      3.53      0.00 
   -9    0    2      2.61      0.00 
    9    0    0     -2.74      0.00 
    9    0    2      1.13      0.00 
    9    0    4     -0.76      0.00 
    9    0    6      0.03      0.00 
   -9    1    8      0.13      0.00 
   -9    1    7      0.25      0.00 
   -9    1    6     -0.64      0.00 
   -9    1    5     -1.76      0.00 
   -9    1    4     -0.32      0.00 
   -9    1    3      4.48      0.00 
   -9    1    2     -0.06      0.00 
   -9    1    1     -3.54      0.00 
    9    1    0     -1.62      0.00 
    9    1    1      2.91      0.00 
    9    1    2      0.01      0.00 
    9    1    3     -3.01      0.00 
    9    1    4      0.08      0.00 
    9    1    5      0.89      0.00 
    9    1    6      0.18      0.00 
   -9    2    8     -1.11      0.00 
   -9    2    7     -0.76      0.00 
   -9    2    6     -1.42      0.00 
   -9    2    5     -1.07      0.00 
   -9    2    4      3.29      0.00 
   -9    2    3     -0.58      0.00 
   -9    2    2      2.22      0.00 
   -9    2    1      1.13      0.00 
    9    2    0     -2.44      0.00 
    9    2    1     -1.66      0.00 
    9    2    2      1.13      0.00 
    9    2    3      1.71      0.00 
    9    2    4     -0.80      0.00 
    9    2    5      1.15      0.00 
    9    2    6     -0.04      0.00 
   -9    3    8      0.62      0.00 
   -9    3    7      0.20      0.00 
   -9    3    6     -1.76      0.00 
   -9    3    5     -1.30      0.00 
   -9    3    4     -0.78      0.00 
   -9    3    3      3.08      0.00 
   -9    3    2     -0.38      0.00 
   -9    3    1     -2.76      0.00 
    9    3    0     -4.17      0.00 
    9    3    1      2.89      0.00 
    9    3    2      0.27      0.00 
    9    3    3     -2.21      0.00 
    9    3    4      0.18      0.00 
    9    3    5      0.09      0.00 
    9    3    6      0.38      0.00 
   -9    4    8     -0.81      0.00 
   -9    4    7     -1.09      0.00 
   -9    4    6     -0.61      0.00 
   -9    4    5     -1.59      0.00 
   -9    4    4      2.55      0.00 
   -9    4    3     -1.05      0.00 
   -9    4    2      1.12      0.00 
   -9    4    1      1.67      0.00 
    9    4    0     -1.77      0.00 
    9    4    1     -2.57      0.00 
    9    4    2      1.17      0.00 
    9    4    3      2.67      0.00 
    9    4    4     -0.80      0.00 
    9    4    5      1.42      0.00 
    9    4    6     -0.15      0.00 
   -9    5    8      1.31      0.00 
   -9    5    7      0.07      0.00 
   -9    5    6     -2.45      0.00 
   -9    5    5     -0.56      0.00 
   -9    5    4     -0.75      0.00 
   -9    5    3      1.12      0.00 
   -9    5    2     -0.99      0.00 
   -9    5    1     -1.67      0.00 
    9    5    0     -5.06      0.00 
    9    5    1      2.76      0.00 
    9    5    2      0.89      0.00 
    9    5    3     -0.88      0.00 
    9    5    4      0.15      0.00 
    9    5    5     -0.74      0.00 
    9    5    6      0.29      0.00 
   -9    6    8     -0.49      0.00 
   -9    6    7     -1.00      0.00 
   -9    6    6      0.14      0.00 
   -9    6    5     -1.28      0.00 
   -9    6    4      1.37      0.00 
   -9    6    3     -1.25      0.00 
   -9    6    2     -0.28      0.00 
   -9    6    1      1.53      0.00 
    9    6    0     -1.16      0.00 
    9    6    1     -2.45      0.00 
    9    6    2      1.34      0.00 
    9    6    3      2.61      0.00 
    9    6    4     -0.61      0.00 
    9    6    5      0.71      0.00 
    9    6    6     -0.15      0.00 
   -9    7    8      1.60      0.00 
   -9    7    7     -0.05      0.00 
   -9    7    6     -2.47      0.00 
   -9    7    5      0.15      0.00 
   -9    7    4     -0.15      0.00 
   -9    7    3     -0.42      0.00 
   -9    7    2     -1.61      0.00 
   -9    7    1     -0.69      0.00 
    9    7    0     -4.21      0.00 
    9    7    1      2.43      0.00 
    9    7    2      1.34      0.00 
    9    7    3      0.46      0.00 
    9    7    4      0.03      0.00 
    9    7    5     -0.97      0.00 
    9    7    6      0.05      0.00 
   -9    8    7     -0.78      0.00 
   -9    8    6      0.63      0.00 
   -9    8    5     -0.36      0.00 
   -9    8    4      0.08      0.00 
   -9    8    3     -1.12      0.00 
   -9    8    2     -1.24      0.00 
   -9    8    1      1.00      0.00 
    9    8    0     -0.79      0.00 
    9    8    1     -1.57      0.00 
    9    8    2      1.56      0.00 
    9    8    3      1.81      0.00 
    9    8    4     -0.29      0.00 
    9    8    5     -0.28      0.00 
   -9    9    7      0.01      0.00 
   -9    9    6     -1.84      0.00 
   -9    9    5      0.57      0.00 
   -9    9    4      0.70      0.00 
   -9    9    3     -1.02      0.00 
   -9    9    2     -1.79      0.00 
   -9    9    1      0.08      0.00 
    9    9    0     -2.15      0.00 
    9    9    1      1.86      0.00 
    9    9    2      0.98      0.00 
    9    9    3      1.22      0.00 
    9    9    4     -0.01      0.00 
    9    9    5     -0.69      0.00 
   -9   10    7     -0.60      0.00 
   -9   10    6      0.96      0.00 
   -9   10    5      0.48      0.00 
   -9   10    4     -0.73      0.00 
   -9   10    3     -0.71      0.00 
   -9   10    2     -1.18      0.00 
   -9   10    1      0.34      0.00 
    9   10    0     -0.62      0.00 
    9   10    1     -0.33      0.00 
    9   10    2      1.58      0.00 
    9   10    3      0.92      0.00 
    9   10    4     -0.06      0.00 
    9   10    5     -0.74      0.00 
   -9   11    7      0.19      0.00 
   -9   11    6     -0.95      0.00 
   -9   11    5      0.63      0.00 
   -9   11    4      1.28      0.00 
   -9   11    3     -0.77      0.00 
   -9   11    2     -1.45      0.00 
   -9   11    1      0.56      0.00 
    9   11    0      0.33      0.00 
    9   11    1      1.12      0.00 
    9   11    2     -0.13      0.00 
    9   11    3      1.13      0.00 
    9   11    4      0.17      0.00 
    9   11    5     -0.40      0.00 
   -9   12    7     -0.41      0.00 
   -9   12    6      1.11      0.00 
   -9   12    5      0.67      0.00 
   -9   12    4     -0.63      0.00 
   -9   12    3     -0.22      0.00 
   -9   12    2     -0.32      0.00 
   -9   12    1     -0.40      0.00 
    9   12    0     -0.68      0.00 
    9   12    1      0.88      0.00 
    9   12    2      1.15      0.00 
    9   12    3      0.46      0.00 
    9   12    4     -0.08      0.00 
    9   12    5     -0.49      0.00 
   -9   13    7      0.25      0.00 
   -9   13    6     -0.24      0.00 
   -9   13    5      0.43      0.00 
   -9   13    4      1.34      0.00 
   -9   13    3     -0.08      0.00 
   -9   13    2     -0.94      0.00 
   -9   13    1      0.62      0.00 
    9   13    0      2.30      0.00 
    9   13    1      0.37      0.00 
    9   13    2     -1.19      0.00 
    9   13    3      0.45      0.00 
    9   13    4      0.47      0.00 
    9   13    5     -0.33      0.00 
   -9   14    6      0.96      0.00 
   -9   14    5      0.32      0.00 
   -9   14    4      0.20      0.00 
   -9   14    3      0.15      0.00 
   -9   14    2      0.55      0.00 
   -9   14    1     -1.03      0.00 
    9   14    0     -1.02      0.00 
    9   14    1      1.65      0.00 
    9   14    2      0.38      0.00 
    9   14    3      0.51      0.00 
    9   14    4     -0.22      0.00 
   -9   15    6      0.09      0.00 
   -9   15    5      0.21      0.00 
   -9   15    4      1.11      0.00 
   -9   15    3      0.62      0.00 
   -9   15    2     -0.71      0.00 
   -9   15    1      0.33      0.00 
    9   15    0      2.93      0.00 
    9   15    1     -0.19      0.00 
    9   15    2     -1.41      0.00 
    9   15    3     -0.13      0.00 
    9   15    4      0.64      0.00 
   -9   16    6      0.51      0.00 
   -9   16    5      0.04      0.00 
   -9   16    4      1.02      0.00 
   -9   16    3      0.34      0.00 
   -9   16    2      0.82      0.00 
   -9   16    1     -1.24      0.00 
    9   16    0     -1.37      0.00 
    9   16    1      1.69      0.00 
    9   16    2     -0.31      0.00 
    9   16    3      0.74      0.00 
    9   16    4     -0.23      0.00 
   -9   17    5      0.08      0.00 
   -9   17    4      0.92      0.00 
   -9   17    3      1.04      0.00 
   -9   17    2     -0.77      0.00 
   -9   17    1      0.06      0.00 
    9   17    0      2.12      0.00 
    9   17    1     -0.46      0.00 
    9   17    2     -0.78      0.00 
    9   17    3     -0.17      0.00 
   -9   18    5      0.15      0.00 
   -9   18    4      1.14      0.00 
   -9   18    3      0.38      0.00 
   -9   18    2      0.60      0.00 
   -9   18    1     -0.89      0.00 
    9   18    0     -1.29      0.00 
    9   18    1      1.11      0.00 
    9   18    2     -0.49      0.00 
    9   18    3      0.76      0.00 
   -9   19    4      0.82      0.00 
   -9   19    3      1.04      0.00 
   -9   19    2     -0.80      0.00 
   -9   19    1      0.08      0.00 
    9   19    0      0.68      0.00 
    9   19    1     -0.44      0.00 
    9   19    2      0.05      0.00 
   -9   20    4      0.52      0.00 
   -9   20    3      0.28      0.00 
   -9   20    2      0.32      0.00 
   -9   20    1     -0.28      0.00 
    9   20    0     -0.66      0.00 
    9   20    1      0.44      0.00 
    9   20    2     -0.18      0.00 
   -9   21    3      0.69      0.00 
   -9   21    2     -0.60      0.00 
   -9   21    1      0.17      0.00 
    9   21    0     -0.28      0.00 
    9   21    1     -0.25      0.00 
   -9   22    1      0.10      0.00 
  -10    0    8     -1.30      0.00 
  -10    0    6     -2.23      0.00 
  -10    0    4      3.80      0.00 
  -10    0    2      0.85      0.00 
   10    0    0     -1.00      0.00 
   10    0    2     -0.70      0.00 
   10    0    4      0.05      0.00 
   10    0    6     -0.39      0.00 
  -10    1    8      0.07      0.00 
  -10    1    7      0.31      0.00 
  -10    1    6     -0.63      0.00 
  -10    1    5     -0.95      0.00 
  -10    1    4     -0.28      0.00 
  -10    1    3      3.42      0.00 
  -10    1    2      0.14      0.00 
  -10    1    1     -3.83      0.00 
   10    1    0     -1.33      0.00 
   10    1    1      3.74      0.00 
   10    1    2      0.51      0.00 
   10    1    3     -2.76      0.00 
   10    1    4      0.10      0.00 
   10    1    5      0.54      0.00 
   10    1    6     -0.02      0.00 
  -10    2    8     -1.08      0.00 
  -10    2    7     -0.60      0.00 
  -10    2    6     -1.75      0.00 
  -10    2    5     -0.54      0.00 
  -10    2    4      3.36      0.00 
  -10    2    3     -0.33      0.00 
  -10    2    2      0.72      0.00 
  -10    2    1      1.33      0.00 
   10    2    0     -0.84      0.00 
   10    2    1     -0.76      0.00 
   10    2    2     -0.58      0.00 
   10    2    3      1.29      0.00 
   10    2    4     -0.15      0.00 
   10    2    5      1.16      0.00 
   10    2    6     -0.38      0.00 
  -10    3    8      0.39      0.00 
  -10    3    7      0.23      0.00 
  -10    3    6     -1.80      0.00 
  -10    3    5     -0.67      0.00 
  -10    3    4     -0.67      0.00 
  -10    3    3      2.19      0.00 
  -10    3    2      0.11      0.00 
  -10    3    1     -3.07      0.00 
   10    3    0     -3.47      0.00 
   10    3    1      3.32      0.00 
   10    3    2      1.47      0.00 
   10    3    3     -2.11      0.00 
   10    3    4      0.19      0.00 
   10    3    5     -0.07      0.00 
  -10    4    8     -0.60      0.00 
  -10    4    7     -1.18      0.00 
  -10    4    6     -0.66      0.00 
  -10    4    5     -0.86      0.00 
  -10    4    4      2.24      0.00 
  -10    4    3     -0.67      0.00 
  -10    4    2      0.26      0.00 
  -10    4    1      2.02      0.00 
   10    4    0     -0.56      0.00 
   10    4    1     -1.17      0.00 
   10    4    2     -0.18      0.00 
   10    4    3      1.89      0.00 
   10    4    4     -0.50      0.00 
   10    4    5      1.47      0.00 
  -10    5    8      0.88      0.00 
  -10    5    7      0.03      0.00 
  -10    5    6     -2.56      0.00 
  -10    5    5     -0.22      0.00 
  -10    5    4     -0.59      0.00 
  -10    5    3      0.48      0.00 
  -10    5    2     -0.49      0.00 
  -10    5    1     -1.96      0.00 
   10    5    0     -4.29      0.00 
   10    5    1      2.75      0.00 
   10    5    2      2.16      0.00 
   10    5    3     -0.93      0.00 
   10    5    4      0.07      0.00 
   10    5    5     -0.65      0.00 
  -10    6    7     -1.57      0.00 
  -10    6    6      0.38      0.00 
  -10    6    5     -0.66      0.00 
  -10    6    4      0.89      0.00 
  -10    6    3     -0.89      0.00 
  -10    6    2     -0.42      0.00 
  -10    6    1      1.95      0.00 
   10    6    0     -0.49      0.00 
   10    6    1     -1.12      0.00 
   10    6    2      0.47      0.00 
   10    6    3      1.62      0.00 
   10    6    4     -0.58      0.00 
   10    6    5      0.83      0.00 
  -10    7    7     -0.16      0.00 
  -10    7    6     -2.55      0.00 
  -10    7    5      0.16      0.00 
  -10    7    4     -0.02      0.00 
  -10    7    3     -0.75      0.00 
  -10    7    2     -1.23      0.00 
  -10    7    1     -0.93      0.00 
   10    7    0     -3.63      0.00 
   10    7    1      2.25      0.00 
   10    7    2      2.29      0.00 
   10    7    3      0.36      0.00 
   10    7    4     -0.11      0.00 
   10    7    5     -0.68      0.00 
  -10    8    7     -1.57      0.00 
  -10    8    6      0.97      0.00 
  -10    8    5      0.13      0.00 
  -10    8    4     -0.18      0.00 
  -10    8    3     -0.82      0.00 
  -10    8    2     -0.84      0.00 
  -10    8    1      1.39      0.00 
   10    8    0     -0.72      0.00 
   10    8    1     -0.76      0.00 
   10    8    2      1.11      0.00 
   10    8    3      0.90      0.00 
   10    8    4     -0.35      0.00 
   10    8    5     -0.09      0.00 
  -10    9    7     -0.12      0.00 
  -10    9    6     -1.78      0.00 
  -10    9    5      0.26      0.00 
  -10    9    4      0.67      0.00 
  -10    9    3     -1.02      0.00 
  -10    9    2     -1.49      0.00 
  -10    9    1     -0.20      0.00 
   10    9    0     -1.85      0.00 
   10    9    1      1.83      0.00 
   10    9    2      1.67      0.00 
   10    9    3      1.13      0.00 
   10    9    4     -0.16      0.00 
   10    9    5     -0.34      0.00 
  -10   10    7     -1.16      0.00 
  -10   10    6      1.19      0.00 
  -10   10    5      1.00      0.00 
  -10   10    4     -0.56      0.00 
  -10   10    3     -0.49      0.00 
  -10   10    2     -0.54      0.00 
  -10   10    1      0.57      0.00 
   10   10    0     -1.03      0.00 
   10   10    1     -0.23      0.00 
   10   10    2      1.34      0.00 
   10   10    3      0.35      0.00 
   10   10    4     -0.14      0.00 
   10   10    5     -0.59      0.00 
  -10   11    7      0.16      0.00 
  -10   11    6     -0.82      0.00 
  -10   11    5      0.09      0.00 
  -10   11    4      1.02      0.00 
  -10   11    3     -0.55      0.00 
  -10   11    2     -1.21      0.00 
  -10   11    1      0.13      0.00 
   10   11    0      0.33      0.00 
   10   11    1      1.37      0.00 
   10   11    2      0.55      0.00 
   10   11    3      1.00      0.00 
   10   11    4      0.02      0.00 
  -10   12    6      1.21      0.00 
  -10   12    5      1.32      0.00 
  -10   12    4     -0.16      0.00 
  -10   12    3     -0.19      0.00 
  -10   12    2      0.26      0.00 
  -10   12    1     -0.39      0.00 
   10   12    0     -1.23      0.00 
   10   12    1      0.37      0.00 
   10   12    2      0.93      0.00 
   10   12    3      0.28      0.00 
   10   12    4     -0.18      0.00 
  -10   13    6     -0.25      0.00 
  -10   13    5     -0.09      0.00 
  -10   13    4      0.83      0.00 
  -10   13    3      0.06      0.00 
  -10   13    2     -0.86      0.00 
  -10   13    1      0.03      0.00 
   10   13    0      2.01      0.00 
   10   13    1      0.78      0.00 
   10   13    2     -0.42      0.00 
   10   13    3      0.31      0.00 
   10   13    4      0.25      0.00 
  -10   14    6      1.10      0.00 
  -10   14    5      1.00      0.00 
  -10   14    4      0.68      0.00 
  -10   14    3     -0.12      0.00 
  -10   14    2      0.85      0.00 
  -10   14    1     -1.18      0.00 
   10   14    0     -1.29      0.00 
   10   14    1      0.89      0.00 
   10   14    2      0.14      0.00 
   10   14    3      0.54      0.00 
   10   14    4     -0.30      0.00 
  -10   15    6     -0.13      0.00 
  -10   15    5     -0.07      0.00 
  -10   15    4      0.41      0.00 
  -10   15    3      0.39      0.00 
  -10   15    2     -0.87      0.00 
  -10   15    1     -0.25      0.00 
   10   15    0      2.46      0.00 
   10   15    1      0.19      0.00 
   10   15    2     -0.71      0.00 
   10   15    3     -0.22      0.00 
  -10   16    5      0.56      0.00 
  -10   16    4      1.34      0.00 
  -10   16    3     -0.25      0.00 
  -10   16    2      0.78      0.00 
  -10   16    1     -1.36      0.00 
   10   16    0     -1.19      0.00 
   10   16    1      1.11      0.00 
   10   16    2     -0.47      0.00 
   10   16    3      0.74      0.00 
  -10   17    5      0.09      0.00 
  -10   17    4      0.14      0.00 
  -10   17    3      0.43      0.00 
  -10   17    2     -1.10      0.00 
  -10   17    1     -0.30      0.00 
   10   17    0      1.65      0.00 
   10   17    1     -0.20      0.00 
   10   17    2     -0.34      0.00 
   10   17    3     -0.16      0.00 
  -10   18    4      1.35      0.00 
  -10   18    3     -0.34      0.00 
  -10   18    2      0.35      0.00 
  -10   18    1     -0.85      0.00 
   10   18    0     -0.85      0.00 
   10   18    1      0.91      0.00 
   10   18    2     -0.53      0.00 
  -10   19    4      0.13      0.00 
  -10   19    3      0.37      0.00 
  -10   19    2     -1.15      0.00 
  -10   19    1      0.01      0.00 
   10   19    0      0.39      0.00 
   10   19    1     -0.28      0.00 
   10   19    2      0.16      0.00 
  -10   20    3     -0.31      0.00 
  -10   20    2      0.02      0.00 
  -10   20    1     -0.17      0.00 
   10   20    0     -0.31      0.00 
   10   20    1      0.49      0.00 
  -10   21    1      0.31      0.00 
  -11    0    6     -1.96      0.00 
  -11    0    4      3.61      0.00 
  -11    0    2     -0.09      0.00 
   11    0    0      0.62      0.00 
   11    0    2     -1.90      0.00 
   11    0    4      0.70      0.00 
  -11    1    7      0.04      0.00 
  -11    1    6     -0.55      0.00 
  -11    1    5     -0.10      0.00 
  -11    1    4     -0.29      0.00 
  -11    1    3      2.32      0.00 
  -11    1    2      0.24      0.00 
  -11    1    1     -3.20      0.00 
   11    1    0     -0.90      0.00 
   11    1    1      3.43      0.00 
   11    1    2      0.79      0.00 
   11    1    3     -2.26      0.00 
   11    1    4      0.19      0.00 
   11    1    5     -0.05      0.00 
  -11    2    7     -0.22      0.00 
  -11    2    6     -1.51      0.00 
  -11    2    5     -0.16      0.00 
  -11    2    4      3.03      0.00 
  -11    2    3     -0.05      0.00 
  -11    2    2     -0.09      0.00 
  -11    2    1      1.57      0.00 
   11    2    0      0.61      0.00 
   11    2    1      0.16      0.00 
   11    2    2     -1.59      0.00 
   11    2    3      0.68      0.00 
   11    2    4      0.41      0.00 
   11    2    5      0.87      0.00 
  -11    3    7      0.06      0.00 
  -11    3    6     -1.60      0.00 
  -11    3    5     -0.18      0.00 
  -11    3    4     -0.63      0.00 
  -11    3    3      1.39      0.00 
  -11    3    2      0.34      0.00 
  -11    3    1     -2.74      0.00 
   11    3    0     -2.42      0.00 
   11    3    1      2.89      0.00 
   11    3    2      2.07      0.00 
   11    3    3     -1.86      0.00 
   11    3    4      0.38      0.00 
   11    3    5     -0.37      0.00 
  -11    4    7     -0.79      0.00 
  -11    4    6     -0.46      0.00 
  -11    4    5     -0.29      0.00 
  -11    4    4      1.65      0.00 
  -11    4    3     -0.29      0.00 
  -11    4    2     -0.17      0.00 
  -11    4    1      2.47      0.00 
   11    4    0      0.45      0.00 
   11    4    1      0.20      0.00 
   11    4    2     -0.76      0.00 
   11    4    3      0.88      0.00 
   11    4    4     -0.14      0.00 
   11    4    5      1.06      0.00 
  -11    5    7      0.01      0.00 
  -11    5    6     -2.29      0.00 
  -11    5    5     -0.17      0.00 
  -11    5    4     -0.44      0.00 
  -11    5    3      0.08      0.00 
  -11    5    2     -0.29      0.00 
  -11    5    1     -2.06      0.00 
   11    5    0     -3.14      0.00 
   11    5    1      2.25      0.00 
   11    5    2      2.61      0.00 
   11    5    3     -0.97      0.00 
   11    5    4      0.23      0.00 
   11    5    5     -0.61      0.00 
  -11    6    7     -1.48      0.00 
  -11    6    6      0.57      0.00 
  -11    6    5     -0.12      0.00 
  -11    6    4      0.25      0.00 
  -11    6    3     -0.57      0.00 
  -11    6    2     -0.38      0.00 
  -11    6    1      2.53      0.00 
   11    6    0     -0.03      0.00 
   11    6    1      0.10      0.00 
   11    6    2      0.31      0.00 
   11    6    3      0.52      0.00 
   11    6    4     -0.37      0.00 
   11    6    5      0.54      0.00 
  -11    7    7     -0.09      0.00 
  -11    7    6     -2.22      0.00 
  -11    7    5     -0.05      0.00 
  -11    7    4      0.18      0.00 
  -11    7    3     -0.84      0.00 
  -11    7    2     -1.09      0.00 
  -11    7    1     -1.41      0.00 
   11    7    0     -2.78      0.00 
   11    7    1      1.93      0.00 
   11    7    2      2.39      0.00 
   11    7    3      0.18      0.00 
   11    7    4     -0.04      0.00 
   11    7    5     -0.49      0.00 
  -11    8    7     -1.66      0.00 
  -11    8    6      1.10      0.00 
  -11    8    5      0.54      0.00 
  -11    8    4     -0.51      0.00 
  -11    8    3     -0.56      0.00 
  -11    8    2     -0.42      0.00 
  -11    8    1      1.92      0.00 
   11    8    0     -0.74      0.00 
   11    8    1     -0.08      0.00 
   11    8    2      1.14      0.00 
   11    8    3     -0.02      0.00 
   11    8    4     -0.19      0.00 
   11    8    5     -0.13      0.00 
  -11    9    7     -0.06      0.00 
  -11    9    6     -1.39      0.00 
  -11    9    5     -0.01      0.00 
  -11    9    4      0.74      0.00 
  -11    9    3     -0.97      0.00 
  -11    9    2     -1.37      0.00 
  -11    9    1     -0.97      0.00 
   11    9    0     -1.47      0.00 
   11    9    1      1.86      0.00 
   11    9    2      1.65      0.00 
   11    9    3      0.96      0.00 
   11    9    4     -0.15      0.00 
  -11   10    7     -1.16      0.00 
  -11   10    6      1.12      0.00 
  -11   10    5      1.36      0.00 
  -11   10    4     -0.44      0.00 
  -11   10    3     -0.22      0.00 
  -11   10    2     -0.04      0.00 
  -11   10    1      0.89      0.00 
   11   10    0     -1.32      0.00 
   11   10    1     -0.17      0.00 
   11   10    2      1.26      0.00 
   11   10    3     -0.30      0.00 
   11   10    4      0.03      0.00 
  -11   11    6     -0.46      0.00 
  -11   11    5     -0.12      0.00 
  -11   11    4      0.78      0.00 
  -11   11    3     -0.49      0.00 
  -11   11    2     -1.05      0.00 
  -11   11    1     -0.81      0.00 
   11   11    0      0.28      0.00 
   11   11    1      1.69      0.00 
   11   11    2      0.76      0.00 
   11   11    3      0.93      0.00 
   11   11    4     -0.05      0.00 
  -11   12    6      0.92      0.00 
  -11   12    5      1.72      0.00 
  -11   12    4      0.19      0.00 
  -11   12    3      0.07      0.00 
  -11   12    2      0.58      0.00 
  -11   12    1     -0.26      0.00 
   11   12    0     -1.49      0.00 
   11   12    1     -0.03      0.00 
   11   12    2      0.66      0.00 
   11   12    3     -0.18      0.00 
   11   12    4      0.00      0.00 
  -11   13    6     -0.05      0.00 
  -11   13    5     -0.23      0.00 
  -11   13    4      0.28      0.00 
  -11   13    3     -0.01      0.00 
  -11   13    2     -0.69      0.00 
  -11   13    1     -0.88      0.00 
   11   13    0      1.63      0.00 
   11   13    1      1.18      0.00 
   11   13    2      0.08      0.00 
   11   13    3      0.32      0.00 
  -11   14    6      0.78      0.00 
  -11   14    5      1.42      0.00 
  -11   14    4      0.92      0.00 
  -11   14    3     -0.04      0.00 
  -11   14    2      0.89      0.00 
  -11   14    1     -1.07      0.00 
   11   14    0     -1.25      0.00 
   11   14    1      0.33      0.00 
   11   14    2     -0.16      0.00 
   11   14    3      0.14      0.00 
  -11   15    5     -0.11      0.00 
  -11   15    4     -0.34      0.00 
  -11   15    3      0.08      0.00 
  -11   15    2     -0.72      0.00 
  -11   15    1     -0.90      0.00 
   11   15    0      1.97      0.00 
   11   15    1      0.48      0.00 
   11   15    2     -0.17      0.00 
   11   15    3     -0.16      0.00 
  -11   16    5      0.87      0.00 
  -11   16    4      1.29      0.00 
  -11   16    3     -0.43      0.00 
  -11   16    2      0.68      0.00 
  -11   16    1     -1.12      0.00 
   11   16    0     -0.84      0.00 
   11   16    1      0.66      0.00 
   11   16    2     -0.59      0.00 
  -11   17    4     -0.61      0.00 
  -11   17    3     -0.09      0.00 
  -11   17    2     -0.99      0.00 
  -11   17    1     -0.57      0.00 
   11   17    0      1.33      0.00 
   11   17    1     -0.06      0.00 
   11   17    2     -0.05      0.00 
  -11   18    4      1.15      0.00 
  -11   18    3     -0.71      0.00 
  -11   18    2      0.25      0.00 
  -11   18    1     -0.51      0.00 
   11   18    0     -0.46      0.00 
   11   18    1      0.71      0.00 
  -11   19    3     -0.15      0.00 
  -11   19    2     -1.06      0.00 
  -11   19    1      0.04      0.00 
   11   19    0      0.35      0.00 
   11   19    1     -0.23      0.00 
  -11   20    1      0.13      0.00 
  -12    0    6     -1.01      0.00 
  -12    0    4      2.95      0.00 
  -12    0    2      0.02      0.00 
   12    0    0      1.68      0.00 
   12    0    2     -2.18      0.00 
   12    0    4      1.09      0.00 
  -12    1    7     -0.34      0.00 
  -12    1    6     -0.43      0.00 
  -12    1    5      0.56      0.00 
  -12    1    4     -0.26      0.00 
  -12    1    3      1.55      0.00 
  -12    1    2      0.31      0.00 
  -12    1    1     -2.03      0.00 
   12    1    0     -0.30      0.00 
   12    1    1      2.27      0.00 
   12    1    2      0.76      0.00 
   12    1    3     -1.56      0.00 
   12    1    4      0.26      0.00 
   12    1    5     -0.47      0.00 
  -12    2    7      0.19      0.00 
  -12    2    6     -0.77      0.00 
  -12    2    5     -0.12      0.00 
  -12    2    4      2.38      0.00 
  -12    2    3      0.11      0.00 
  -12    2    2     -0.04      0.00 
  -12    2    1      1.71      0.00 
   12    2    0      1.58      0.00 
   12    2    1      0.90      0.00 
   12    2    2     -1.78      0.00 
   12    2    3      0.20      0.00 
   12    2    4      0.79      0.00 
   12    2    5      0.44      0.00 
  -12    3    7     -0.15      0.00 
  -12    3    6     -1.25      0.00 
  -12    3    5      0.11      0.00 
  -12    3    4     -0.52      0.00 
  -12    3    3      0.92      0.00 
  -12    3    2      0.52      0.00 
  -12    3    1     -1.99      0.00 
   12    3    0     -0.96      0.00 
   12    3    1      1.97      0.00 
   12    3    2      1.87      0.00 
   12    3    3     -1.49      0.00 
   12    3    4      0.55      0.00 
  -12    4    7     -0.23      0.00 
  -12    4    6     -0.16      0.00 
  -12    4    5     -0.18      0.00 
  -12    4    4      1.06      0.00 
  -12    4    3     -0.20      0.00 
  -12    4    2     -0.20      0.00 
  -12    4    1      2.82      0.00 
   12    4    0      1.18      0.00 
   12    4    1      1.30      0.00 
   12    4    2     -0.75      0.00 
   12    4    3      0.15      0.00 
   12    4    4      0.21      0.00 
  -12    5    7      0.05      0.00 
  -12    5    6     -1.79      0.00 
  -12    5    5     -0.31      0.00 
  -12    5    4     -0.24      0.00 
  -12    5    3     -0.01      0.00 
  -12    5    2     -0.02      0.00 
  -12    5    1     -1.96      0.00 
   12    5    0     -1.54      0.00 
   12    5    1      1.75      0.00 
   12    5    2      2.12      0.00 
   12    5    3     -1.01      0.00 
   12    5    4      0.38      0.00 
  -12    6    7     -0.98      0.00 
  -12    6    6      0.53      0.00 
  -12    6    5      0.03      0.00 
  -12    6    4     -0.19      0.00 
  -12    6    3     -0.71      0.00 
  -12    6    2     -0.38      0.00 
  -12    6    1      3.04      0.00 
   12    6    0      0.45      0.00 
   12    6    1      1.04      0.00 
   12    6    2      0.49      0.00 
   12    6    3     -0.15      0.00 
   12    6    4     -0.07      0.00 
  -12    7    7      0.12      0.00 
  -12    7    6     -1.67      0.00 
  -12    7    5     -0.35      0.00 
  -12    7    4      0.40      0.00 
  -12    7    3     -0.69      0.00 
  -12    7    2     -0.81      0.00 
  -12    7    1     -1.93      0.00 
   12    7    0     -1.67      0.00 
   12    7    1      1.83      0.00 
   12    7    2      1.67      0.00 
   12    7    3     -0.08      0.00 
   12    7    4      0.05      0.00 
  -12    8    7     -1.25      0.00 
  -12    8    6      0.91      0.00 
  -12    8    5      0.66      0.00 
  -12    8    4     -0.72      0.00 
  -12    8    3     -0.81      0.00 
  -12    8    2     -0.33      0.00 
  -12    8    1      2.40      0.00 
   12    8    0     -0.44      0.00 
   12    8    1      0.42      0.00 
   12    8    2      1.29      0.00 
   12    8    3     -0.48      0.00 
   12    8    4      0.06      0.00 
  -12    9    6     -0.90      0.00 
  -12    9    5     -0.14      0.00 
  -12    9    4      0.85      0.00 
  -12    9    3     -0.78      0.00 
  -12    9    2     -1.11      0.00 
  -12    9    1     -1.91      0.00 
   12    9    0     -1.05      0.00 
   12    9    1      2.01      0.00 
   12    9    2      1.02      0.00 
   12    9    3      0.76      0.00 
   12    9    4     -0.08      0.00 
  -12   10    6      0.85      0.00 
  -12   10    5      1.38      0.00 
  -12   10    4     -0.44      0.00 
  -12   10    3     -0.31      0.00 
  -12   10    2      0.04      0.00 
  -12   10    1      1.16      0.00 
   12   10    0     -1.07      0.00 
   12   10    1     -0.15      0.00 
   12   10    2      1.22      0.00 
   12   10    3     -0.60      0.00 
   12   10    4      0.22      0.00 
  -12   11    6     -0.10      0.00 
  -12   11    5      0.00      0.00 
  -12   11    4      0.68      0.00 
  -12   11    3     -0.40      0.00 
  -12   11    2     -0.82      0.00 
  -12   11    1     -1.89      0.00 
   12   11    0      0.11      0.00 
   12   11    1      1.89      0.00 
   12   11    2      0.49      0.00 
   12   11    3      0.92      0.00 
  -12   12    6      0.53      0.00 
  -12   12    5      1.67      0.00 
  -12   12    4      0.22      0.00 
  -12   12    3      0.26      0.00 
  -12   12    2      0.47      0.00 
  -12   12    1     -0.16      0.00 
   12   12    0     -1.17      0.00 
   12   12    1     -0.34      0.00 
   12   12    2      0.44      0.00 
   12   12    3     -0.49      0.00 
  -12   13    5      0.03      0.00 
  -12   13    4     -0.01      0.00 
  -12   13    3     -0.07      0.00 
  -12   13    2     -0.43      0.00 
  -12   13    1     -1.77      0.00 
   12   13    0      1.14      0.00 
   12   13    1      1.31      0.00 
   12   13    2      0.17      0.00 
   12   13    3      0.48      0.00 
  -12   14    5      1.35      0.00 
  -12   14    4      0.74      0.00 
  -12   14    3      0.27      0.00 
  -12   14    2      0.60      0.00 
  -12   14    1     -0.94      0.00 
   12   14    0     -0.83      0.00 
   12   14    1     -0.14      0.00 
   12   14    2     -0.38      0.00 
  -12   15    5      0.12      0.00 
  -12   15    4     -0.73      0.00 
  -12   15    3     -0.10      0.00 
  -12   15    2     -0.37      0.00 
  -12   15    1     -1.41      0.00 
   12   15    0      1.49      0.00 
   12   15    1      0.53      0.00 
   12   15    2      0.05      0.00 
  -12   16    4      0.86      0.00 
  -12   16    3     -0.24      0.00 
  -12   16    2      0.41      0.00 
  -12   16    1     -0.87      0.00 
   12   16    0     -0.40      0.00 
   12   16    1      0.22      0.00 
   12   16    2     -0.63      0.00 
  -12   17    4     -0.98      0.00 
  -12   17    3     -0.32      0.00 
  -12   17    2     -0.55      0.00 
  -12   17    1     -0.74      0.00 
   12   17    0      1.12      0.00 
   12   17    1     -0.02      0.00 
  -12   18    3     -0.69      0.00 
  -12   18    2      0.17      0.00 
  -12   18    1     -0.24      0.00 
   12   18    0     -0.17      0.00 
  -13    0    6      0.09      0.00 
  -13    0    4      1.99      0.00 
  -13    0    2      0.92      0.00 
   13    0    0      1.81      0.00 
   13    0    2     -1.72      0.00 
   13    0    4      1.09      0.00 
  -13    1    7     -0.48      0.00 
  -13    1    6     -0.30      0.00 
  -13    1    5      0.87      0.00 
  -13    1    4     -0.17      0.00 
  -13    1    3      1.45      0.00 
  -13    1    2      0.39      0.00 
  -13    1    1     -1.05      0.00 
   13    1    0      0.33      0.00 
   13    1    1      0.95      0.00 
   13    1    2      0.50      0.00 
   13    1    3     -0.68      0.00 
   13    1    4      0.26      0.00 
  -13    2    7      0.42      0.00 
  -13    2    6      0.02      0.00 
  -13    2    5     -0.41      0.00 
  -13    2    4      1.58      0.00 
  -13    2    3      0.06      0.00 
  -13    2    2      0.66      0.00 
  -13    2    1      1.49      0.00 
   13    2    0      1.77      0.00 
   13    2    1      1.22      0.00 
   13    2    2     -1.41      0.00 
   13    2    3      0.09      0.00 
   13    2    4      0.86      0.00 
  -13    3    7     -0.22      0.00 
  -13    3    6     -0.88      0.00 
  -13    3    5      0.23      0.00 
  -13    3    4     -0.31      0.00 
  -13    3    3      0.87      0.00 
  -13    3    2      0.82      0.00 
  -13    3    1     -1.25      0.00 
   13    3    0      0.59      0.00 
   13    3    1      1.07      0.00 
   13    3    2      1.15      0.00 
   13    3    3     -0.93      0.00 
   13    3    4      0.54      0.00 
  -13    4    7      0.17      0.00 
  -13    4    6     -0.01      0.00 
  -13    4    5     -0.56      0.00 
  -13    4    4      0.61      0.00 
  -13    4    3     -0.47      0.00 
  -13    4    2      0.05      0.00 
  -13    4    1      2.61      0.00 
   13    4    0      1.55      0.00 
   13    4    1      1.77      0.00 
   13    4    2     -0.56      0.00 
   13    4    3      0.03      0.00 
   13    4    4      0.44      0.00 
  -13    5    7      0.13      0.00 
  -13    5    6     -1.25      0.00 
  -13    5    5     -0.41      0.00 
  -13    5    4     -0.06      0.00 
  -13    5    3      0.04      0.00 
  -13    5    2      0.57      0.00 
  -13    5    1     -1.62      0.00 
   13    5    0      0.17      0.00 
   13    5    1      1.40      0.00 
   13    5    2      1.09      0.00 
   13    5    3     -0.89      0.00 
   13    5    4      0.34      0.00 
  -13    6    6      0.20      0.00 
  -13    6    5     -0.27      0.00 
  -13    6    4     -0.30      0.00 
  -13    6    3     -1.28      0.00 
  -13    6    2     -0.48      0.00 
  -13    6    1      2.99      0.00 
   13    6    0      1.03      0.00 
   13    6    1      1.45      0.00 
   13    6    2      0.51      0.00 
   13    6    3     -0.16      0.00 
   13    6    4      0.20      0.00 
  -13    7    6     -1.12      0.00 
  -13    7    5     -0.50      0.00 
  -13    7    4      0.45      0.00 
  -13    7    3     -0.57      0.00 
  -13    7    2     -0.04      0.00 
  -13    7    1     -2.08      0.00 
   13    7    0     -0.47      0.00 
   13    7    1      1.84      0.00 
   13    7    2      0.60      0.00 
   13    7    3     -0.25      0.00 
  -13    8    6      0.51      0.00 
  -13    8    5      0.40      0.00 
  -13    8    4     -0.66      0.00 
  -13    8    3     -1.50      0.00 
  -13    8    2     -0.59      0.00 
  -13    8    1      2.44      0.00 
   13    8    0      0.31      0.00 
   13    8    1      0.65      0.00 
   13    8    2      1.22      0.00 
   13    8    3     -0.32      0.00 
  -13    9    6     -0.51      0.00 
  -13    9    5     -0.14      0.00 
  -13    9    4      0.81      0.00 
  -13    9    3     -0.63      0.00 
  -13    9    2     -0.44      0.00 
  -13    9    1     -2.44      0.00 
   13    9    0     -0.63      0.00 
   13    9    1      2.06      0.00 
   13    9    2      0.19      0.00 
   13    9    3      0.55      0.00 
  -13   10    6      0.57      0.00 
  -13   10    5      1.06      0.00 
  -13   10    4     -0.45      0.00 
  -13   10    3     -0.79      0.00 
  -13   10    2     -0.32      0.00 
  -13   10    1      1.16      0.00 
   13   10    0     -0.26      0.00 
   13   10    1     -0.13      0.00 
   13   10    2      1.14      0.00 
   13   10    3     -0.38      0.00 
  -13   11    6      0.10      0.00 
  -13   11    5      0.22      0.00 
  -13   11    4      0.68      0.00 
  -13   11    3     -0.30      0.00 
  -13   11    2     -0.41      0.00 
  -13   11    1     -2.52      0.00 
   13   11    0     -0.16      0.00 
   13   11    1      1.78      0.00 
   13   11    2      0.04      0.00 
   13   11    3      0.86      0.00 
  -13   12    5      1.24      0.00 
  -13   12    4      0.01      0.00 
  -13   12    3      0.19      0.00 
  -13   12    2      0.00      0.00 
  -13   12    1     -0.19      0.00 
   13   12    0     -0.40      0.00 
   13   12    1     -0.53      0.00 
   13   12    2      0.41      0.00 
  -13   13    5      0.36      0.00 
  -13   13    4      0.09      0.00 
  -13   13    3     -0.05      0.00 
  -13   13    2     -0.19      0.00 
  -13   13    1     -2.21      0.00 
   13   13    0      0.53      0.00 
   13   13    1      1.06      0.00 
   13   13    2      0.05      0.00 
  -13   14    5      0.90      0.00 
  -13   14    4      0.29      0.00 
  -13   14    3      0.54      0.00 
  -13   14    2      0.10      0.00 
  -13   14    1     -0.91      0.00 
   13   14    0     -0.20      0.00 
   13   14    1     -0.49      0.00 
   13   14    2     -0.34      0.00 
  -13   15    4     -0.57      0.00 
  -13   15    3     -0.12      0.00 
  -13   15    2     -0.06      0.00 
  -13   15    1     -1.56      0.00 
   13   15    0      0.93      0.00 
   13   15    1      0.33      0.00 
  -13   16    3      0.12      0.00 
  -13   16    2      0.04      0.00 
  -13   16    1     -0.77      0.00 
   13   16    0      0.02      0.00 
  -13   17    2     -0.10      0.00 
  -13   17    1     -0.75      0.00 
   13   17    0      0.85      0.00 
  -14    0    6      0.74      0.00 
  -14    0    4      1.05      0.00 
  -14    0    2      1.75      0.00 
   14    0    0      1.25      0.00 
   14    0    2     -0.95      0.00 
  -14    1    6     -0.22      0.00 
  -14    1    5      0.91      0.00 
  -14    1    4     -0.03      0.00 
  -14    1    3      1.95      0.00 
  -14    1    2      0.46      0.00 
  -14    1    1     -0.84      0.00 
   14    1    0      0.74      0.00 
   14    1    1      0.10      0.00 
   14    1    2      0.25      0.00 
   14    1    3      0.23      0.00 
  -14    2    6      0.43      0.00 
  -14    2    5     -0.81      0.00 
  -14    2    4      0.82      0.00 
  -14    2    3     -0.13      0.00 
  -14    2    2      1.33      0.00 
  -14    2    1      0.84      0.00 
   14    2    0      1.35      0.00 
   14    2    1      1.07      0.00 
   14    2    2     -0.86      0.00 
   14    2    3      0.27      0.00 
  -14    3    6     -0.62      0.00 
  -14    3    5      0.31      0.00 
  -14    3    4     -0.06      0.00 
  -14    3    3      1.14      0.00 
  -14    3    2      1.17      0.00 
  -14    3    1     -0.87      0.00 
   14    3    0      1.65      0.00 
   14    3    1      0.47      0.00 
   14    3    2      0.47      0.00 
   14    3    3     -0.21      0.00 
  -14    4    6     -0.11      0.00 
  -14    4    5     -1.15      0.00 
  -14    4    4      0.29      0.00 
  -14    4    3     -0.84      0.00 
  -14    4    2      0.37      0.00 
  -14    4    1      1.66      0.00 
   14    4    0      1.55      0.00 
   14    4    1      1.55      0.00 
   14    4    2     -0.48      0.00 
   14    4    3      0.35      0.00 
  -14    5    6     -0.85      0.00 
  -14    5    5     -0.29      0.00 
  -14    5    4      0.01      0.00 
  -14    5    3      0.03      0.00 
  -14    5    2      1.37      0.00 
  -14    5    1     -1.11      0.00 
   14    5    0      1.40      0.00 
   14    5    1      1.10      0.00 
   14    5    2      0.21      0.00 
   14    5    3     -0.49      0.00 
  -14    6    6     -0.25      0.00 
  -14    6    5     -0.82      0.00 
  -14    6    4     -0.23      0.00 
  -14    6    3     -1.81      0.00 
  -14    6    2     -0.52      0.00 
  -14    6    1      2.11      0.00 
   14    6    0      1.52      0.00 
   14    6    1      1.28      0.00 
   14    6    2      0.21      0.00 
   14    6    3      0.27      0.00 
  -14    7    6     -0.72      0.00 
  -14    7    5     -0.40      0.00 
  -14    7    4      0.21      0.00 
  -14    7    3     -0.69      0.00 
  -14    7    2      1.07      0.00 
  -14    7    1     -1.63      0.00 
   14    7    0      0.45      0.00 
   14    7    1      1.64      0.00 
   14    7    2     -0.21      0.00 
   14    7    3     -0.21      0.00 
  -14    8    6      0.08      0.00 
  -14    8    5     -0.08      0.00 
  -14    8    4     -0.45      0.00 
  -14    8    3     -2.10      0.00 
  -14    8    2     -0.90      0.00 
  -14    8    1      1.80      0.00 
   14    8    0      1.17      0.00 
   14    8    1      0.58      0.00 
   14    8    2      0.87      0.00 
   14    8    3      0.18      0.00 
  -14    9    5     -0.06      0.00 
  -14    9    4      0.48      0.00 
  -14    9    3     -0.70      0.00 
  -14    9    2      0.53      0.00 
  -14    9    1     -2.19      0.00 
   14    9    0     -0.32      0.00 
   14    9    1      1.76      0.00 
   14    9    2     -0.37      0.00 
  -14   10    5      0.58      0.00 
  -14   10    4     -0.36      0.00 
  -14   10    3     -1.30      0.00 
  -14   10    2     -0.78      0.00 
  -14   10    1      0.79      0.00 
   14   10    0      0.71      0.00 
   14   10    1     -0.11      0.00 
   14   10    2      1.02      0.00 
  -14   11    5      0.32      0.00 
  -14   11    4      0.59      0.00 
  -14   11    3     -0.29      0.00 
  -14   11    2      0.10      0.00 
  -14   11    1     -2.38      0.00 
   14   11    0     -0.45      0.00 
   14   11    1      1.33      0.00 
   14   11    2     -0.23      0.00 
  -14   12    5      0.74      0.00 
  -14   12    4     -0.18      0.00 
  -14   12    3     -0.07      0.00 
  -14   12    2     -0.52      0.00 
  -14   12    1     -0.31      0.00 
   14   12    0      0.42      0.00 
   14   12    1     -0.53      0.00 
  -14   13    4      0.39      0.00 
  -14   13    3     -0.01      0.00 
  -14   13    2     -0.05      0.00 
  -14   13    1     -2.02      0.00 
   14   13    0     -0.11      0.00 
   14   13    1      0.60      0.00 
  -14   14    4     -0.10      0.00 
  -14   14    3      0.59      0.00 
  -14   14    2     -0.36      0.00 
  -14   14    1     -0.86      0.00 
   14   14    0      0.34      0.00 
  -14   15    3     -0.07      0.00 
  -14   15    2      0.03      0.00 
  -14   15    1     -1.29      0.00 
   14   15    0      0.28      0.00 
  -15    0    6      0.73      0.00 
  -15    0    4      0.39      0.00 
  -15    0    2      1.70      0.00 
   15    0    0      0.61      0.00 
   15    0    2     -0.29      0.00 
  -15    1    6     -0.19      0.00 
  -15    1    5      0.85      0.00 
  -15    1    4      0.08      0.00 
  -15    1    3      2.52      0.00 
  -15    1    2      0.48      0.00 
  -15    1    1     -1.23      0.00 
   15    1    0      0.79      0.00 
   15    1    1     -0.17      0.00 
   15    1    2      0.15      0.00 
   15    1    3      0.83      0.00 
  -15    2    6      0.34      0.00 
  -15    2    5     -1.05      0.00 
  -15    2    4      0.27      0.00 
  -15    2    3     -0.29      0.00 
  -15    2    2      1.35      0.00 
  -15    2    1      0.02      0.00 
   15    2    0      0.80      0.00 
   15    2    1      0.71      0.00 
   15    2    2     -0.41      0.00 
   15    2    3      0.47      0.00 
  -15    3    6     -0.49      0.00 
  -15    3    5      0.44      0.00 
  -15    3    4      0.12      0.00 
  -15    3    3      1.39      0.00 
  -15    3    2      1.37      0.00 
  -15    3    1     -0.83      0.00 
   15    3    0      1.85      0.00 
   15    3    1      0.15      0.00 
   15    3    2      0.23      0.00 
  -15    4    6     -0.36      0.00 
  -15    4    5     -1.53      0.00 
  -15    4    4      0.00      0.00 
  -15    4    3     -0.98      0.00 
  -15    4    2      0.50      0.00 
  -15    4    1      0.33      0.00 
   15    4    0      1.29      0.00 
   15    4    1      1.00      0.00 
   15    4    2     -0.51      0.00 
  -15    5    6     -0.62      0.00 
  -15    5    5      0.00      0.00 
  -15    5    4     -0.07      0.00 
  -15    5    3     -0.09      0.00 
  -15    5    2      1.95      0.00 
  -15    5    1     -0.55      0.00 
   15    5    0      1.72      0.00 
   15    5    1      0.68      0.00 
   15    5    2     -0.07      0.00 
  -15    6    5     -1.27      0.00 
  -15    6    4     -0.23      0.00 
  -15    6    3     -1.81      0.00 
  -15    6    2     -0.37      0.00 
  -15    6    1      0.70      0.00 
   15    6    0      1.66      0.00 
   15    6    1      0.79      0.00 
   15    6    2     -0.20      0.00 
  -15    7    5     -0.13      0.00 
  -15    7    4     -0.22      0.00 
  -15    7    3     -0.99      0.00 
  -15    7    2      1.94      0.00 
  -15    7    1     -0.79      0.00 
   15    7    0      0.77      0.00 
   15    7    1      1.09      0.00 
   15    7    2     -0.42      0.00 
  -15    8    5     -0.53      0.00 
  -15    8    4     -0.30      0.00 
  -15    8    3     -2.05      0.00 
  -15    8    2     -0.86      0.00 
  -15    8    1      0.69      0.00 
   15    8    0      1.64      0.00 
   15    8    1      0.34      0.00 
   15    8    2      0.43      0.00 
  -15    9    5      0.05      0.00 
  -15    9    4     -0.06      0.00 
  -15    9    3     -0.95      0.00 
  -15    9    2      1.30      0.00 
  -15    9    1     -1.34      0.00 
   15    9    0     -0.20      0.00 
   15    9    1      1.12      0.00 
  -15   10    4     -0.23      0.00 
  -15   10    3     -1.38      0.00 
  -15   10    2     -0.93      0.00 
  -15   10    1      0.20      0.00 
   15   10    0      1.30      0.00 
   15   10    1     -0.07      0.00 
  -15   11    4      0.33      0.00 
  -15   11    3     -0.40      0.00 
  -15   11    2      0.46      0.00 
  -15   11    1     -1.62      0.00 
   15   11    0     -0.65      0.00 
   15   11    1      0.74      0.00 
  -15   12    4     -0.18      0.00 
  -15   12    3     -0.27      0.00 
  -15   12    2     -0.75      0.00 
  -15   12    1     -0.38      0.00 
   15   12    0      0.89      0.00 
  -15   13    3     -0.01      0.00 
  -15   13    2     -0.05      0.00 
  -15   13    1     -1.35      0.00 
   15   13    0     -0.57      0.00 
  -16    0    4      0.05      0.00 
  -16    0    2      0.76      0.00 
   16    0    0      0.26      0.00 
   16    0    2      0.08      0.00 
  -16    1    5      0.79      0.00 
  -16    1    4      0.13      0.00 
  -16    1    3      2.55      0.00 
  -16    1    2      0.41      0.00 
  -16    1    1     -1.51      0.00 
   16    1    0      0.57      0.00 
   16    1    1     -0.13      0.00 
   16    1    2      0.21      0.00 
  -16    2    5     -0.96      0.00 
  -16    2    4     -0.06      0.00 
  -16    2    3     -0.30      0.00 
  -16    2    2      0.68      0.00 
  -16    2    1     -0.57      0.00 
   16    2    0      0.40      0.00 
   16    2    1      0.46      0.00 
   16    2    2     -0.15      0.00 
  -16    3    5      0.55      0.00 
  -16    3    4      0.16      0.00 
  -16    3    3      1.34      0.00 
  -16    3    2      1.25      0.00 
  -16    3    1     -0.79      0.00 
   16    3    0      1.32      0.00 
   16    3    1     -0.02      0.00 
  -16    4    5     -1.46      0.00 
  -16    4    4     -0.28      0.00 
  -16    4    3     -0.73      0.00 
  -16    4    2      0.41      0.00 
  -16    4    1     -0.71      0.00 
   16    4    0      0.87      0.00 
   16    4    1      0.58      0.00 
  -16    5    5      0.26      0.00 
  -16    5    4     -0.18      0.00 
  -16    5    3     -0.24      0.00 
  -16    5    2      1.94      0.00 
  -16    5    1     -0.08      0.00 
   16    5    0      1.22      0.00 
   16    5    1      0.19      0.00 
  -16    6    5     -1.33      0.00 
  -16    6    4     -0.41      0.00 
  -16    6    3     -1.17      0.00 
  -16    6    2     -0.01      0.00 
  -16    6    1     -0.51      0.00 
   16    6    0      1.33      0.00 
   16    6    1      0.37      0.00 
  -16    7    4     -0.57      0.00 
  -16    7    3     -1.19      0.00 
  -16    7    2      2.05      0.00 
  -16    7    1     -0.01      0.00 
   16    7    0      0.51      0.00 
   16    7    1      0.38      0.00 
  -16    8    4     -0.32      0.00 
  -16    8    3     -1.30      0.00 
  -16    8    2     -0.44      0.00 
  -16    8    1     -0.31      0.00 
   16    8    0      1.47      0.00 
   16    8    1      0.10      0.00 
  -16    9    4     -0.52      0.00 
  -16    9    3     -1.13      0.00 
  -16    9    2      1.42      0.00 
  -16    9    1     -0.42      0.00 
   16    9    0     -0.25      0.00 
  -16   10    3     -0.92      0.00 
  -16   10    2     -0.66      0.00 
  -16   10    1     -0.27      0.00 
   16   10    0      1.26      0.00 
  -16   11    2      0.47      0.00 
  -16   11    1     -0.72      0.00 
  -17    0    4     -0.09      0.00 
  -17    0    2     -0.32      0.00 
   17    0    0      0.11      0.00 
  -17    1    4      0.11      0.00 
  -17    1    3      1.83      0.00 
  -17    1    2      0.29      0.00 
  -17    1    1     -1.20      0.00 
   17    1    0      0.28      0.00 
  -17    2    4     -0.23      0.00 
  -17    2    3     -0.16      0.00 
  -17    2    2     -0.12      0.00 
  -17    2    1     -0.69      0.00 
   17    2    0      0.14      0.00 
  -17    3    4      0.11      0.00 
  -17    3    3      0.91      0.00 
  -17    3    2      0.88      0.00 
  -17    3    1     -0.51      0.00 
   17    3    0      0.60      0.00 
  -17    4    4     -0.50      0.00 
  -17    4    3     -0.25      0.00 
  -17    4    2      0.24      0.00 
  -17    4    1     -1.02      0.00 
   17    4    0      0.40      0.00 
  -17    5    3     -0.31      0.00 
  -17    5    2      1.37      0.00 
  -17    5    1      0.19      0.00 
   17    5    0      0.47      0.00 
  -17    6    3     -0.29      0.00 
  -17    6    2      0.34      0.00 
  -17    6    1     -0.97      0.00 
  -17    7    3     -1.07      0.00 
  -17    7    2      1.42      0.00 
  -17    7    1      0.34      0.00 
  -17    8    2      0.09      0.00 
   17    6    0      0.70      0.00 
   17    7    0      0.04      0.00 
   17    8    0      0.85      0.00 
   17    9    0     -0.35      0.00 
   17   10    0      0.76      0.00 
   16   11    0     -0.67      0.00 
   17   11    0     -0.51      0.00 
   16   12    0      0.87      0.00 
   17   12    0      0.50      0.00 
   16   13    0     -0.67      0.00 
   17   13    0     -0.42      0.00 
   15   14    0      0.57      0.00 
   16   14    0      0.47      0.00 
   15   15    0     -0.23      0.00 
   16   15    0     -0.39      0.00 
   14   16    0      0.29      0.00 
   15   16    0      0.34      0.00 
   14   17    0      0.46      0.00 
   15   17    0      0.09      0.00 
   13   18    0      0.02      0.00 
   14   18    0      0.13      0.00 
   12   19    0      0.45      0.00 
   13   19    0      0.49      0.00 
   14   19    0      0.36      0.00 
   11   20    0     -0.13      0.00 
   12   20    0     -0.10      0.00 
   13   20    0     -0.11      0.00 
   10   21    0     -0.40      0.00 
   11   21    0     -0.27      0.00 
   12   21    0     -0.03      0.00 
    9   22    0      0.07      0.00 
   10   22    0      0.18      0.00 
   11   22    0      0.13      0.00 
   12   22    0     -0.04      0.00 
    8   23    0     -0.25      0.00 
    9   23    0     -0.37      0.00 
   10   23    0     -0.45      0.00 
   11   23    0     -0.35      0.00 
    6   24    0      0.00      0.00 
    7   24    0      0.15      0.00 
    8   24    0      0.31      0.00 
    9   24    0      0.40      0.00 
   10   24    0      0.37      0.00 
    4   25    0     -0.85      0.00 
    5   25    0     -0.73      0.00 
    6   25    0     -0.36      0.00 
    7   25    0     -0.03      0.00 
    8   25    0      0.07      0.00 
   17    1    1     -0.07      0.00 
   17    2    1      0.43      0.00 
   17    3    1     -0.13      0.00 
   17    4    1      0.49      0.00 
   17    5    1     -0.16      0.00 
   17    6    1      0.22      0.00 
   17    7    1     -0.12      0.00 
  -17    8    1     -0.72      0.00 
   17    8    1     -0.03      0.00 
  -17    9    1      0.08      0.00 
   16    9    1      0.42      0.00 
   17    9    1     -0.06      0.00 
  -17   10    1     -0.40      0.00 
   16   10    1     -0.02      0.00 
   17   10    1     -0.01      0.00 
  -17   11    1     -0.12      0.00 
   16   11    1      0.25      0.00 
   17   11    1     -0.02      0.00 
  -17   12    1     -0.10      0.00 
  -16   12    1     -0.30      0.00 
   15   12    1     -0.33      0.00 
   16   12    1     -0.04      0.00 
  -17   13    1     -0.08      0.00 
  -16   13    1     -0.60      0.00 
   15   13    1      0.20      0.00 
   16   13    1      0.01      0.00 
  -17   14    1      0.08      0.00 
  -16   14    1     -0.27      0.00 
  -15   14    1     -0.65      0.00 
   14   14    1     -0.59      0.00 
   15   14    1     -0.41      0.00 
   16   14    1     -0.06      0.00 
  -16   15    1     -0.28      0.00 
  -15   15    1     -0.78      0.00 
   14   15    1      0.04      0.00 
   15   15    1     -0.14      0.00 
  -16   16    1     -0.20      0.00 
  -15   16    1     -0.53      0.00 
  -14   16    1     -0.72      0.00 
   13   16    1     -0.18      0.00 
   14   16    1     -0.39      0.00 
   15   16    1     -0.32      0.00 
  -15   17    1     -0.33      0.00 
  -14   17    1     -0.59      0.00 
   13   17    1     -0.05      0.00 
   14   17    1     -0.11      0.00 
  -15   18    1     -0.27      0.00 
  -14   18    1     -0.27      0.00 
  -13   18    1     -0.19      0.00 
   12   18    1      0.41      0.00 
   13   18    1      0.08      0.00 
   14   18    1     -0.12      0.00 
  -14   19    1     -0.14      0.00 
  -13   19    1     -0.06      0.00 
  -12   19    1      0.02      0.00 
   12   19    1     -0.16      0.00 
   13   19    1     -0.05      0.00 
  -13   20    1      0.21      0.00 
  -12   20    1      0.29      0.00 
   11   20    1      0.46      0.00 
   12   20    1      0.29      0.00 
  -13   21    1      0.28      0.00 
  -12   21    1      0.47      0.00 
  -11   21    1      0.47      0.00 
   10   21    1     -0.12      0.00 
   11   21    1     -0.10      0.00 
   12   21    1     -0.05      0.00 
  -12   22    1      0.33      0.00 
  -11   22    1      0.28      0.00 
  -10   22    1      0.13      0.00 
    9   22    1      0.08      0.00 
   10   22    1      0.17      0.00 
   11   22    1      0.16      0.00 
  -11   23    1      0.39      0.00 
  -10   23    1      0.23      0.00 
   -9   23    1      0.05      0.00 
   -8   23    1      0.02      0.00 
    7   23    1     -0.79      0.00 
    8   23    1     -0.35      0.00 
    9   23    1     -0.02      0.00 
   10   23    1      0.12      0.00 
  -10   24    1     -0.01      0.00 
   -9   24    1      0.09      0.00 
   -8   24    1      0.40      0.00 
   -7   24    1      0.78      0.00 
    6   24    1      0.42      0.00 
    7   24    1      0.26      0.00 
    8   24    1      0.10      0.00 
    9   24    1      0.06      0.00 
   -9   25    1     -0.19      0.00 
   -8   25    1     -0.21      0.00 
   -7   25    1     -0.07      0.00 
   -6   25    1      0.27      0.00 
   -5   25    1      0.77      0.00 
   -4   25    1      1.29      0.00 
    3   25    1     -0.57      0.00 
    4   25    1     -0.59      0.00 
    5   25    1     -0.62      0.00 
    6   25    1     -0.58      0.00 
    7   25    1     -0.42      0.00 
    8   25    1     -0.14      0.00 
   17    0    2      0.14      0.00 
   17    1    2      0.26      0.00 
   17    2    2     -0.04      0.00 
   16    3    2      0.39      0.00 
   17    3    2      0.56      0.00 
   16    4    2     -0.48      0.00 
   17    4    2     -0.33      0.00 
   16    5    2      0.16      0.00 
   17    5    2      0.42      0.00 
   16    6    2     -0.40      0.00 
   17    6    2     -0.33      0.00 
   16    7    2     -0.17      0.00 
   17    7    2      0.12      0.00 
   16    8    2      0.12      0.00 
   17    8    2      0.01      0.00 
  -17    9    2      0.90      0.00 
   15    9    2     -0.46      0.00 
   16    9    2     -0.24      0.00 
  -17   10    2     -0.22      0.00 
   15   10    2      0.84      0.00 
   16   10    2      0.59      0.00 
  -17   11    2      0.19      0.00 
   15   11    2     -0.21      0.00 
   16   11    2     -0.04      0.00 
  -17   12    2     -0.27      0.00 
  -16   12    2     -0.60      0.00 
   14   12    2      0.56      0.00 
   15   12    2      0.68      0.00 
   16   12    2      0.59      0.00 
  -17   13    2     -0.20      0.00 
  -16   13    2     -0.14      0.00 
   14   13    2     -0.02      0.00 
   15   13    2      0.05      0.00 
  -17   14    2     -0.08      0.00 
  -16   14    2     -0.36      0.00 
  -15   14    2     -0.52      0.00 
   14   14    2     -0.08      0.00 
   15   14    2      0.17      0.00 
  -16   15    2     -0.17      0.00 
  -15   15    2     -0.06      0.00 
   13   15    2      0.07      0.00 
   14   15    2      0.07      0.00 
  -16   16    2     -0.12      0.00 
  -15   16    2     -0.31      0.00 
  -14   16    2     -0.26      0.00 
   13   16    2     -0.55      0.00 
   14   16    2     -0.38      0.00 
  -15   17    2      0.12      0.00 
  -14   17    2      0.13      0.00 
   12   17    2      0.07      0.00 
   13   17    2      0.11      0.00 
  -15   18    2     -0.11      0.00 
  -14   18    2     -0.10      0.00 
  -13   18    2      0.03      0.00 
   11   18    2     -0.44      0.00 
   12   18    2     -0.32      0.00 
   13   18    2     -0.26      0.00 
  -14   19    2      0.10      0.00 
  -13   19    2     -0.16      0.00 
  -12   19    2     -0.63      0.00 
   11   19    2      0.14      0.00 
   12   19    2      0.12      0.00 
  -13   20    2      0.11      0.00 
  -12   20    2      0.07      0.00 
  -11   20    2     -0.01      0.00 
   10   20    2     -0.22      0.00 
   11   20    2     -0.09      0.00 
   12   20    2      0.04      0.00 
  -13   21    2     -0.13      0.00 
  -12   21    2     -0.43      0.00 
  -11   21    2     -0.74      0.00 
  -10   21    2     -0.83      0.00 
    9   21    2      0.45      0.00 
   10   21    2      0.34      0.00 
   11   21    2      0.14      0.00 
  -12   22    2      0.02      0.00 
  -11   22    2     -0.07      0.00 
  -10   22    2     -0.05      0.00 
   -9   22    2      0.18      0.00 
    7   22    2      0.57      0.00 
    8   22    2      0.43      0.00 
    9   22    2      0.21      0.00 
   10   22    2      0.05      0.00 
  -11   23    2     -0.27      0.00 
  -10   23    2     -0.34      0.00 
   -9   23    2     -0.26      0.00 
   -8   23    2     -0.09      0.00 
    6   23    2     -0.75      0.00 
    7   23    2     -0.17      0.00 
    8   23    2      0.27      0.00 
    9   23    2      0.36      0.00 
  -10   24    2      0.00      0.00 
   -9   24    2      0.13      0.00 
   -8   24    2      0.29      0.00 
   -7   24    2      0.43      0.00 
   -6   24    2      0.50      0.00 
    4   24    2     -0.28      0.00 
    5   24    2      0.08      0.00 
    6   24    2      0.42      0.00 
    7   24    2      0.60      0.00 
    8   24    2      0.54      0.00 
   -8   25    2     -0.06      0.00 
   -7   25    2     -0.17      0.00 
   -6   25    2     -0.29      0.00 
   -5   25    2     -0.34      0.00 
   -4   25    2     -0.25      0.00 
   -3   25    2     -0.06      0.00 
   -2   25    2      0.14      0.00 
   -1   25    2      0.29      0.00 
    0   25    2      0.35      0.00 
    1   25    2      0.30      0.00 
    2   25    2      0.11      0.00 
    3   25    2     -0.17      0.00 
    4   25    2     -0.43      0.00 
    5   25    2     -0.51      0.00 
    6   25    2     -0.35      0.00 
    7   25    2     -0.08      0.00 
   16    1    3      0.91      0.00 
   16    2    3      0.45      0.00 
   15    3    3      0.42      0.00 
   16    3    3      0.68      0.00 
   15    4    3      0.67      0.00 
   16    4    3      0.62      0.00 
   15    5    3      0.03      0.00 
   16    5    3      0.38      0.00 
   15    6    3      0.62      0.00 
   16    6    3      0.57      0.00 
   15    7    3     -0.01      0.00 
   16    7    3      0.16      0.00 
  -17    8    3     -0.31      0.00 
   15    8    3      0.54      0.00 
   16    8    3      0.50      0.00 
  -17    9    3     -1.02      0.00 
   14    9    3      0.35      0.00 
   15    9    3      0.16      0.00 
  -17   10    3     -0.25      0.00 
   14   10    3      0.12      0.00 
   15   10    3      0.48      0.00 
  -17   11    3     -0.47      0.00 
  -16   11    3     -0.50      0.00 
   14   11    3      0.63      0.00 
   15   11    3      0.24      0.00 
  -17   12    3     -0.08      0.00 
  -16   12    3     -0.27      0.00 
   13   12    3     -0.39      0.00 
   14   12    3      0.01      0.00 
   15   12    3      0.35      0.00 
  -17   13    3      0.00      0.00 
  -16   13    3     -0.03      0.00 
   13   13    3      0.59      0.00 
   14   13    3      0.46      0.00 
  -17   14    3      0.09      0.00 
  -16   14    3      0.20      0.00 
  -15   14    3      0.42      0.00 
   12   14    3     -0.27      0.00 
   13   14    3     -0.36      0.00 
   14   14    3     -0.14      0.00 
  -16   15    3     -0.02      0.00 
  -15   15    3     -0.05      0.00 
   12   15    3      0.02      0.00 
   13   15    3      0.16      0.00 
  -16   16    3      0.25      0.00 
  -15   16    3      0.39      0.00 
  -14   16    3      0.37      0.00 
   11   16    3      0.36      0.00 
   12   16    3     -0.06      0.00 
   13   16    3     -0.26      0.00 
  -15   17    3     -0.22      0.00 
  -14   17    3     -0.24      0.00 
  -13   17    3     -0.31      0.00 
   11   17    3     -0.11      0.00 
   12   17    3     -0.05      0.00 
  -14   18    3     -0.14      0.00 
  -13   18    3     -0.43      0.00 
   10   18    3      0.62      0.00 
   11   18    3      0.35      0.00 
   12   18    3      0.09      0.00 
  -14   19    3     -0.19      0.00 
  -13   19    3     -0.28      0.00 
  -12   19    3     -0.34      0.00 
    9   19    3      0.16      0.00 
   10   19    3      0.22      0.00 
   11   19    3      0.20      0.00 
  -13   20    3     -0.53      0.00 
  -12   20    3     -0.69      0.00 
  -11   20    3     -0.64      0.00 
    8   20    3      0.74      0.00 
    9   20    3      0.49      0.00 
   10   20    3      0.29      0.00 
  -12   21    3     -0.09      0.00 
  -11   21    3      0.03      0.00 
  -10   21    3      0.33      0.00 
    7   21    3      0.19      0.00 
    8   21    3      0.25      0.00 
    9   21    3      0.34      0.00 
   10   21    3      0.37      0.00 
  -11   22    3     -0.38      0.00 
  -10   22    3     -0.22      0.00 
   -9   22    3      0.11      0.00 
   -8   22    3      0.48      0.00 
    6   22    3      0.65      0.00 
    7   22    3      0.73      0.00 
    8   22    3      0.44      0.00 
    9   22    3      0.12      0.00 
  -10   23    3      0.28      0.00 
   -9   23    3      0.26      0.00 
   -8   23    3      0.16      0.00 
   -7   23    3      0.04      0.00 
    4   23    3     -0.02      0.00 
    5   23    3      0.03      0.00 
    6   23    3      0.06      0.00 
    7   23    3      0.08      0.00 
    8   23    3      0.10      0.00 
   -9   24    3     -0.03      0.00 
   -8   24    3      0.09      0.00 
   -7   24    3      0.12      0.00 
   -6   24    3      0.02      0.00 
   -5   24    3     -0.17      0.00 
   -4   24    3     -0.34      0.00 
   -3   24    3     -0.40      0.00 
   -2   24    3     -0.37      0.00 
   -1   24    3     -0.37      0.00 
    0   24    3     -0.50      0.00 
    1   24    3     -0.73      0.00 
    2   24    3     -0.86      0.00 
    3   24    3     -0.73      0.00 
    4   24    3     -0.32      0.00 
    5   24    3      0.14      0.00 
    6   24    3      0.38      0.00 
   -7   25    3     -0.33      0.00 
   -6   25    3     -0.29      0.00 
   -5   25    3     -0.12      0.00 
   -4   25    3      0.08      0.00 
   -3   25    3      0.24      0.00 
   -2   25    3      0.32      0.00 
   -1   25    3      0.34      0.00 
    0   25    3      0.30      0.00 
    1   25    3      0.20      0.00 
    2   25    3      0.07      0.00 
    3   25    3     -0.04      0.00 
    4   25    3     -0.09      0.00 
    5   25    3     -0.11      0.00 
   14    0    4      0.67      0.00 
   15    0    4      0.05      0.00 
   14    1    4      0.18      0.00 
   15    1    4      0.06      0.00 
   14    2    4      0.59      0.00 
   15    2    4      0.10      0.00 
   14    3    4      0.33      0.00 
   15    3    4      0.07      0.00 
   14    4    4      0.43      0.00 
   15    4    4      0.20      0.00 
  -17    5    4     -0.23      0.00 
   14    5    4      0.13      0.00 
   15    5    4     -0.09      0.00 
  -17    6    4     -0.62      0.00 
   14    6    4      0.32      0.00 
   15    6    4      0.25      0.00 
  -17    7    4     -0.61      0.00 
   13    7    4      0.02      0.00 
   14    7    4     -0.11      0.00 
   15    7    4     -0.20      0.00 
  -17    8    4     -0.43      0.00 
   13    8    4      0.23      0.00 
   14    8    4      0.26      0.00 
  -17    9    4     -0.63      0.00 
   13    9    4     -0.04      0.00 
   14    9    4     -0.07      0.00 
  -17   10    4     -0.12      0.00 
  -16   10    4     -0.13      0.00 
   13   10    4      0.26      0.00 
   14   10    4      0.15      0.00 
  -17   11    4     -0.23      0.00 
  -16   11    4     -0.02      0.00 
   12   11    4      0.01      0.00 
   13   11    4      0.10      0.00 
   14   11    4      0.13      0.00 
  -17   12    4      0.04      0.00 
  -16   12    4     -0.06      0.00 
   12   12    4      0.17      0.00 
   13   12    4      0.16      0.00 
  -16   13    4      0.50      0.00 
  -15   13    4      0.58      0.00 
   11   13    4      0.09      0.00 
   12   13    4      0.09      0.00 
   13   13    4      0.19      0.00 
  -16   14    4     -0.15      0.00 
  -15   14    4     -0.24      0.00 
   11   14    4     -0.15      0.00 
   12   14    4      0.01      0.00 
  -16   15    4      0.61      0.00 
  -15   15    4      0.46      0.00 
  -14   15    4     -0.03      0.00 
   10   15    4      0.34      0.00 
   11   15    4      0.10      0.00 
   12   15    4      0.05      0.00 
  -15   16    4     -0.29      0.00 
  -14   16    4     -0.15      0.00 
  -13   16    4      0.28      0.00 
   10   16    4     -0.27      0.00 
   11   16    4     -0.17      0.00 
  -15   17    4      0.16      0.00 
  -14   17    4     -0.33      0.00 
  -13   17    4     -0.83      0.00 
    9   17    4      0.46      0.00 
   10   17    4      0.19      0.00 
   11   17    4      0.00      0.00 
  -14   18    4     -0.16      0.00 
  -13   18    4      0.14      0.00 
  -12   18    4      0.66      0.00 
    8   18    4      0.03      0.00 
    9   18    4     -0.06      0.00 
   10   18    4     -0.09      0.00 
  -13   19    4     -0.61      0.00 
  -12   19    4     -0.72      0.00 
  -11   19    4     -0.47      0.00 
    7   19    4      0.57      0.00 
    8   19    4      0.32      0.00 
    9   19    4      0.11      0.00 
   10   19    4     -0.03      0.00 
  -12   20    4      0.39      0.00 
  -11   20    4      0.67      0.00 
  -10   20    4      0.74      0.00 
    6   20    4      0.13      0.00 
    7   20    4      0.20      0.00 
    8   20    4      0.18      0.00 
    9   20    4      0.13      0.00 
  -11   21    4     -0.19      0.00 
  -10   21    4      0.17      0.00 
   -9   21    4      0.64      0.00 
   -8   21    4      0.96      0.00 
    5   21    4      0.66      0.00 
    6   21    4      0.47      0.00 
    7   21    4      0.18      0.00 
    8   21    4     -0.04      0.00 
  -10   22    4      0.03      0.00 
   -9   22    4     -0.22      0.00 
   -8   22    4     -0.36      0.00 
   -7   22    4     -0.17      0.00 
   -6   22    4      0.36      0.00 
    3   22    4     -0.74      0.00 
    4   22    4     -0.26      0.00 
    5   22    4      0.07      0.00 
    6   22    4      0.24      0.00 
    7   22    4      0.29      0.00 
   -9   23    4      0.33      0.00 
   -8   23    4      0.43      0.00 
   -7   23    4      0.33      0.00 
   -6   23    4      0.12      0.00 
   -5   23    4     -0.04      0.00 
   -4   23    4     -0.04      0.00 
   -3   23    4      0.06      0.00 
   -2   23    4      0.12      0.00 
   -1   23    4      0.04      0.00 
    0   23    4     -0.13      0.00 
    1   23    4     -0.22      0.00 
    2   23    4     -0.14      0.00 
    3   23    4      0.05      0.00 
    4   23    4      0.19      0.00 
    5   23    4      0.17      0.00 
    6   23    4      0.03      0.00 
   -8   24    4     -0.49      0.00 
   -7   24    4     -0.16      0.00 
   -6   24    4      0.40      0.00 
   -5   24    4      0.93      0.00 
   -4   24    4      1.19      0.00 
   -3   24    4      1.06      0.00 
   -2   24    4      0.60      0.00 
   -1   24    4      0.01      0.00 
    0   24    4     -0.45      0.00 
    1   24    4     -0.63      0.00 
    2   24    4     -0.54      0.00 
    3   24    4     -0.29      0.00 
    4   24    4     -0.02      0.00 
   -5   25    4     -0.13      0.00 
   -4   25    4      0.08      0.00 
   -3   25    4      0.31      0.00 
   -2   25    4      0.40      0.00 
   -1   25    4      0.31      0.00 
    0   25    4      0.13      0.00 
    1   25    4     -0.01      0.00 
    2   25    4     -0.07      0.00 
  -17    1    5      0.67      0.00 
   13    1    5     -0.50      0.00 
   14    1    5     -0.22      0.00 
  -17    2    5     -0.59      0.00 
   13    2    5      0.10      0.00 
   14    2    5     -0.05      0.00 
  -17    3    5      0.52      0.00 
   12    3    5     -0.51      0.00 
   13    3    5     -0.36      0.00 
   14    3    5     -0.03      0.00 
  -17    4    5     -0.95      0.00 
   12    4    5      0.46      0.00 
   13    4    5      0.01      0.00 
   14    4    5     -0.14      0.00 
  -17    5    5      0.29      0.00 
   12    5    5     -0.47      0.00 
   13    5    5     -0.17      0.00 
  -17    6    5     -0.98      0.00 
   12    6    5      0.09      0.00 
   13    6    5     -0.20      0.00 
  -17    7    5      0.11      0.00 
  -16    7    5      0.10      0.00 
   12    7    5     -0.31      0.00 
   13    7    5     -0.08      0.00 
  -17    8    5     -0.69      0.00 
  -16    8    5     -0.76      0.00 
   12    8    5     -0.27      0.00 
   13    8    5     -0.30      0.00 
  -17    9    5      0.03      0.00 
  -16    9    5      0.09      0.00 
   11    9    5     -0.19      0.00 
   12    9    5     -0.15      0.00 
   13    9    5     -0.11      0.00 
  -17   10    5     -0.25      0.00 
  -16   10    5     -0.14      0.00 
  -15   10    5      0.14      0.00 
   11   10    5     -0.47      0.00 
   12   10    5     -0.37      0.00 
  -17   11    5      0.02      0.00 
  -16   11    5      0.12      0.00 
  -15   11    5      0.26      0.00 
   10   11    5     -0.10      0.00 
   11   11    5     -0.01      0.00 
   12   11    5     -0.09      0.00 
  -16   12    5      0.19      0.00 
  -15   12    5      0.37      0.00 
   10   12    5     -0.52      0.00 
   11   12    5     -0.43      0.00 
   12   12    5     -0.27      0.00 
  -16   13    5      0.08      0.00 
  -15   13    5      0.30      0.00 
  -14   13    5      0.46      0.00 
   10   13    5     -0.10      0.00 
   11   13    5      0.00      0.00 
  -15   14    5      0.16      0.00 
  -14   14    5      0.41      0.00 
    9   14    5      0.04      0.00 
   10   14    5     -0.18      0.00 
   11   14    5     -0.23      0.00 
  -15   15    5      0.20      0.00 
  -14   15    5      0.39      0.00 
  -13   15    5      0.36      0.00 
    8   15    5     -0.40      0.00 
    9   15    5     -0.31      0.00 
   10   15    5     -0.13      0.00 
  -14   16    5      0.00      0.00 
  -13   16    5      0.38      0.00 
  -12   16    5      0.77      0.00 
    8   16    5      0.64      0.00 
    9   16    5      0.34      0.00 
   10   16    5      0.07      0.00 
  -14   17    5      0.29      0.00 
  -13   17    5      0.36      0.00 
  -12   17    5      0.28      0.00 
  -11   17    5      0.15      0.00 
    7   17    5     -0.09      0.00 
    8   17    5     -0.23      0.00 
    9   17    5     -0.18      0.00 
  -13   18    5      0.07      0.00 
  -12   18    5      0.34      0.00 
  -11   18    5      0.50      0.00 
  -10   18    5      0.42      0.00 
    6   18    5      0.36      0.00 
    7   18    5      0.48      0.00 
    8   18    5      0.42      0.00 
  -12   19    5      0.32      0.00 
  -11   19    5      0.23      0.00 
  -10   19    5      0.11      0.00 
   -9   19    5     -0.01      0.00 
    4   19    5      0.21      0.00 
    5   19    5      0.17      0.00 
    6   19    5      0.06      0.00 
    7   19    5     -0.04      0.00 
  -11   20    5      0.29      0.00 
  -10   20    5      0.41      0.00 
   -9   20    5      0.35      0.00 
   -8   20    5      0.12      0.00 
   -7   20    5     -0.21      0.00 
    3   20    5      0.01      0.00 
    4   20    5      0.00      0.00 
    5   20    5      0.01      0.00 
    6   20    5      0.02      0.00 
    7   20    5      0.03      0.00 
  -10   21    5     -0.09      0.00 
   -9   21    5     -0.12      0.00 
   -8   21    5     -0.03      0.00 
   -7   21    5      0.08      0.00 
   -6   21    5      0.01      0.00 
   -5   21    5     -0.37      0.00 
   -4   21    5     -0.98      0.00 
   -3   21    5     -1.57      0.00 
   -1   21    5     -1.71      0.00 
    0   21    5     -1.20      0.00 
    1   21    5     -0.60      0.00 
    2   21    5     -0.14      0.00 
    3   21    5      0.05      0.00 
    4   21    5      0.04      0.00 
    5   21    5     -0.03      0.00 
   -9   22    5      0.29      0.00 
   -8   22    5      0.16      0.00 
   -7   22    5     -0.07      0.00 
   -6   22    5     -0.28      0.00 
   -5   22    5     -0.37      0.00 
   -4   22    5     -0.34      0.00 
   -3   22    5     -0.26      0.00 
   -2   22    5     -0.17      0.00 
   -1   22    5     -0.09      0.00 
    0   22    5     -0.02      0.00 
    1   22    5      0.06      0.00 
    2   22    5      0.11      0.00 
    3   22    5      0.12      0.00 
    4   22    5      0.07      0.00 
   -7   23    5      0.32      0.00 
   -6   23    5      0.45      0.00 
   -5   23    5      0.27      0.00 
   -4   23    5     -0.21      0.00 
   -3   23    5     -0.74      0.00 
   -2   23    5     -1.04      0.00 
   -1   23    5     -0.97      0.00 
    0   23    5     -0.60      0.00 
    1   23    5     -0.19      0.00 
    2   23    5      0.04      0.00 
   -4   24    5      0.04      0.00 
   -3   24    5      0.05      0.00 
   -2   24    5      0.02      0.00 
   -1   24    5      0.00      0.00 
  -17    0    6      0.06      0.00 
  -16    0    6      0.36      0.00 
   11    0    6     -0.47      0.00 
   12    0    6     -0.26      0.00 
  -17    1    6     -0.14      0.00 
  -16    1    6     -0.17      0.00 
   11    1    6     -0.10      0.00 
   12    1    6     -0.08      0.00 
  -17    2    6     -0.13      0.00 
  -16    2    6      0.04      0.00 
   11    2    6     -0.42      0.00 
   12    2    6     -0.20      0.00 
  -17    3    6     -0.37      0.00 
  -16    3    6     -0.44      0.00 
   10    3    6     -0.10      0.00 
   11    3    6     -0.30      0.00 
   12    3    6     -0.21      0.00 
  -17    4    6     -0.44      0.00 
  -16    4    6     -0.52      0.00 
   10    4    6     -0.32      0.00 
   11    4    6     -0.29      0.00 
   12    4    6     -0.09      0.00 
  -17    5    6     -0.41      0.00 
  -16    5    6     -0.51      0.00 
   10    5    6     -0.24      0.00 
   11    5    6     -0.43      0.00 
   12    5    6     -0.27      0.00 
  -17    6    6     -0.46      0.00 
  -16    6    6     -0.65      0.00 
  -15    6    6     -0.59      0.00 
   10    6    6     -0.21      0.00 
   11    6    6     -0.16      0.00 
  -17    7    6     -0.32      0.00 
  -16    7    6     -0.41      0.00 
  -15    7    6     -0.51      0.00 
   10    7    6     -0.29      0.00 
   11    7    6     -0.37      0.00 
  -16    8    6     -0.22      0.00 
  -15    8    6     -0.18      0.00 
    9    8    6     -0.01      0.00 
   10    8    6     -0.06      0.00 
   11    8    6     -0.05      0.00 
  -16    9    6     -0.22      0.00 
  -15    9    6     -0.23      0.00 
  -14    9    6     -0.30      0.00 
    9    9    6     -0.11      0.00 
   10    9    6     -0.18      0.00 
   11    9    6     -0.15      0.00 
  -16   10    6      0.27      0.00 
  -15   10    6      0.33      0.00 
  -14   10    6      0.40      0.00 
    9   10    6      0.14      0.00 
   10   10    6      0.08      0.00 
  -15   11    6      0.01      0.00 
  -14   11    6      0.10      0.00 
    8   11    6     -0.28      0.00 
    9   11    6     -0.17      0.00 
   10   11    6     -0.04      0.00 
  -15   12    6      0.43      0.00 
  -14   12    6      0.36      0.00 
  -13   12    6      0.33      0.00 
    8   12    6      0.12      0.00 
    9   12    6      0.18      0.00 
   10   12    6      0.17      0.00 
  -15   13    6      0.10      0.00 
  -14   13    6      0.25      0.00 
  -13   13    6      0.32      0.00 
  -12   13    6      0.20      0.00 
    7   13    6     -0.22      0.00 
    8   13    6     -0.29      0.00 
    9   13    6     -0.17      0.00 
  -14   14    6      0.10      0.00 
  -13   14    6      0.10      0.00 
  -12   14    6      0.34      0.00 
    6   14    6      0.12      0.00 
    7   14    6     -0.03      0.00 
    8   14    6      0.01      0.00 
    9   14    6      0.12      0.00 
  -13   15    6      0.20      0.00 
  -12   15    6      0.05      0.00 
  -11   15    6     -0.12      0.00 
    5   15    6      0.63      0.00 
    6   15    6      0.33      0.00 
    7   15    6      0.00      0.00 
    8   15    6     -0.16      0.00 
  -13   16    6      0.08      0.00 
  -12   16    6      0.37      0.00 
  -11   16    6      0.72      0.00 
  -10   16    6      0.84      0.00 
    4   16    6      0.58      0.00 
    5   16    6      0.30      0.00 
    6   16    6     -0.02      0.00 
    7   16    6     -0.15      0.00 
  -12   17    6     -0.12      0.00 
  -11   17    6     -0.22      0.00 
  -10   17    6     -0.12      0.00 
   -9   17    6      0.17      0.00 
    3   17    6      0.39      0.00 
    4   17    6      0.51      0.00 
    5   17    6      0.51      0.00 
    6   17    6      0.34      0.00 
    7   17    6      0.11      0.00 
  -11   18    6      0.59      0.00 
  -10   18    6      0.50      0.00 
   -9   18    6      0.09      0.00 
   -8   18    6     -0.48      0.00 
   -7   18    6     -0.89      0.00 
    1   18    6      0.04      0.00 
    2   18    6      0.14      0.00 
    3   18    6      0.23      0.00 
    4   18    6      0.17      0.00 
    5   18    6      0.02      0.00 
    6   18    6     -0.11      0.00 
  -10   19    6     -0.03      0.00 
   -9   19    6      0.18      0.00 
   -8   19    6      0.35      0.00 
   -7   19    6      0.34      0.00 
   -6   19    6      0.20      0.00 
   -5   19    6      0.09      0.00 
   -4   19    6      0.14      0.00 
   -3   19    6      0.35      0.00 
   -2   19    6      0.53      0.00 
   -1   19    6      0.52      0.00 
    0   19    6      0.32      0.00 
    1   19    6      0.08      0.00 
    2   19    6     -0.05      0.00 
    3   19    6     -0.02      0.00 
    4   19    6      0.07      0.00 
    5   19    6      0.11      0.00 
   -9   20    6     -0.07      0.00 
   -8   20    6     -0.35      0.00 
   -7   20    6     -0.54      0.00 
   -6   20    6     -0.55      0.00 
   -5   20    6     -0.37      0.00 
   -4   20    6     -0.09      0.00 
   -3   20    6      0.18      0.00 
   -2   20    6      0.34      0.00 
   -1   20    6      0.36      0.00 
    0   20    6      0.29      0.00 
    1   20    6      0.17      0.00 
    2   20    6      0.07      0.00 
    3   20    6     -0.02      0.00 
   -7   21    6      0.15      0.00 
   -6   21    6      0.05      0.00 
   -5   21    6     -0.02      0.00 
   -4   21    6     -0.01      0.00 
   -3   21    6      0.06      0.00 
   -2   21    6      0.12      0.00 
   -1   21    6      0.09      0.00 
    0   21    6     -0.01      0.00 
    1   21    6     -0.12      0.00 
    2   21    6     -0.20      0.00 
   -4   22    6     -0.14      0.00 
   -3   22    6     -0.07      0.00 
   -2   22    6      0.09      0.00 
   -1   22    6      0.23      0.00 
  -16    1    7      0.29      0.00 
  -15    1    7      0.07      0.00 
  -14    1    7     -0.28      0.00 
    8    1    7      0.91      0.00 
    9    1    7      0.52      0.00 
   10    1    7      0.16      0.00 
  -16    2    7     -0.04      0.00 
  -15    2    7      0.17      0.00 
  -14    2    7      0.38      0.00 
   -4    2    7      0.38      0.00 
    8    2    7     -0.22      0.00 
    9    2    7     -0.15      0.00 
   10    2    7      0.00      0.00 
  -16    3    7      0.09      0.00 
  -15    3    7      0.04      0.00 
  -14    3    7     -0.11      0.00 
    8    3    7      0.71      0.00 
    9    3    7      0.39      0.00 
   10    3    7      0.13      0.00 
  -16    4    7     -0.14      0.00 
  -15    4    7      0.07      0.00 
  -14    4    7      0.25      0.00 
    8    4    7     -0.32      0.00 
    9    4    7     -0.18      0.00 
  -16    5    7     -0.04      0.00 
  -15    5    7      0.11      0.00 
  -14    5    7      0.17      0.00 
    7    5    7      0.64      0.00 
    8    5    7      0.41      0.00 
    9    5    7      0.18      0.00 
  -15    6    7     -0.17      0.00 
  -14    6    7     -0.20      0.00 
  -13    6    7     -0.47      0.00 
    7    6    7     -0.23      0.00 
    8    6    7     -0.24      0.00 
    9    6    7     -0.06      0.00 
  -15    7    7      0.27      0.00 
  -14    7    7      0.38      0.00 
  -13    7    7      0.32      0.00 
    7    7    7      0.27      0.00 
    8    7    7      0.12      0.00 
    9    7    7     -0.01      0.00 
  -15    8    7     -0.19      0.00 
  -14    8    7     -0.36      0.00 
  -13    8    7     -0.73      0.00 
    6    8    7     -0.16      0.00 
    7    8    7     -0.12      0.00 
    8    8    7     -0.01      0.00 
    9    8    7      0.14      0.00 
  -15    9    7      0.33      0.00 
  -14    9    7      0.35      0.00 
  -13    9    7      0.28      0.00 
  -12    9    7      0.12      0.00 
    6    9    7     -0.17      0.00 
    7    9    7      0.00      0.00 
    8    9    7     -0.03      0.00 
  -14   10    7     -0.06      0.00 
  -13   10    7     -0.33      0.00 
  -12   10    7     -0.77      0.00 
    5   10    7     -0.29      0.00 
    6   10    7     -0.19      0.00 
    7   10    7      0.03      0.00 
    8   10    7      0.21      0.00 
  -14   11    7      0.11      0.00 
  -13   11    7      0.10      0.00 
  -12   11    7      0.13      0.00 
  -11   11    7      0.15      0.00 
    5   11    7     -0.70      0.00 
    6   11    7     -0.30      0.00 
    7   11    7     -0.07      0.00 
  -13   12    7      0.18      0.00 
  -12   12    7     -0.09      0.00 
  -11   12    7     -0.42      0.00 
  -10   12    7     -0.58      0.00 
    4   12    7     -0.20      0.00 
    5   12    7     -0.30      0.00 
    6   12    7     -0.17      0.00 
    7   12    7      0.08      0.00 
  -13   13    7     -0.04      0.00 
  -12   13    7      0.16      0.00 
  -11   13    7      0.33      0.00 
  -10   13    7      0.35      0.00 
    3   13    7     -0.63      0.00 
    4   13    7     -0.64      0.00 
    5   13    7     -0.46      0.00 
    6   13    7     -0.19      0.00 
  -12   14    7      0.18      0.00 
  -11   14    7      0.01      0.00 
  -10   14    7     -0.13      0.00 
   -9   14    7     -0.16      0.00 
   -8   14    7     -0.06      0.00 
    2   14    7     -0.01      0.00 
    3   14    7      0.00      0.00 
    4   14    7     -0.13      0.00 
    5   14    7     -0.22      0.00 
    6   14    7     -0.17      0.00 
  -11   15    7      0.27      0.00 
  -10   15    7      0.22      0.00 
   -9   15    7      0.04      0.00 
   -8   15    7     -0.14      0.00 
   -7   15    7     -0.18      0.00 
   -6   15    7     -0.11      0.00 
    0   15    7     -0.24      0.00 
    1   15    7     -0.08      0.00 
    2   15    7     -0.06      0.00 
    3   15    7     -0.13      0.00 
    4   15    7     -0.17      0.00 
    5   15    7     -0.12      0.00 
  -10   16    7      0.07      0.00 
   -9   16    7      0.06      0.00 
   -8   16    7      0.05      0.00 
   -7   16    7      0.09      0.00 
   -6   16    7      0.21      0.00 
   -5   16    7      0.36      0.00 
   -4   16    7      0.39      0.00 
   -3   16    7      0.21      0.00 
   -2   16    7     -0.11      0.00 
   -1   16    7     -0.39      0.00 
    0   16    7     -0.46      0.00 
    1   16    7     -0.30      0.00 
    2   16    7     -0.07      0.00 
    3   16    7      0.03      0.00 
    4   16    7     -0.04      0.00 
   -9   17    7     -0.20      0.00 
   -8   17    7     -0.30      0.00 
   -7   17    7     -0.25      0.00 
   -6   17    7     -0.11      0.00 
   -5   17    7      0.00      0.00 
   -4   17    7     -0.04      0.00 
   -3   17    7     -0.20      0.00 
   -2   17    7     -0.34      0.00 
   -1   17    7     -0.34      0.00 
    0   17    7     -0.21      0.00 
    1   17    7     -0.03      0.00 
    2   17    7      0.07      0.00 
    3   17    7      0.09      0.00 
   -8   18    7      0.09      0.00 
   -7   18    7      0.06      0.00 
   -6   18    7      0.13      0.00 
   -5   18    7      0.30      0.00 
   -4   18    7      0.41      0.00 
   -3   18    7      0.34      0.00 
   -2   18    7      0.11      0.00 
   -1   18    7     -0.14      0.00 
    0   18    7     -0.23      0.00 
    1   18    7     -0.13      0.00 
    2   18    7      0.02      0.00 
   -6   19    7     -0.02      0.00 
   -5   19    7      0.04      0.00 
   -4   19    7      0.03      0.00 
   -3   19    7     -0.03      0.00 
   -2   19    7     -0.10      0.00 
   -1   19    7     -0.13      0.00 
    0   19    7     -0.09      0.00 
  -14    0    8      0.17      0.00 
  -13    0    8      0.04      0.00 
  -12    0    8     -0.34      0.00 
  -11    0    8     -0.89      0.00 
    4    0    8      0.06      0.00 
    5    0    8     -0.18      0.00 
    6    0    8     -0.17      0.00 
    7    0    8     -0.14      0.00 
  -14    1    8      0.14      0.00 
  -13    1    8      0.05      0.00 
  -12    1    8      0.00      0.00 
  -11    1    8      0.01      0.00 
    4    1    8     -0.07      0.00 
    5    1    8     -0.05      0.00 
    6    1    8     -0.04      0.00 
    7    1    8     -0.03      0.00 
  -14    2    8      0.20      0.00 
  -13    2    8      0.13      0.00 
  -12    2    8     -0.18      0.00 
  -11    2    8     -0.68      0.00 
    4    2    8      0.07      0.00 
    5    2    8     -0.15      0.00 
    6    2    8     -0.16      0.00 
    7    2    8     -0.14      0.00 
  -14    3    8      0.23      0.00 
  -13    3    8      0.03      0.00 
  -12    3    8     -0.04      0.00 
  -11    3    8      0.11      0.00 
    4    3    8     -0.17      0.00 
    5    3    8     -0.10      0.00 
    6    3    8     -0.08      0.00 
    7    3    8     -0.05      0.00 
  -14    4    8      0.22      0.00 
  -13    4    8      0.26      0.00 
  -12    4    8      0.09      0.00 
  -11    4    8     -0.25      0.00 
    4    4    8      0.17      0.00 
    5    4    8     -0.04      0.00 
    6    4    8     -0.13      0.00 
    7    4    8     -0.15      0.00 
  -14    5    8      0.02      0.00 
  -13    5    8     -0.16      0.00 
  -12    5    8     -0.11      0.00 
  -11    5    8      0.29      0.00 
    3    5    8     -0.47      0.00 
    4    5    8     -0.20      0.00 
    5    5    8     -0.04      0.00 
    6    5    8     -0.02      0.00 
  -13    6    8      0.25      0.00 
  -12    6    8      0.17      0.00 
  -11    6    8      0.00      0.00 
  -10    6    8     -0.23      0.00 
    3    6    8      0.41      0.00 
    4    6    8      0.22      0.00 
    5    6    8      0.04      0.00 
    6    6    8     -0.11      0.00 
  -13    7    8     -0.32      0.00 
  -12    7    8     -0.18      0.00 
  -11    7    8      0.34      0.00 
  -10    7    8      1.08      0.00 
    2    7    8     -0.73      0.00 
    3    7    8     -0.48      0.00 
    4    7    8     -0.14      0.00 
    5    7    8      0.05      0.00 
    6    7    8      0.06      0.00 
  -13    8    8      0.10      0.00 
  -12    8    8      0.05      0.00 
  -11    8    8      0.00      0.00 
  -10    8    8     -0.08      0.00 
   -9    8    8     -0.25      0.00 
    2    8    8      0.29      0.00 
    3    8    8      0.25      0.00 
    4    8    8      0.21      0.00 
    5    8    8      0.08      0.00 
  -12    9    8     -0.21      0.00 
  -11    9    8      0.13      0.00 
  -10    9    8      0.68      0.00 
   -9    9    8      1.09      0.00 
   -8    9    8      1.00      0.00 
    1    9    8     -0.44      0.00 
    2    9    8     -0.50      0.00 
    3    9    8     -0.33      0.00 
    4    9    8     -0.08      0.00 
    5    9    8      0.06      0.00 
  -12   10    8     -0.03      0.00 
  -11   10    8     -0.01      0.00 
  -10   10    8      0.01      0.00 
   -9   10    8     -0.08      0.00 
   -8   10    8     -0.30      0.00 
   -7   10    8     -0.53      0.00 
    0   10    8      0.52      0.00 
    1   10    8      0.18      0.00 
    2   10    8      0.10      0.00 
    3   10    8      0.18      0.00 
    4   10    8      0.22      0.00 
    5   10    8      0.12      0.00 
  -11   11    8     -0.17      0.00 
  -10   11    8      0.05      0.00 
   -9   11    8      0.26      0.00 
   -8   11    8      0.23      0.00 
   -7   11    8     -0.14      0.00 
   -6   11    8     -0.69      0.00 
   -5   11    8     -1.11      0.00 
   -4   11    8     -1.16      0.00 
   -3   11    8     -0.84      0.00 
   -2   11    8     -0.40      0.00 
   -1   11    8     -0.08      0.00 
    0   11    8      0.01      0.00 
    1   11    8     -0.06      0.00 
    2   11    8     -0.13      0.00 
    3   11    8     -0.12      0.00 
    4   11    8     -0.06      0.00 
  -10   12    8      0.14      0.00 
   -9   12    8      0.04      0.00 
   -8   12    8     -0.15      0.00 
   -7   12    8     -0.31      0.00 
   -6   12    8     -0.27      0.00 
   -5   12    8      0.01      0.00 
   -4   12    8      0.40      0.00 
   -3   12    8      0.69      0.00 
   -2   12    8      0.68      0.00 
   -1   12    8      0.44      0.00 
    0   12    8      0.16      0.00 
    1   12    8      0.04      0.00 
    2   12    8      0.10      0.00 
    3   12    8      0.20      0.00 
  -10   13    8     -0.27      0.00 
   -9   13    8     -0.16      0.00 
   -8   13    8     -0.07      0.00 
   -7   13    8     -0.12      0.00 
   -6   13    8     -0.28      0.00 
   -5   13    8     -0.47      0.00 
   -4   13    8     -0.57      0.00 
   -3   13    8     -0.51      0.00 
   -2   13    8     -0.30      0.00 
   -1   13    8     -0.05      0.00 
    0   13    8      0.14      0.00 
    1   13    8      0.19      0.00 
    2   13    8      0.12      0.00 
   -9   14    8      0.08      0.00 
   -8   14    8     -0.11      0.00 
   -7   14    8     -0.21      0.00 
   -6   14    8     -0.16      0.00 
   -5   14    8      0.02      0.00 
   -4   14    8      0.19      0.00 
   -3   14    8      0.24      0.00 
   -2   14    8      0.15      0.00 
   -1   14    8      0.00      0.00 
    0   14    8     -0.07      0.00 
    1   14    8     -0.02      0.00 
   -7   15    8      0.23      0.00 
   -6   15    8      0.26      0.00 
   -5   15    8      0.14      0.00 
   -4   15    8     -0.05      0.00 
   -3   15    8     -0.21      0.00 
   -2   15    8     -0.23      0.00 
   -1   15    8     -0.09      0.00 
    0   15    8      0.09      0.00 
   -4   16    8      0.16      0.00 
   -3   16    8      0.09      0.00 
    0    0    0      0.00      0.00 
loop_ 
  _platon_squeeze_void_nr 
  _platon_squeeze_void_average_x 
  _platon_squeeze_void_average_y 
  _platon_squeeze_void_average_z 
  _platon_squeeze_void_volume 
  _platon_squeeze_void_count_electrons 
  _platon_squeeze_void_content 
   1  0.000  0.000 -0.031       130        40 ' ' 
   2  0.000  0.500 -0.033       130        40 ' ' 
_platon_squeeze_void_probe_radius                  1.20 
_platon_squeeze_details 
) 
TITL eisrs03 in P2(1)/c 
CELL   15.0310   21.3960    7.4045     90.00    102.88     90.00 
SPGR P21/c 
C101 0.067 0.509 0.715 !       3.62 eA-3 
C102 0.031 0.045 0.130 !       3.25 eA-3 
C103 0.108 0.460 0.846 !       0.67 eA-3 
Q104 0.144 0.466 0.003 !       0.57 eA-3 
C105 0.901 0.467 0.070 !       0.56 eA-3 
) 
;
_shelx_fab_checksum              16385
loop_
_space_group_symop_operation_xyz
'x, y, z'
'-x, y+1/2, -z+1/2'
'-x, -y, -z'
'x, -y-1/2, z-1/2'
loop_
_atom_site_label
_atom_site_type_symbol
_atom_site_fract_x
_atom_site_fract_y
_atom_site_fract_z
_atom_site_U_iso_or_equiv
_atom_site_adp_type
_atom_site_occupancy
_atom_site_site_symmetry_order
_atom_site_calc_flag
_atom_site_refinement_flags_posn
_atom_site_refinement_flags_adp
_atom_site_refinement_flags_occupancy
_atom_site_disorder_assembly
_atom_site_disorder_group
O1 O 0.19123(13) 0.31440(9) 0.7450(3) 0.0235(5) Uani 1 1 d . . . . .
N1 N 0.48881(17) 0.35593(12) 0.6704(4) 0.0260(7) Uani 1 1 d . . . . .
N2 N -0.11292(18) 0.29652(13) 0.8099(4) 0.0304(7) Uani 1 1 d . . . . .
C1 C 0.3791(2) 0.20690(15) 0.7239(4) 0.0258(8) Uani 1 1 d . . . . .
H1A H 0.3945 0.1638 0.7321 0.031 Uiso 1 1 calc R U . . .
C2 C 0.4442(2) 0.24876(15) 0.7070(5) 0.0270(8) Uani 1 1 d . . . . .
H2A H 0.5035 0.2343 0.7028 0.032 Uiso 1 1 calc R U . . .
C3 C 0.4257(2) 0.31442(15) 0.6953(4) 0.0233(7) Uani 1 1 d . . . . .
C4 C 0.3382(2) 0.33394(15) 0.7119(4) 0.0232(7) Uani 1 1 d . . . . .
H4A H 0.3241 0.3772 0.7116 0.028 Uiso 1 1 calc R U . . .
C5 C 0.0422(2) 0.30471(15) 0.7761(4) 0.0236(7) Uani 1 1 d . . . . .
H5A H 0.0392 0.3490 0.7778 0.028 Uiso 1 1 calc R U . . .
C6 C -0.0348(2) 0.26859(15) 0.7900(5) 0.0266(8) Uani 1 1 d . . . . .
C7 C -0.0276(2) 0.20244(15) 0.7777(5) 0.0275(8) Uani 1 1 d . . . . .
H7A H -0.0794 0.1772 0.7798 0.033 Uiso 1 1 calc R U . . .
C8 C 0.0517(2) 0.17472(15) 0.7628(5) 0.0265(8) Uani 1 1 d . . . . .
H8A H 0.0539 0.1304 0.7556 0.032 Uiso 1 1 calc R U . . .
C9 C 0.2168(2) 0.18419(14) 0.7439(4) 0.0229(7) Uani 1 1 d . . . . .
C10 C 0.2885(2) 0.22465(14) 0.7300(4) 0.0207(7) Uani 1 1 d . . . . .
C11 C 0.2737(2) 0.29072(14) 0.7284(4) 0.0216(7) Uani 1 1 d . . . . .
C12 C 0.1209(2) 0.27562(14) 0.7602(4) 0.0222(7) Uani 1 1 d . . . . .
C13 C 0.1316(2) 0.20972(14) 0.7577(4) 0.0225(7) Uani 1 1 d . . . . .
C14 C 0.5818(2) 0.33485(17) 0.6692(5) 0.0340(9) Uani 1 1 d . . . . .
H14A H 0.5797 0.3060 0.5656 0.051 Uiso 1 1 calc R U . . .
H14B H 0.6080 0.3135 0.7860 0.051 Uiso 1 1 calc R U . . .
H14C H 0.6196 0.3710 0.6552 0.051 Uiso 1 1 calc R U . . .
C15 C 0.4678(2) 0.42245(15) 0.6501(5) 0.0338(9) Uani 1 1 d . . . . .
H15A H 0.4148 0.4287 0.5475 0.051 Uiso 1 1 calc R U . . .
H15B H 0.5204 0.4449 0.6242 0.051 Uiso 1 1 calc R U . . .
H15C H 0.4542 0.4384 0.7650 0.051 Uiso 1 1 calc R U . . .
C16 C -0.1209(2) 0.36440(16) 0.8075(6) 0.0383(9) Uani 1 1 d . . . . .
H16A H -0.1058 0.3808 0.6944 0.057 Uiso 1 1 calc R U . . .
H16B H -0.0787 0.3819 0.9160 0.057 Uiso 1 1 calc R U . . .
H16C H -0.1836 0.3762 0.8105 0.057 Uiso 1 1 calc R U . . .
C17 C -0.1917(2) 0.26075(17) 0.8354(6) 0.0392(10) Uani 1 1 d . . . . .
H17A H -0.1710 0.2245 0.9144 0.059 Uiso 1 1 calc R U . . .
H17B H -0.2269 0.2465 0.7146 0.059 Uiso 1 1 calc R U . . .
H17C H -0.2303 0.2872 0.8943 0.059 Uiso 1 1 calc R U . . .
C18 C 0.2283(2) 0.11583(15) 0.7459(5) 0.0257(8) Uani 0.815(4) 1 d D . P A 1
C19 C 0.2060(12) 0.0756(7) 0.8696(19) 0.0285(16) Uani 0.815(4) 1 d D . P A 1
H19A H 0.1798 0.0889 0.9687 0.034 Uiso 0.815(4) 1 calc R U P A 1
C20 C 0.2251(3) 0.0113(3) 0.8387(8) 0.0322(13) Uani 0.815(4) 1 d D . P A 1
H20A H 0.2140 -0.0226 0.9137 0.039 Uiso 0.815(4) 1 calc R U P A 1
C21 C 0.2613(4) 0.0057(2) 0.6867(8) 0.0339(12) Uani 0.815(4) 1 d D . P A 1
H21A H 0.2781 -0.0332 0.6419 0.041 Uiso 0.815(4) 1 calc R U P A 1
S1 S 0.27349(10) 0.07580(6) 0.5849(2) 0.0362(4) Uani 0.815(4) 1 d D . P A 1
C18' C 0.2283(2) 0.11583(15) 0.7459(5) 0.0257(8) Uani 0.185(4) 1 d D . P A 5
C19' C 0.2719(13) 0.0873(11) 0.627(3) 0.0362(4) Uani 0.185(4) 1 d D . P A 5
H19B H 0.2907 0.1078 0.5278 0.043 Uiso 0.185(4) 1 calc R U P A 5
C20' C 0.2859(17) 0.0215(9) 0.671(4) 0.0339(12) Uani 0.185(4) 1 d D . P A 5
H20B H 0.3152 -0.0068 0.6039 0.041 Uiso 0.185(4) 1 calc R U P A 5
C21' C 0.2521(16) 0.0055(11) 0.818(4) 0.0322(13) Uani 0.185(4) 1 d D . P A 5
H21B H 0.2550 -0.0357 0.8666 0.039 Uiso 0.185(4) 1 calc R U P A 5
S1' S 0.2036(14) 0.0662(8) 0.909(2) 0.0285(16) Uani 0.185(4) 1 d D . P A 5
P1 P 0.33229(6) 0.59964(5) 0.78471(14) 0.0346(3) Uani 1 1 d . . . . .
F1 F 0.29299(17) 0.52988(10) 0.7628(3) 0.0557(7) Uani 1 1 d . . . . .
F2 F 0.36940(16) 0.66942(11) 0.8070(4) 0.0591(7) Uani 1 1 d . . . . .
F3 F 0.26552(15) 0.61837(10) 0.5927(3) 0.0476(6) Uani 1 1 d . . . . .
F4 F 0.25373(15) 0.61830(10) 0.8901(3) 0.0465(6) Uani 1 1 d . . . . .
F5 F 0.39666(16) 0.58042(12) 0.9770(3) 0.0599(7) Uani 1 1 d . . . . .
F6 F 0.40852(18) 0.58030(13) 0.6788(4) 0.0764(9) Uani 1 1 d . . . . .
loop_
_atom_site_aniso_label
_atom_site_aniso_U_11
_atom_site_aniso_U_22
_atom_site_aniso_U_33
_atom_site_aniso_U_23
_atom_site_aniso_U_13
_atom_site_aniso_U_12
O1 0.0192(12) 0.0222(12) 0.0292(14) -0.0012(10) 0.0054(10) 0.0029(9)
N1 0.0196(15) 0.0292(16) 0.0298(17) 0.0004(12) 0.0070(12) -0.0007(12)
N2 0.0233(16) 0.0360(17) 0.0322(18) -0.0004(13) 0.0071(13) -0.0008(12)
C1 0.0284(19) 0.0242(18) 0.024(2) 0.0013(14) 0.0050(15) 0.0076(14)
C2 0.0217(18) 0.0320(19) 0.028(2) 0.0016(15) 0.0066(15) 0.0087(14)
C3 0.0219(18) 0.0289(18) 0.0172(18) 0.0000(14) 0.0006(14) 0.0010(14)
C4 0.0234(17) 0.0222(17) 0.0224(19) 0.0004(14) 0.0016(14) 0.0051(13)
C5 0.0270(19) 0.0248(18) 0.0185(18) 0.0017(14) 0.0042(14) 0.0045(14)
C6 0.0257(19) 0.033(2) 0.0197(19) -0.0004(15) 0.0013(15) 0.0014(15)
C7 0.0260(19) 0.031(2) 0.024(2) 0.0005(15) 0.0038(15) -0.0045(14)
C8 0.0290(19) 0.0246(19) 0.025(2) -0.0019(14) 0.0040(15) -0.0016(14)
C9 0.0278(19) 0.0259(18) 0.0137(17) -0.0014(14) 0.0016(14) 0.0023(13)
C10 0.0234(18) 0.0186(17) 0.0187(18) 0.0017(13) 0.0017(14) 0.0048(13)
C11 0.0185(17) 0.0262(18) 0.0202(19) -0.0008(14) 0.0044(13) 0.0055(13)
C12 0.0241(18) 0.0247(17) 0.0167(18) 0.0006(14) 0.0023(14) -0.0018(14)
C13 0.0239(17) 0.0239(18) 0.0185(18) 0.0003(14) 0.0022(14) 0.0003(13)
C14 0.0226(19) 0.041(2) 0.040(2) 0.0024(17) 0.0101(17) -0.0006(15)
C15 0.0289(19) 0.030(2) 0.043(2) 0.0041(17) 0.0091(17) -0.0038(15)
C16 0.031(2) 0.041(2) 0.044(2) 0.0053(18) 0.0112(18) 0.0129(16)
C17 0.029(2) 0.047(2) 0.043(3) -0.0029(19) 0.0110(18) -0.0015(17)
C18 0.0284(18) 0.0225(18) 0.0245(19) -0.0030(14) 0.0020(15) -0.0004(14)
C19 0.0339(16) 0.023(4) 0.027(5) 0.006(3) 0.004(3) -0.007(2)
C20 0.036(4) 0.025(2) 0.034(3) 0.0058(19) 0.005(2) -0.004(2)
C21 0.049(4) 0.018(3) 0.037(3) 0.003(2) 0.015(3) 0.000(2)
S1 0.0568(8) 0.0201(7) 0.0370(9) -0.0008(5) 0.0215(6) 0.0055(5)
C18' 0.0284(18) 0.0225(18) 0.0245(19) -0.0030(14) 0.0020(15) -0.0004(14)
C19' 0.0568(8) 0.0201(7) 0.0370(9) -0.0008(5) 0.0215(6) 0.0055(5)
C20' 0.049(4) 0.018(3) 0.037(3) 0.003(2) 0.015(3) 0.000(2)
C21' 0.036(4) 0.025(2) 0.034(3) 0.0058(19) 0.005(2) -0.004(2)
S1' 0.0339(16) 0.023(4) 0.027(5) 0.006(3) 0.004(3) -0.007(2)
P1 0.0336(5) 0.0389(6) 0.0316(6) -0.0008(4) 0.0080(4) -0.0010(4)
F1 0.0856(18) 0.0347(13) 0.0418(15) -0.0028(11) 0.0032(13) 0.0020(11)
F2 0.0505(15) 0.0508(14) 0.0749(18) 0.0018(13) 0.0119(13) -0.0259(11)
F3 0.0596(15) 0.0402(13) 0.0374(14) -0.0003(10) -0.0015(11) 0.0088(10)
F4 0.0512(14) 0.0415(13) 0.0554(16) -0.0019(11) 0.0305(12) -0.0025(10)
F5 0.0532(15) 0.0740(18) 0.0440(15) 0.0095(13) -0.0074(12) -0.0006(12)
F6 0.0726(18) 0.100(2) 0.0703(19) 0.0315(16) 0.0453(15) 0.0448(16)
loop_
_atom_type_symbol
_atom_type_description
_atom_type_scat_dispersion_real
_atom_type_scat_dispersion_imag
_atom_type_scat_source
C C 0.0033 0.0016 'International Tables Vol C Tables 4.2.6.8 and 6.1.1.4'
H H 0.0000 0.0000 'International Tables Vol C Tables 4.2.6.8 and 6.1.1.4'
N N 0.0061 0.0033 'International Tables Vol C Tables 4.2.6.8 and 6.1.1.4'
O O 0.0106 0.0060 'International Tables Vol C Tables 4.2.6.8 and 6.1.1.4'
F F 0.0171 0.0103 'International Tables Vol C Tables 4.2.6.8 and 6.1.1.4'
P P 0.1023 0.0942 'International Tables Vol C Tables 4.2.6.8 and 6.1.1.4'
S S 0.1246 0.1234 'International Tables Vol C Tables 4.2.6.8 and 6.1.1.4'
loop_
_geom_angle_atom_site_label_1
_geom_angle_atom_site_label_2
_geom_angle_atom_site_label_3
_geom_angle
C12 O1 C11 121.0(2)
C3 N1 C15 121.1(3)
C3 N1 C14 120.0(3)
C15 N1 C14 118.9(3)
C6 N2 C16 120.6(3)
C6 N2 C17 122.1(3)
C16 N2 C17 117.3(3)
C2 C1 C10 122.9(3)
C2 C1 H1A 118.6
C10 C1 H1A 118.6
C1 C2 C3 121.4(3)
C1 C2 H2A 119.3
C3 C2 H2A 119.3
N1 C3 C4 121.2(3)
N1 C3 C2 121.6(3)
C4 C3 C2 117.2(3)
C11 C4 C3 120.1(3)
C11 C4 H4A 120.0
C3 C4 H4A 120.0
C12 C5 C6 119.7(3)
C12 C5 H5A 120.1
C6 C5 H5A 120.1
N2 C6 C5 120.7(3)
N2 C6 C7 121.7(3)
C5 C6 C7 117.6(3)
C8 C7 C6 121.3(3)
C8 C7 H7A 119.3
C6 C7 H7A 119.3
C7 C8 C13 122.2(3)
C7 C8 H8A 118.9
C13 C8 H8A 118.9
C10 C9 C13 119.3(3)
C10 C9 C18' 121.5(3)
C13 C9 C18' 119.2(3)
C10 C9 C18 121.5(3)
C13 C9 C18 119.2(3)
C9 C10 C1 126.4(3)
C9 C10 C11 119.3(3)
C1 C10 C11 114.3(3)
C4 C11 O1 115.6(3)
C4 C11 C10 123.9(3)
O1 C11 C10 120.5(3)
C5 C12 O1 115.5(3)
C5 C12 C13 123.9(3)
O1 C12 C13 120.6(3)
C9 C13 C12 119.4(3)
C9 C13 C8 125.5(3)
C12 C13 C8 115.1(3)
N1 C14 H14A 109.5
N1 C14 H14B 109.5
H14A C14 H14B 109.5
N1 C14 H14C 109.5
H14A C14 H14C 109.5
H14B C14 H14C 109.5
N1 C15 H15A 109.5
N1 C15 H15B 109.5
H15A C15 H15B 109.5
N1 C15 H15C 109.5
H15A C15 H15C 109.5
H15B C15 H15C 109.5
N2 C16 H16A 109.5
N2 C16 H16B 109.5
H16A C16 H16B 109.5
N2 C16 H16C 109.5
H16A C16 H16C 109.5
H16B C16 H16C 109.5
N2 C17 H17A 109.5
N2 C17 H17B 109.5
H17A C17 H17B 109.5
N2 C17 H17C 109.5
H17A C17 H17C 109.5
H17B C17 H17C 109.5
C19 C18 C9 126.3(8)
C19 C18 S1 110.3(7)
C9 C18 S1 123.3(3)
C18 C19 C20 114.4(11)
C18 C19 H19A 122.8
C20 C19 H19A 122.8
C21 C20 C19 110.4(6)
C21 C20 H20A 124.8
C19 C20 H20A 124.8
C20 C21 S1 112.9(4)
C20 C21 H21A 123.5
S1 C21 H21A 123.5
C21 S1 C18 91.9(2)
C19' C18' C9 120.9(12)
C19' C18' S1' 113.1(10)
C9 C18' S1' 125.5(7)
C18' C19' C20' 111.0(17)
C18' C19' H19B 124.5
C20' C19' H19B 124.5
C21' C20' C19' 111.5(19)
C21' C20' H20B 124.3
C19' C20' H20B 124.3
C20' C21' S1' 113.5(18)
C20' C21' H21B 123.3
S1' C21' H21B 123.3
C21' S1' C18' 91.0(10)
F6 P1 F5 90.74(14)
F6 P1 F2 91.20(15)
F5 P1 F2 91.18(14)
F6 P1 F3 90.29(14)
F5 P1 F3 178.69(14)
F2 P1 F3 89.60(13)
F6 P1 F1 89.87(15)
F5 P1 F1 89.24(13)
F2 P1 F1 178.85(15)
F3 P1 F1 89.96(12)
F6 P1 F4 178.95(16)
F5 P1 F4 89.76(14)
F2 P1 F4 89.72(13)
F3 P1 F4 89.19(13)
F1 P1 F4 89.21(13)
loop_
_geom_bond_atom_site_label_1
_geom_bond_atom_site_label_2
_geom_bond_distance
O1 C12 1.369(4)
O1 C11 1.370(3)
N1 C3 1.342(4)
N1 C15 1.458(4)
N1 C14 1.470(4)
N2 C6 1.355(4)
N2 C16 1.457(4)
N2 C17 1.457(4)
C1 C2 1.353(4)
C1 C10 1.424(4)
C1 H1A 0.9500
C2 C3 1.431(4)
C2 H2A 0.9500
C3 C4 1.412(4)
C4 C11 1.364(4)
C4 H4A 0.9500
C5 C12 1.364(4)
C5 C6 1.415(4)
C5 H5A 0.9500
C6 C7 1.424(4)
C7 C8 1.358(4)
C7 H7A 0.9500
C8 C13 1.423(4)
C8 H8A 0.9500
C9 C10 1.405(4)
C9 C13 1.417(4)
C9 C18' 1.472(4)
C9 C18 1.472(4)
C10 C11 1.431(4)
C12 C13 1.420(4)
C14 H14A 0.9800
C14 H14B 0.9800
C14 H14C 0.9800
C15 H15A 0.9800
C15 H15B 0.9800
C15 H15C 0.9800
C16 H16A 0.9800
C16 H16B 0.9800
C16 H16C 0.9800
C17 H17A 0.9800
C17 H17B 0.9800
C17 H17C 0.9800
C18 C19 1.352(10)
C18 S1 1.726(3)
C19 C20 1.435(15)
C19 H19A 0.9500
C20 C21 1.361(6)
C20 H20A 0.9500
C21 S1 1.708(5)
C21 H21A 0.9500
C18' C19' 1.355(18)
C18' S1' 1.708(9)
C19' C20' 1.45(2)
C19' H19B 0.9500
C20' C21' 1.346(17)
C20' H20B 0.9500
C21' S1' 1.698(19)
C21' H21B 0.9500
P1 F6 1.581(2)
P1 F5 1.587(2)
P1 F2 1.589(2)
P1 F3 1.598(2)
P1 F1 1.600(2)
P1 F4 1.604(2)
loop_
_geom_torsion_atom_site_label_1
_geom_torsion_atom_site_label_2
_geom_torsion_atom_site_label_3
_geom_torsion_atom_site_label_4
_geom_torsion
C10 C1 C2 C3 0.4(5)
C15 N1 C3 C4 -3.2(5)
C14 N1 C3 C4 174.9(3)
C15 N1 C3 C2 177.1(3)
C14 N1 C3 C2 -4.8(5)
C1 C2 C3 N1 -177.0(3)
C1 C2 C3 C4 3.2(5)
N1 C3 C4 C11 176.9(3)
C2 C3 C4 C11 -3.4(5)
C16 N2 C6 C5 3.3(5)
C17 N2 C6 C5 -176.4(3)
C16 N2 C6 C7 -175.1(3)
C17 N2 C6 C7 5.2(5)
C12 C5 C6 N2 178.6(3)
C12 C5 C6 C7 -3.0(5)
N2 C6 C7 C8 -178.2(3)
C5 C6 C7 C8 3.4(5)
C6 C7 C8 C13 -0.3(5)
C13 C9 C10 C1 176.8(3)
C18' C9 C10 C1 -2.7(5)
C18 C9 C10 C1 -2.7(5)
C13 C9 C10 C11 -0.5(4)
C18' C9 C10 C11 179.9(3)
C18 C9 C10 C11 179.9(3)
C2 C1 C10 C9 178.8(3)
C2 C1 C10 C11 -3.8(5)
C3 C4 C11 O1 179.6(3)
C3 C4 C11 C10 -0.1(5)
C12 O1 C11 C4 179.2(3)
C12 O1 C11 C10 -1.1(4)
C9 C10 C11 C4 -178.7(3)
C1 C10 C11 C4 3.6(5)
C9 C10 C11 O1 1.6(4)
C1 C10 C11 O1 -176.1(3)
C6 C5 C12 O1 179.1(3)
C6 C5 C12 C13 -0.5(5)
C11 O1 C12 C5 179.9(3)
C11 O1 C12 C13 -0.5(4)
C10 C9 C13 C12 -1.0(5)
C18' C9 C13 C12 178.5(3)
C18 C9 C13 C12 178.5(3)
C10 C9 C13 C8 176.5(3)
C18' C9 C13 C8 -4.0(5)
C18 C9 C13 C8 -4.0(5)
C5 C12 C13 C9 -178.9(3)
O1 C12 C13 C9 1.5(5)
C5 C12 C13 C8 3.4(5)
O1 C12 C13 C8 -176.2(3)
C7 C8 C13 C9 179.5(3)
C7 C8 C13 C12 -2.9(5)
C10 C9 C18 C19 130.1(10)
C13 C9 C18 C19 -49.4(10)
C10 C9 C18 S1 -49.9(4)
C13 C9 C18 S1 130.6(3)
C9 C18 C19 C20 -179.8(6)
S1 C18 C19 C20 0.3(14)
C18 C19 C20 C21 -0.6(14)
C19 C20 C21 S1 0.7(8)
C20 C21 S1 C18 -0.5(4)
C19 C18 S1 C21 0.1(8)
C9 C18 S1 C21 -179.9(3)
C10 C9 C18' C19' -43.7(10)
C13 C9 C18' C19' 136.8(10)
C10 C9 C18' S1' 127.5(9)
C13 C9 C18' S1' -52.0(10)
C9 C18' C19' C20' 172.2(8)
S1' C18' C19' C20' 0.0(2)
C18' C19' C20' C21' 0.0(3)
C19' C20' C21' S1' -0.1(5)
C20' C21' S1' C18' 0.1(4)
C19' C18' S1' C21' 0.0(3)
C9 C18' S1' C21' -171.8(8)
