#------------------------------------------------------------------------------
#$Date: 2016-10-08 04:30:26 +0300 (Sat, 08 Oct 2016) $
#$Revision: 187210 $
#$URL: file:///home/coder/svn-repositories/cod/cif/1/54/42/1544252.cif $
#------------------------------------------------------------------------------
#
# This file is available in the Crystallography Open Database (COD),
# http://www.crystallography.net/. The original data for this entry
# were provided by IUCr Journals, http://journals.iucr.org/.
#
# The file may be used within the scientific community so long as
# proper attribution is given to the journal article from which the
# data were obtained.
#
data_1544252
loop_
_publ_author_name
'Al-Taifi, Elham A.'
'Kaur, Manpreet'
'Akkurt, Mehmet'
'Mohamed, Shaaban K.'
'Jasinski, Jerry P.'
_publ_section_title
;
 1-(4-Nitrophenyl)-2-({4-phenyl-5-[(<i>p</i>-tolyloxy)methyl]-4<i>H</i>-1,2,4-triazol-3-yl}sulfanyl)acetamide
;
_journal_coeditor_code           SJ4062
_journal_issue                   10
_journal_name_full               IUCrData
_journal_page_first              x161533
_journal_paper_doi               10.1107/S2414314616015339
_journal_volume                  1
_journal_year                    2016
_chemical_formula_iupac          'C24 H21 N5 O4 S'
_chemical_formula_moiety         'C24 H21 N5 O4 S'
_chemical_formula_sum            'C24 H21 N5 O4 S'
_chemical_formula_weight         475.52
_chemical_name_systematic
1-(4-Nitrophenyl)-2-({4-phenyl-5-[(<i>p</i>-tolyloxy)methyl]-4<i>H</i>-1,2,4-triazol-3-yl}sulfanyl)acetamide
_space_group_crystal_system      triclinic
_space_group_IT_number           2
_space_group_name_Hall           '-P 1'
_space_group_name_H-M_alt        'P -1'
_symmetry_space_group_name_Hall  '-P 1'
_symmetry_space_group_name_H-M   'P -1'
_atom_sites_solution_hydrogens   geom
_atom_sites_solution_primary     direct
_cell_angle_alpha                115.507(6)
_cell_angle_beta                 93.532(4)
_cell_angle_gamma                96.914(4)
_cell_formula_units_Z            2
_cell_length_a                   8.2241(4)
_cell_length_b                   12.2161(7)
_cell_length_c                   12.3952(8)
_cell_measurement_reflns_used    3208
_cell_measurement_temperature    173(2)
_cell_measurement_theta_max      71.4660
_cell_measurement_theta_min      4.0590
_cell_volume                     1106.77(13)
_computing_cell_refinement
;
CrysAlis PRO (Agilent, 2014)
;
_computing_data_collection
;
CrysAlis PRO (Agilent, 2014)
;
_computing_data_reduction
;
CrysAlis PRO (Agilent, 2014)
;
_computing_molecular_graphics
;
<i>OLEX2</i> (Dolomanov <i>et al.</i>,  2009)
;
_computing_publication_material
;
<i>OLEX2</i> (Dolomanov <i>et al.</i>,  2009)
;
_computing_structure_refinement
;
SHELXL2014 (Sheldrick, 2015b)
;
_computing_structure_solution
;
SHELXT (Sheldrick, 2015a)
;
_diffrn_ambient_temperature      173(2)
_diffrn_detector_area_resol_mean 16.0416
_diffrn_measured_fraction_theta_full 0.997
_diffrn_measured_fraction_theta_max 0.977
_diffrn_measurement_device       'four-circle diffractometer'
_diffrn_measurement_device_type  'Rigaku Oxford Diffraction four-circle'
_diffrn_measurement_method       '\w scans'
_diffrn_radiation_monochromator  graphite
_diffrn_radiation_type           CuK\a
_diffrn_radiation_wavelength     1.54184
_diffrn_reflns_av_R_equivalents  0.0305
_diffrn_reflns_limit_h_max       8
_diffrn_reflns_limit_h_min       -9
_diffrn_reflns_limit_k_max       13
_diffrn_reflns_limit_k_min       -14
_diffrn_reflns_limit_l_max       15
_diffrn_reflns_limit_l_min       -11
_diffrn_reflns_number            7218
_diffrn_reflns_theta_full        67.684
_diffrn_reflns_theta_max         71.410
_diffrn_reflns_theta_min         3.984
_exptl_absorpt_coefficient_mu    1.667
_exptl_absorpt_correction_T_max  1.00000
_exptl_absorpt_correction_T_min  0.86693
_exptl_absorpt_correction_type   multi-scan
_exptl_absorpt_process_details
;
(CrysAlis PRO; Agilent, 2014)
;
_exptl_crystal_colour            colourless
_exptl_crystal_density_diffrn    1.427
_exptl_crystal_description       prism
_exptl_crystal_F_000             496
_exptl_crystal_size_max          0.06
_exptl_crystal_size_mid          0.06
_exptl_crystal_size_min          0.04
_refine_diff_density_max         0.271
_refine_diff_density_min         -0.213
_refine_ls_extinction_method     none
_refine_ls_goodness_of_fit_ref   1.021
_refine_ls_hydrogen_treatment    constr
_refine_ls_matrix_type           full
_refine_ls_number_parameters     308
_refine_ls_number_reflns         4208
_refine_ls_number_restraints     0
_refine_ls_restrained_S_all      1.021
_refine_ls_R_factor_all          0.0479
_refine_ls_R_factor_gt           0.0382
_refine_ls_shift/su_max          0.001
_refine_ls_shift/su_mean         0.000
_refine_ls_structure_factor_coef Fsqd
_refine_ls_weighting_details
'w=1/[\s^2^(Fo^2^)+(0.0525P)^2^+0.2923P] where P=(Fo^2^+2Fc^2^)/3'
_refine_ls_weighting_scheme      calc
_refine_ls_wR_factor_gt          0.0956
_refine_ls_wR_factor_ref         0.1019
_reflns_number_gt                3685
_reflns_number_total             4208
_reflns_threshold_expression     'I > 2\s(I)'
_cod_data_source_file            sj4062sup1.cif
_cod_data_source_block           I
_cod_original_cell_volume        1106.76(12)
_cod_database_code               1544252
_shelx_space_group_comment
;
The symmetry employed for this shelxl refinement is uniquely defined
by the following loop, which should always be used as a source of
symmetry information in preference to the above space-group names.
They are only intended as comments.
;
_shelx_hkl_file
;
   0   0   1    0.32    0.23
   0   0   2   50.60    2.41
   0   0   3    3.00    0.93
   0   0   4    4.29    1.29
   0   0   4    3.93    0.97
   0   0   5  230.99    9.11
   0   0   5  248.80    9.55
   0   0   6   38.11    3.62
   0   0   6   35.14    3.69
   0   0   7  103.92    7.00
   0   0   8    7.95    2.12
   0   0   9    5.42    1.05
   0   0  10    1.19    0.67
   0   0  11  144.32    5.78
   0   0  12   22.21    1.89
   0   0  12   22.94    1.89
   0   0  13    4.79    0.82
   0   0  13    3.36    0.66
   0  -1  13   34.93    2.26
   0  -1  12   22.83    1.97
   0  -1  11   36.52    2.56
   0  -1  11   38.00    2.68
   0  -1  10   99.67    4.62
   0  -1  10   97.71    4.55
   0  -1   9   15.72    1.61
   0  -1   9   15.68    1.67
   0  -1   8    8.79    2.13
   0  -1   7  284.18   12.23
   0  -1   6  289.37   11.45
   0  -1   5  663.49   19.00
   0  -1   4 3675.12   81.22
   0  -1   3 5297.13  113.97
   0  -1   2 1952.88   42.93
   0   1  -1 1196.83   26.40
   0   1  -1 1197.13   25.70
   0   1   0  165.47    4.56
   0   1   1   65.30    2.56
   0   1   2    0.16    0.50
   0   1   3   34.42    2.46
   0   1   4   45.84    3.31
   0   1   5   26.57    2.82
   0   1   6   26.09    3.07
   0   1   6   21.09    2.97
   0   1   7   -0.24    0.81
   0   1   8   69.09    3.63
   0  -1  -8   64.09    6.12
   0   1   9  200.70    7.28
   0   1  10   20.61    2.05
   0   1  11    0.71    0.61
   0   1  11    0.15    0.53
   0   1  12   -0.13    0.56
   0   1  12    1.69    0.65
   0  -2  14    0.81    0.45
   0  -2  13  148.67    5.15
   0  -2  12   47.26    2.85
   0  -2  11   67.44    3.66
   0  -2  10  113.53    4.96
   0  -2   9   14.98    3.02
   0  -2   9   16.49    1.60
   0  -2   8  701.64   23.32
   0  -2   7  911.80   26.79
   0  -2   6    9.50    1.72
   0  -2   5   60.71    4.24
   0  -2   4  362.83   11.37
   0  -2   3 1808.24   41.33
   0   2  -2  563.83   13.18
   0   2  -2  574.08   14.51
   0   2  -1  480.86   11.20
   0   2  -1  483.06   12.23
   0   2   0  685.28   16.75
   0   2   1  680.84   16.68
   0  -2  -1  665.81   16.70
   0   2   2   75.70    3.70
   0  -2  -2   67.18    3.61
   0  -2  -3   38.29    2.99
   0   2   3   44.93    3.13
   0  -2  -4   17.42    2.30
   0   2   4   16.32    2.15
   0  -2  -5  200.67    9.31
   0   2   5  192.83    8.73
   0   2   6   43.33    4.46
   0  -2  -6   43.05    4.49
   0   2   6   45.28    4.25
   0   2   7    3.36    1.51
   0  -2  -7    4.84    1.73
   0   2   8  179.08    6.76
   0   2   9   18.01    1.93
   0   2  10   20.74    1.95
   0   2  10   19.57    1.97
   0   2  11   11.17    1.40
   0   2  11   12.36    1.42
   0   2  12   13.43    1.28
   0   2  12   10.71    1.07
   0  -3  14    8.25    0.96
   0  -3  13    1.55    0.63
   0  -3  12   68.86    3.67
   0  -3  11   42.13    2.90
   0  -3  10   13.76    1.63
   0  -3  10    9.43    1.29
   0  -3   9  161.94   10.09
   0  -3   8   94.66    6.98
   0  -3   7  203.78    9.90
   0  -3   6  183.86    8.67
   0  -3   5  595.91   17.75
   0   3  -4  234.63    8.96
   0   3  -4  252.18    7.69
   0   3  -3   11.84    1.70
   0   3  -3    9.68    0.96
   0   3  -2  337.25   10.35
   0  -3   2  364.76    9.36
   0   3  -2  339.06    8.65
   0   3  -1 1206.82   28.61
   0   3   0   44.65    3.05
   0  -3  -1  289.20    9.57
   0   3   1  332.69    9.91
   0   3   2    0.89    0.81
   0  -3  -2   -0.31    0.74
   0   3   3   32.51    2.98
   0  -3  -3   33.66    3.13
   0   3   4    3.04    1.27
   0  -3  -4    1.11    0.74
   0  -3  -5   32.82    3.68
   0   3   5   40.09    3.89
   0  -3  -6  511.55   18.83
   0   3   7   10.50    1.40
   0   3   8  131.07    5.36
   0   3   8  114.99    5.35
   0   3   9    2.40    1.03
   0   3   9    2.28    0.74
   0   3  10    4.03    1.06
   0   3  10    5.28    0.96
   0   3  11   63.27    2.92
   0   3  11   60.28    3.08
   0  -4  14   53.52    2.66
   0  -4  13    2.47    0.81
   0  -4  12   75.64    3.97
   0  -4  11    0.54    0.58
   0  -4  11   -0.30    0.58
   0  -4  10  197.02    6.99
   0  -4  10  178.91    6.67
   0  -4  10  187.74    6.63
   0   4  -9  407.96   17.39
   0   4  -8  115.17    7.85
   0   4  -7  324.12   13.51
   0   4  -6    7.73    1.80
   0   4  -6    9.15    1.43
   0   4  -5  112.46    6.27
   0   4  -5  116.87    4.89
   0   4  -4    2.38    1.40
   0   4  -4    2.38    0.64
   0   4  -3   14.83    1.16
   0   4  -3   14.78    2.10
   0  -4   2  506.87   12.96
   0   4  -2  478.64   14.39
   0  -4   1  336.28   10.73
   0   4  -1  326.73   11.00
   0   4   0   40.84    3.32
   0  -4   0   45.58    1.96
   0  -4   0   47.75    3.30
   0   4   1  614.75   17.38
   0  -4  -1  588.81   17.12
   0  -4  -2  576.32   17.17
   0   4   2  552.19   16.78
   0   4   3   23.17    2.79
   0  -4  -3   24.21    2.91
   0  -4  -4   11.84    2.10
   0   4   4   12.09    2.19
   0  -4  -5    3.27    1.33
   0   4   6  131.53    5.25
   0   4   6  138.22    5.54
   0   4   7   81.45    4.28
   0   4   7   87.84    4.21
   0   4   8    9.00    1.31
   0   4   8    7.65    1.27
   0   4   9   30.94    2.28
   0   4   9   26.67    2.34
   0   4  10   15.76    1.67
   0   4  10   15.32    1.39
   0   4  11    1.74    0.66
   0  -5  15    1.63    0.41
   0  -5  14    0.71    0.66
   0  -5  13   64.73    3.50
   0  -5  12    3.62    0.99
   0  -5  12    2.00    0.75
   0  -5  11  170.93    6.42
   0  -5  11  174.22    6.60
   0  -5  10   25.23    2.13
   0  -5  10   25.26    2.18
   0  -5  10   26.60    2.15
   0   5  -9    2.25    1.26
   0   5  -8  215.33   11.37
   0   5  -7  112.02    7.50
   0   5  -6   -0.32    1.01
   0   5  -5  126.57    7.10
   0   5  -4  354.55   12.74
   0  -5   3  158.63    5.94
   0   5  -3  129.76    6.78
   0   5  -2 1863.51   45.05
   0  -5   2 1870.59   42.41
   0  -5   1  962.10   25.56
   0   5  -1  970.73   26.20
   0  -5   0  110.30    5.97
   0   5   0  103.88    5.95
   0  -5  -1    8.97    1.79
   0   5   1    6.28    1.62
   0  -5  -2   99.22    6.13
   0   5   2   92.68    5.91
   0   5   3  203.10    9.81
   0  -5  -3  206.01    9.98
   0  -5  -4  166.05    9.34
   0   5   5   21.19    1.92
   0   5   5   17.88    1.66
   0   5   6   49.27    3.19
   0   5   6   52.20    3.07
   0   5   7   65.51    3.82
   0   5   7   69.93    3.67
   0   5   8    8.28    1.14
   0   5   8    9.55    1.37
   0   5   9   32.27    2.38
   0   5  10    1.25    0.58
   0  -6  15   11.69    1.01
   0  -6  14  110.73    4.34
   0  -6  13    0.10    0.65
   0  -6  12   47.63    3.03
   0  -6  12   48.48    3.00
   0  -6  11   29.53    2.34
   0  -6  11   29.97    2.37
   0  -6  11   31.38    2.48
   0  -6  10   63.14    3.53
   0  -6  10   62.39    3.43
   0  -6  10   61.93    3.46
   0  -6   9   38.20    2.50
   0   6  -9   31.04    4.33
   0   6  -8    6.90    2.05
   0   6  -7    2.31    1.09
   0   6  -6  371.92   14.80
   0   6  -5   79.17    5.86
   0   6  -4  312.72   12.40
   0   6  -3  191.70    9.04
   0   6  -2    1.32    0.94
   0   6  -1   65.44    5.07
   0  -6   1   60.82    4.63
   0   6   0  161.75    8.54
   0  -6   0  154.62    8.09
   0   6   1    9.07    1.97
   0  -6  -1   14.41    2.47
   0   6   2    1.28    1.04
   0  -6  -2    0.73    1.02
   0  -6  -3   16.34    2.81
   0   6   4    2.76    0.78
   0   6   5  233.53    8.05
   0   6   6  149.28    6.08
   0   6   7    6.26    1.22
   0   6   8    0.06    0.71
   0   6   9    6.69    1.03
   0  -7  15  103.66    3.55
   0  -7  14    1.61    0.57
   0  -7  13   10.90    1.37
   0  -7  13    8.21    1.36
   0  -7  12   17.40    1.75
   0  -7  12   17.66    1.82
   0  -7  11   68.48    3.67
   0  -7  11   66.61    3.62
   0  -7  11   65.15    3.67
   0  -7  10   10.40    1.38
   0  -7  10    9.10    1.37
   0  -7  10    9.59    1.35
   0  -7   9   82.21    3.91
   0  -7   9   82.11    3.94
   0  -7   9   77.75    3.85
   0   7  -8   76.25    6.80
   0   7  -7   68.31    6.23
   0   7  -6  348.98   14.82
   0   7  -5   28.87    3.63
   0   7  -4    8.33    2.04
   0   7  -3  773.11   24.31
   0   7  -2    0.78    1.04
   0   7  -1    4.38    1.37
   0  -7   0   18.34    2.79
   0   7   0   14.32    2.64
   0   7   1    1.37    1.01
   0  -7  -1    2.88    1.25
   0  -7  -2    2.04    1.31
   0   7   3  150.31    5.79
   0   7   4  368.39   11.07
   0   7   5   63.58    3.62
   0   7   6    1.78    0.94
   0   7   7   17.18    1.68
   0  -7  -8    0.98    0.66
   0   7   8    1.09    0.52
   0  -8  15   29.73    1.58
   0  -8  14    0.24    0.51
   0  -8  13    9.48    1.25
   0  -8  13    9.21    1.28
   0  -8  12   49.20    2.87
   0  -8  12   46.06    2.93
   0  -8  12   45.90    2.87
   0  -8  11   16.09    1.69
   0  -8  11   19.59    1.89
   0  -8  11   18.70    1.80
   0  -8  10  267.97    8.73
   0  -8  10  272.23    8.74
   0  -8  10  271.42    8.68
   0  -8   9    0.77    0.54
   0  -8   9    0.18    0.53
   0  -8   9    0.36    0.42
   0  -8   8    3.86    0.70
   0  -8   8    4.98    0.88
   0   8  -7  237.11   12.70
   0   8  -6   16.02    3.14
   0   8  -5  136.06    8.91
   0   8  -4   12.56    2.86
   0   8  -3  137.68    8.87
   0   8  -2    7.78    1.92
   0   8  -1   18.69    3.23
   0   8   0    7.51    2.04
   0  -8  -1    5.91    1.04
   0  -8  -1    5.69    0.98
   0  -8  -2   29.13    2.29
   0   8   3    2.19    0.74
   0  -8  -3    2.30    0.77
   0   8   4    5.03    1.04
   0   8   5    1.81    0.61
   0  -8  -6    0.33    0.70
   0   8   6    1.65    0.71
   0  -8  -7    3.88    0.78
   0  -9  14   19.70    1.43
   0  -9  13    1.53    0.64
   0  -9  13    0.12    0.60
   0  -9  12   44.30    2.68
   0  -9  12   45.45    2.80
   0  -9  11  125.31    5.01
   0  -9  11  130.67    5.20
   0  -9  11  123.73    5.21
   0  -9  10  188.09    6.98
   0  -9  10  202.70    6.80
   0  -9  10  199.91    6.98
   0  -9   9  109.26    4.71
   0  -9   9  111.33    4.78
   0  -9   9  104.73    4.72
   0  -9   8   19.39    1.91
   0  -9   8   22.56    1.97
   0  -9   7   -0.34    0.46
   0  -9   7    1.37    0.54
   0  -9   6    0.82    0.47
   0   9  -5   48.85    5.55
   0  -9   5   44.03    2.64
   0   9  -4   -0.20    1.11
   0   9  -3    4.10    1.76
   0  -9   2    0.61    0.39
   0  -9   1   50.02    2.99
   0  -9   1   46.86    2.91
   0  -9   0   29.04    2.33
   0  -9   0   32.48    2.43
   0  -9  -1    4.09    1.03
   0  -9  -1    4.39    0.99
   0  -9  -2   14.44    1.66
   0  -9  -2   15.66    1.71
   0  -9  -3    0.02    0.63
   0  -9  -4   13.59    1.53
   0  -9  -5   85.13    3.89
   0  -9  -6    5.05    0.83
   0 -10  14   12.96    1.12
   0 -10  13    8.63    1.17
   0 -10  12  156.94    5.69
   0 -10  11   10.38    1.45
   0 -10  11   10.73    1.23
   0 -10  10   46.39    3.01
   0 -10  10   49.01    2.94
   0 -10   9   19.66    1.91
   0 -10   9   19.50    1.91
   0 -10   9   20.65    1.89
   0 -10   8   12.16    1.52
   0 -10   8   14.31    1.56
   0 -10   8   11.76    1.50
   0 -10   7    0.11    0.49
   0 -10   7    0.48    0.48
   0 -10   6    6.11    1.13
   0 -10   6    8.84    1.16
   0 -10   5   19.39    1.80
   0 -10   5   17.41    1.75
   0 -10   4    7.12    1.17
   0 -10   4    4.85    0.85
   0 -10   3   13.09    1.51
   0 -10   3   10.99    1.41
   0 -10   2    0.43    0.66
   0 -10   2   -0.15    0.54
   0 -10   1    2.07    0.68
   0 -10   1    2.55    0.79
   0 -10   0  107.60    4.83
   0 -10  -1    2.72    0.93
   0 -10  -2   13.72    1.54
   0 -10  -3   34.17    2.41
   0 -10  -4    1.01    0.58
   0 -10  -5    0.02    0.44
   0 -11  14   -0.59    0.34
   0 -11  13    5.39    0.84
   0 -11  12   57.52    2.90
   0 -11  11    9.75    1.27
   0 -11  11   11.09    1.24
   0 -11  10   25.96    2.08
   0 -11  10   24.93    2.04
   0 -11   9   -0.42    0.67
   0 -11   9   -0.04    0.59
   0 -11   8    5.92    1.08
   0 -11   8    5.05    1.00
   0 -11   8    4.55    1.05
   0 -11   7   23.56    2.08
   0 -11   7   21.90    2.04
   0 -11   7   27.13    2.19
   0 -11   6    3.91    0.92
   0 -11   6    3.60    0.88
   0 -11   6    3.48    0.91
   0 -11   5   28.63    2.26
   0 -11   5   28.22    2.25
   0 -11   5   32.44    2.48
   0 -11   4   16.60    1.69
   0 -11   4   15.79    1.71
   0 -11   4   14.66    1.71
   0 -11   3   52.24    3.12
   0 -11   3   53.68    3.25
   0 -11   2   22.39    2.06
   0 -11   2   20.47    1.88
   0 -11   1   -0.33    0.50
   0 -11   1    0.08    0.59
   0 -11   0    0.00    0.66
   0 -11   0    0.37    0.53
   0 -11  -1   -0.31    0.40
   0 -11  -1    1.20    0.62
   0 -11  -2   20.85    1.79
   0 -11  -3   76.24    3.29
   0 -11  -4    0.24    0.33
   0 -12  13    1.38    0.45
   0 -12  12    4.04    0.75
   0 -12  11   -0.58    0.51
   0 -12  11    0.06    0.44
   0 -12  10   -0.36    0.57
   0 -12  10   -0.02    0.50
   0 -12   9    0.83    0.81
   0 -12   9    0.61    0.52
   0 -12   8   -0.52    0.67
   0 -12   8    0.04    0.56
   0 -12   7  102.76    4.51
   0 -12   7  106.19    4.47
   0 -12   7   95.21    4.37
   0 -12   6    6.95    1.20
   0 -12   6    7.45    1.19
   0 -12   6    8.73    1.26
   0 -12   5   54.29    3.16
   0 -12   5   55.19    3.19
   0 -12   4   99.99    4.40
   0 -12   4   93.66    4.08
   0 -12   4   92.11    4.26
   0 -12   3   43.38    2.75
   0 -12   3   43.93    2.70
   0 -12   2    7.63    1.10
   0 -12   2    9.65    1.26
   0 -12   1   69.11    3.45
   0 -12   1   64.52    3.15
   0 -12   0    1.15    0.54
   0 -12   0    1.46    0.65
   0 -12  -1    5.06    0.85
   0 -12  -2    1.56    0.52
   0 -13  12   12.89    1.04
   0 -13  11    2.91    0.65
   0 -13  10   84.54    3.50
   0 -13  10   84.83    3.51
   0 -13   9   -0.58    0.59
   0 -13   9   -0.01    0.48
   0 -13   8   12.99    1.39
   0 -13   8   11.77    1.37
   0 -13   7    0.50    0.47
   0 -13   7   -0.35    0.53
   0 -13   6   49.69    2.72
   0 -13   6   43.26    2.62
   0 -13   6   50.93    2.71
   0 -13   5  109.35    4.29
   0 -13   5  107.48    4.19
   0 -13   5   99.67    4.23
   0 -13   4    4.71    0.84
   0 -13   4    5.95    0.95
   0 -13   3   48.12    2.63
   0 -13   3   46.72    2.52
   0 -13   2    0.12    0.39
   0 -13   2   -0.38    0.47
   0 -13   1    2.52    0.57
   0 -13   1    1.84    0.48
   0 -13   0   14.94    1.14
   0 -14  10    5.27    0.68
   0 -14   9   20.32    1.46
   0 -14   9   20.09    1.39
   0 -14   8   22.74    1.56
   0 -14   8   21.42    1.55
   0 -14   7   47.74    2.39
   0 -14   7   49.21    2.41
   0 -14   6   20.54    1.49
   0 -14   6   20.23    1.42
   0 -14   4    0.83    0.33
   0 -14   3    0.69    0.41
   1 -14   2   26.71    1.57
   1 -14   3    1.22    0.49
   1 -14   4   26.35    1.72
   1 -14   5    1.01    0.47
   1 -14   5    1.21    0.45
   1 -14   6   -0.13    0.39
   1 -14   6    0.65    0.48
   1 -14   7   65.28    2.90
   1 -14   7   64.61    2.84
   1 -14   8    2.39    0.58
   1 -14   8    1.58    0.58
   1 -14   8    2.78    0.58
   1 -14   9    4.50    0.67
   1 -14   9    4.78    0.73
   1 -14  10    3.23    0.58
   1 -13  -1   11.16    0.94
   1 -13   0    2.73    0.66
   1 -13   1    9.54    1.20
   1 -13   2   -0.24    0.43
   1 -13   2   -0.83    0.63
   1 -13   3    0.72    0.59
   1 -13   3   -0.01    0.42
   1 -13   4   45.67    2.43
   1 -13   4   41.64    2.59
   1 -13   4   41.61    2.43
   1 -13   5    0.01    0.45
   1 -13   5   -0.45    0.45
   1 -13   5   -0.43    0.51
   1 -13   6    1.79    0.63
   1 -13   6    1.45    0.47
   1 -13   6    0.82    0.54
   1 -13   7   14.03    1.48
   1 -13   7   12.19    1.42
   1 -13   7   14.27    1.40
   1 -13   8   50.86    2.83
   1 -13   8   49.53    2.74
   1 -13   8   52.24    2.71
   1 -13   9    6.01    0.93
   1 -13   9    6.22    1.01
   1 -13   9    3.89    0.75
   1 -13  10   20.00    1.53
   1 -13  10   23.41    1.69
   1 -13  10   22.42    1.56
   1 -13  11   42.41    2.09
   1 -13  11   40.12    1.98
   1 -13  11   39.36    1.96
   1 -12  -2    4.64    0.76
   1 -12  -1    2.94    0.82
   1 -12   0    1.99    0.79
   1 -12   1   10.96    1.35
   1 -12   1    8.94    1.08
   1 -12   2   36.20    2.32
   1 -12   2   34.33    2.50
   1 -12   3   22.58    1.90
   1 -12   3   21.85    2.02
   1 -12   4    8.93    1.30
   1 -12   4    5.71    1.14
   1 -12   5   37.91    2.70
   1 -12   5   42.83    2.68
   1 -12   6  277.86    8.92
   1 -12   6  283.32    8.78
   1 -12   7   68.99    3.45
   1 -12   7   60.39    3.41
   1 -12   8   78.69    3.83
   1 -12   8   74.08    3.80
   1 -12   8   82.25    3.80
   1 -12   9    4.12    0.89
   1 -12   9    5.23    1.06
   1 -12   9    5.53    0.97
   1 -12  10    4.83    0.87
   1 -12  10    3.36    0.86
   1 -12  10    5.20    0.92
   1 -12  11    0.74    0.56
   1 -12  11   -0.34    0.43
   1 -12  11    0.62    0.43
   1 -12  12   14.01    1.18
   1 -12  12   13.72    1.17
   1 -11  -4    1.61    0.60
   1 -11  -3   -0.54    0.61
   1 -11  -2    4.71    0.98
   1 -11  -1   52.64    3.13
   1 -11   0   51.94    3.16
   1 -11   1    3.24    0.78
   1 -11   1    1.21    0.66
   1 -11   2  132.76    5.64
   1 -11   2  144.33    5.48
   1 -11   3    8.73    1.24
   1 -11   3    8.58    1.33
   1 -11   4  312.35    9.41
   1 -11   4  301.00    9.65
   1 -11   5   64.53    3.60
   1 -11   5   65.72    3.50
   1 -11   6    5.68    1.03
   1 -11   6    4.81    1.07
   1 -11   7    1.46    0.56
   1 -11   7    1.47    0.74
   1 -11   8    0.10    0.52
   1 -11   8    1.05    0.75
   1 -11   9   -0.41    0.65
   1 -11   9    0.30    0.49
   1 -11   9   -0.73    0.76
   1 -11  10   54.17    3.05
   1 -11  10   58.03    3.12
   1 -11  10   52.11    3.00
   1 -11  11   30.00    2.16
   1 -11  11   30.76    2.15
   1 -11  11   30.12    1.99
   1 -11  12   -0.32    0.46
   1 -11  12    0.66    0.43
   1 -11  13    0.47    0.36
   1 -10  -5    5.36    0.89
   1 -10  -4   20.71    1.79
   1 -10  -3   16.17    1.69
   1 -10  -2   39.72    2.77
   1 -10  -1    8.71    1.40
   1 -10   0  229.36    7.92
   1 -10   1   17.15    1.66
   1 -10   1   13.34    1.60
   1 -10   2  134.39    5.31
   1 -10   2  142.25    5.72
   1 -10   3   70.33    3.78
   1 -10   3   73.24    3.64
   1 -10   4    7.44    1.13
   1 -10   4    7.77    1.20
   1 -10   5    0.39    0.52
   1 -10   5    1.99    0.72
   1 -10   6   82.10    3.96
   1 -10   6   84.98    4.18
   1 -10   7  103.38    4.63
   1 -10   7  105.69    4.73
   1 -10   8    0.40    0.47
   1 -10   8   -0.02    0.70
   1 -10   9    4.79    1.03
   1 -10   9    6.13    1.14
   1 -10  10    2.02    0.77
   1 -10  10    2.70    0.81
   1 -10  10    3.91    1.00
   1 -10  11  155.88    5.76
   1 -10  11  157.08    5.87
   1 -10  12    9.65    1.19
   1 -10  12    9.39    1.18
   1 -10  13    0.34    0.45
   1 -10  13    0.84    0.49
   1 -10  14   71.42    2.66
   1  -9  -7   16.15    1.20
   1  -9  -6   -0.14    0.54
   1  -9  -5   10.99    1.43
   1  -9  -4   73.33    3.82
   1  -9  -3   48.56    3.12
   1  -9  -2    4.36    1.01
   1  -9  -1   35.93    2.63
   1  -9   0   93.50    4.40
   1  -9   1    1.16    0.48
   1  -9   1    1.41    0.61
   1  -9   2   84.58    4.02
  -1   9  -3   65.56    6.31
  -1   9  -4    9.94    2.41
  -1   9  -5   10.43    2.63
   1  -9   6  167.45    6.16
   1  -9   6  165.62    5.96
   1  -9   7   82.29    3.89
   1  -9   7   79.22    3.92
   1  -9   8    6.29    1.13
   1  -9   8    6.32    1.06
   1  -9   9   -0.35    0.48
   1  -9   9   -0.30    0.62
   1  -9  10    1.40    0.65
   1  -9  10    2.01    0.76
   1  -9  11   45.72    2.82
   1  -9  11   44.12    2.86
   1  -9  11   47.48    2.90
   1  -9  12  100.19    4.31
   1  -9  12   98.16    4.27
   1  -9  12  103.76    4.46
   1  -9  13    5.31    0.96
   1  -9  13    6.45    0.98
   1  -9  14    0.56    0.47
   1  -8  -8    4.17    0.67
   1  -8  -7   35.53    2.31
   1  -8  -6   20.92    1.91
  -1   8   5    2.39    0.94
  -1   8   4    5.85    1.04
  -1   8   4    5.43    1.20
  -1   8   3   78.40    3.99
  -1   8   3   73.76    3.79
  -1   8   2    5.88    1.12
   1  -8  -2    6.35    1.09
   1  -8  -1  248.05    8.11
   1  -8   0   -1.18    1.09
  -1   8  -1    8.15    2.03
  -1   8  -2   21.15    3.39
  -1   8  -3   83.53    6.77
  -1   8  -4    0.61    1.12
  -1   8  -5  116.13    8.13
  -1   8  -6  214.11   11.54
  -1   8  -7    0.30    0.73
   1  -8   8    6.32    1.02
   1  -8   8    5.09    0.95
   1  -8   9    5.03    1.04
   1  -8   9    2.50    0.71
   1  -8   9    4.75    1.01
   1  -8  10   20.62    1.93
   1  -8  10   17.68    1.86
   1  -8  10   19.41    1.87
   1  -8  11   41.04    2.70
   1  -8  11   40.37    2.73
   1  -8  11   38.56    2.75
   1  -8  12  169.70    6.05
   1  -8  12  168.32    6.18
   1  -8  12  159.57    6.13
   1  -8  13   21.24    1.84
   1  -8  13   21.10    1.74
   1  -8  14    1.23    0.53
   1  -7  -9    1.09    0.50
   1  -7  -8    9.63    1.19
  -1   7   7   66.90    3.31
  -1   7   7   62.26    3.41
  -1   7   6    1.29    0.92
  -1   7   6    0.82    0.48
  -1   7   5   15.38    1.84
  -1   7   5   21.23    1.95
  -1   7   4   21.20    1.92
  -1   7   4   18.32    1.89
  -1   7   3   63.86    3.43
  -1   7   3   64.88    3.51
   1  -7  -2   20.94    3.41
   1  -7  -1  122.13    8.10
   1  -7   0    1.60    1.17
  -1   7  -1   47.07    4.69
   1  -7   1   55.75    4.99
  -1   7  -2   39.08    4.32
  -1   7  -3   17.44    2.86
  -1   7  -4  147.61    8.44
  -1   7  -5   31.90    3.82
  -1   7  -6   40.77    4.65
  -1   7  -7   12.25    2.69
  -1   7  -8   90.54    7.48
   1  -7   9    1.43    0.63
   1  -7   9    1.29    0.44
   1  -7  10  123.45    5.47
   1  -7  10  136.29    5.53
   1  -7  10  138.20    5.42
   1  -7  11  118.57    5.16
   1  -7  11  128.10    5.18
   1  -7  11  116.96    5.24
   1  -7  12    5.32    1.12
   1  -7  12    7.41    1.17
   1  -7  12    5.85    1.07
   1  -7  13   50.99    3.03
   1  -7  14   21.98    1.70
   1  -7  15    0.62    0.30
  -1   6   9   13.40    1.26
  -1   6   9   14.19    1.50
  -1   6   8   57.32    3.31
  -1   6   8   60.18    3.15
  -1   6   7   24.76    2.12
  -1   6   7   22.66    2.17
  -1   6   6   11.80    1.48
  -1   6   6   11.74    1.63
  -1   6   5   76.74    3.95
  -1   6   5   84.52    4.21
  -1   6   4    0.37    0.43
  -1   6   4    1.18    0.48
   1  -6  -3   92.67    7.07
   1  -6  -2    1.67    0.89
   1  -6  -1   28.56    3.53
  -1   6   1   31.82    3.35
   1  -6   0  224.96   10.12
  -1   6   0  206.54    9.82
  -1   6  -1   95.45    6.11
   1  -6   1   93.73    6.04
  -1   6  -2    0.38    0.99
  -1   6  -3    6.32    1.70
  -1   6  -4  146.05    7.87
  -1   6  -5    4.98    1.67
  -1   6  -6    7.31    2.10
  -1   6  -7   68.28    5.95
  -1   6  -8   49.07    5.30
   1  -6   9   52.51    2.98
   1  -6   9   51.38    3.03
   1  -6  10   33.62    2.38
   1  -6  10   29.26    2.46
   1  -6  10   30.44    2.38
   1  -6  11  186.18    6.94
   1  -6  11  192.34    7.15
   1  -6  11  191.95    6.81
   1  -6  12  204.74    7.37
   1  -6  12  211.39    7.20
   1  -6  13   13.40    1.55
   1  -6  14  101.65    4.03
  -1   5  10   60.39    2.97
  -1   5  10   64.49    2.84
  -1   5   9   43.93    2.86
  -1   5   9   45.84    2.71
  -1   5   8   16.94    1.91
  -1   5   8   20.77    1.95
  -1   5   7   68.62    3.72
  -1   5   7   67.48    3.85
  -1   5   6    9.75    1.36
  -1   5   6    8.41    1.29
  -1   5   5    5.93    1.12
   1  -5  -5    3.18    1.09
  -1   5   5    5.10    0.94
   1  -5  -4   10.51    2.22
   1  -5  -3   71.60    5.66
   1  -5  -2    6.30    1.65
  -1   5   2    8.63    1.63
  -1   5   1  427.55   13.84
   1  -5  -1  427.39   14.68
   1  -5   0  500.52   15.92
  -1   5   0  493.18   15.92
   1  -5   1  156.55    7.42
  -1   5  -1  160.03    7.43
  -1   5  -2  389.77   13.08
  -1   5  -2  394.55   11.97
  -1   5  -3   27.81    2.96
  -1   5  -3   29.57    2.42
  -1   5  -4   69.61    3.93
  -1   5  -4   62.15    4.64
  -1   5  -5  147.50    6.47
  -1   5  -5  150.93    7.85
  -1   5  -6   11.85    1.81
  -1   5  -6   12.77    2.44
  -1   5  -7    3.48    1.56
  -1   5  -8    1.19    1.13
  -1   5  -9  120.94    8.81
   1  -5  10  307.62    9.71
   1  -5  10  308.05    9.95
   1  -5  10  322.32    9.60
   1  -5  11    5.00    1.13
   1  -5  11    4.65    1.00
   1  -5  11    4.70    1.03
   1  -5  12  100.24    4.71
   1  -5  13   11.89    1.46
   1  -5  14   49.83    2.59
  -1   4  11   49.72    2.43
  -1   4  11   42.53    2.19
  -1   4  10    0.81    0.69
  -1   4  10   -0.55    0.71
  -1   4   9    0.39    0.60
  -1   4   9    0.43    0.78
  -1   4   8    2.10    1.13
  -1   4   8    1.56    0.68
  -1   4   7   80.27    4.03
  -1   4   7   78.66    4.14
   1  -4  -6  174.59   10.57
  -1   4   6  187.49    6.82
  -1   4   6  197.40    6.76
   1  -4  -5  179.10    9.99
   1  -4  -4  119.40    7.40
  -1   4   3    4.42    1.19
   1  -4  -3    6.62    1.56
   1  -4  -2  720.97   20.95
  -1   4   2  725.50   19.44
  -1   4   1  849.56   19.92
   1  -4  -1  810.52   22.63
   1  -4   0   64.28    4.06
  -1   4   0   67.12    4.19
  -1   4  -1  216.38    7.67
  -1   4  -1  229.69    8.23
   1  -4   1  235.96    8.39
   1  -4   1  206.60    5.06
  -1   4  -2  380.04   11.11
  -1   4  -2  372.37   11.82
  -1   4  -3   12.77    1.55
  -1   4  -3   10.54    1.81
  -1   4  -4   63.47    4.35
  -1   4  -4   64.82    3.81
  -1   4  -5  231.49    8.81
  -1   4  -5  229.11    9.65
  -1   4  -6    9.04    1.83
  -1   4  -6    9.53    2.05
  -1   4  -7   24.17    3.06
  -1   4  -7   19.55    3.03
  -1   4  -8   75.44    6.40
  -1   4  -9    1.54    1.50
   1  -4  10    6.29    1.08
   1  -4  10    6.73    1.13
   1  -4  10    5.68    1.22
   1  -4  11  116.91    5.23
   1  -4  12    3.05    0.97
   1  -4  13   28.86    2.15
   1  -4  14  117.96    4.15
  -1   3  11   10.11    1.23
  -1   3  11   11.16    1.33
  -1   3  10    6.89    1.14
  -1   3  10    6.28    1.20
  -1   3   9   45.23    3.08
  -1   3   9   47.02    3.05
  -1   3   8  255.57    8.32
  -1   3   8  227.34    8.22
  -1   3   7   26.22    2.13
  -1   3   7   26.28    2.13
   1  -3  -6   87.35    6.82
   1  -3  -5  308.51   12.99
   1  -3  -4  560.68   18.13
   1  -3  -3  294.18   11.03
  -1   3   3  302.94    9.77
   1  -3  -2  258.35    9.39
  -1   3   2  257.19    8.25
   1  -3  -1  579.35   15.87
  -1   3   1  566.72   14.23
  -1   3   0  905.47   22.48
  -1   3  -1   61.00    3.21
  -1   3  -1   65.01    3.44
  -1   3  -1   70.46    2.71
  -1   3  -2   33.70    2.50
  -1   3  -2   31.95    2.21
  -1   3  -3   53.61    3.49
  -1   3  -3   54.03    3.20
  -1   3  -4  129.26    6.16
  -1   3  -4  143.81    6.09
  -1   3  -5    1.50    0.94
   1  -3   6   70.65    4.95
  -1   3  -6   63.01    4.60
   1  -3   7  157.65    8.43
   1  -3   8   93.77    6.84
  -1   3  -8   90.64    6.72
   1  -3   9    1.24    0.56
   1  -3   9    2.48    0.69
   1  -3  10  337.48   10.20
   1  -3  10  329.86   10.42
   1  -3  11   87.89    4.39
   1  -3  11   88.43    4.25
   1  -3  12   40.29    2.77
   1  -3  12   42.65    2.69
   1  -3  13    7.58    1.04
   1  -3  14    2.10    0.47
  -1   2  12   44.36    2.35
  -1   2  12   39.83    2.31
  -1   2  11    3.99    0.95
  -1   2  11    4.63    0.94
  -1   2  10   38.41    2.79
  -1   2  10   41.73    2.85
  -1   2   9   31.38    2.47
  -1   2   9   34.90    2.66
  -1   2   8  151.52    6.03
   1  -2  -7   91.84    7.23
  -1   2   7   95.75    7.38
   1  -2  -6   12.81    2.52
  -1   2   6   12.39    2.44
   1  -2  -5    3.43    1.20
   1  -2  -4  760.44   22.63
  -1   2   4  833.04   20.86
  -1   2   3  570.33   14.39
   1  -2  -3  503.78   15.83
  -1   2   2    4.14    0.69
  -1   2   1  321.72    8.72
  -1   2   0   27.64    1.97
  -1   2   0   26.88    1.84
  -1   2  -1    6.85    1.00
   1  -2   1    6.91    1.01
  -1   2  -1    6.36    0.91
  -1   2  -2 1313.73   29.71
  -1   2  -2 1254.63   29.77
  -1   2  -3   18.62    1.89
   1  -2   3   22.02    1.83
   1  -2   4    0.68    0.73
   1  -2   5  204.13    8.14
   1  -2   6  122.81    6.62
   1  -2   7    8.96    2.03
   1  -2   8   61.98    5.46
   1  -2   9  425.47   12.24
   1  -2   9  427.91   17.76
   1  -2   9  438.44   12.32
   1  -2  10   19.49    1.96
   1  -2  10   20.52    2.07
   1  -2  11    1.36    0.84
   1  -2  11    0.47    0.63
   1  -2  12   45.48    2.81
   1  -2  12   45.38    2.75
   1  -2  13    2.17    0.66
   1  -2  14    7.27    0.81
  -1   1  13    6.75    0.83
  -1   1  12   47.23    2.61
  -1   1  12   43.07    2.63
  -1   1  11   68.00    3.76
  -1   1  11   74.12    3.82
  -1   1  10  100.72    4.74
  -1   1   9   94.54    4.54
  -1   1   8   12.17    1.38
   1  -1  -8   10.86    2.63
  -1   1   7   12.25    2.62
  -1   1   6  157.93    8.53
  -1   1   5   10.03    1.47
  -1   1   5    8.81    1.75
  -1   1   4  724.45   17.85
  -1   1   4  693.08   18.16
  -1   1   3  100.43    3.96
  -1   1   3  110.68    3.96
  -1   1   2   10.79    0.89
  -1   1   2   14.24    1.07
  -1   1   1  867.21   20.53
  -1   1   1  896.00   19.13
  -1   1   0    4.00    0.43
  -1   1   0    4.03    0.77
   1  -1   0    3.87    0.57
  -1   1   0    4.03    0.47
  -1   1  -1   20.61    1.62
  -1   1  -1   22.15    1.24
   1  -1   1   21.37    1.40
   1  -1   2   78.06    3.54
   1  -1   2   78.45    2.92
   1  -1   3  406.62   10.94
   1  -1   3  390.78   11.74
   1  -1   4   46.27    3.07
   1  -1   4   47.05    3.52
   1  -1   5  135.22    6.38
   1  -1   5  138.53    6.98
   1  -1   6  571.47   17.30
   1  -1   6  490.26   17.25
   1  -1   7    2.52    0.93
   1  -1   8  249.04   12.09
   1  -1   9  245.36    8.15
   1  -1   9  250.24    8.26
   1  -1  10  121.31    5.14
   1  -1  10  111.84    5.05
   1  -1  11   13.83    1.62
   1  -1  12    1.49    0.63
   1  -1  13    6.17    0.92
   1  -1  13    6.28    0.89
  -1   0  13    7.34    1.04
  -1   0  12  108.60    4.35
  -1   0  12   91.74    4.32
  -1   0  11   50.24    3.08
  -1   0  10   85.08    4.02
  -1   0  10   80.01    4.14
  -1   0   9   46.65    2.75
  -1   0   9   42.25    2.85
  -1   0   8   50.44    5.27
  -1   0   7    5.34    1.82
  -1   0   6  603.70   19.45
  -1   0   5  110.98    6.20
  -1   0   4    0.28    0.71
  -1   0   3    9.30    1.42
  -1   0   2  429.16   11.23
  -1   0   1   48.02    2.02
  -1   0   1   49.51    1.97
  -1   0   0   90.15    3.14
   1   0   0   92.69    2.36
   1   0   0   93.20    2.84
   1   0   1  331.48    8.76
   1   0   2 3223.13   70.46
   1   0   3  434.68   12.75
   1   0   4    6.58    1.47
   1   0   4    5.90    1.29
   1   0   5  175.86    8.39
   1   0   5  203.23    8.36
   1   0   6  262.02   10.80
   1   0   6  246.20   11.02
   1   0   7   95.89    6.65
   1   0   7   88.87    6.72
   1   0   8    0.47    0.86
   1   0   9  165.09    6.38
   1   0  10    3.14    0.98
   1   0  11   69.61    3.79
   1   0  12    6.29    1.03
   1   0  12    9.54    1.27
   1   0  13   19.37    1.37
   1   0  13   15.85    1.19
  -1  -1  14    0.93    0.47
  -1  -1  13   30.50    2.20
  -1  -1  12   27.30    2.01
  -1  -1  11   51.19    3.05
  -1  -1  10   17.70    1.80
  -1  -1   9    4.13    0.90
  -1  -1   8  143.80    9.04
  -1  -1   7  180.15    9.43
  -1  -1   6    1.57    1.09
  -1  -1   5   68.27    4.79
  -1  -1   4  492.98   14.56
  -1  -1   3  520.18   14.09
  -1  -1   2  273.77    7.96
  -1  -1   1   44.87    1.55
   1   1  -1   42.41    1.83
  -1  -1   1   42.17    2.05
   1   1   0  268.21    6.84
  -1  -1  -1  321.49    7.97
   1   1   1  336.05    9.32
   1   1   2   40.63    2.81
   1   1   3 1227.49   30.31
   1   1   4    8.79    1.66
   1   1   5  150.67    7.37
   1   1   5  129.80    7.24
   1   1   6    3.92    1.49
   1   1   6    2.39    1.20
   1   1   7  130.95    8.29
   1   1   7  128.12    8.45
   1   1   8   68.55    3.73
   1   1   9  123.03    5.43
   1   1  10  106.45    4.93
   1   1  11   -0.15    0.52
   1   1  11    0.59    0.68
   1   1  12   48.67    2.44
   1   1  12   51.05    2.73
  -1  -2  14    1.60    0.62
  -1  -2  13   32.55    2.12
  -1  -2  12    1.76    0.70
  -1  -2  11    6.01    1.21
  -1  -2  10    1.39    0.58
  -1  -2   9   11.50    2.61
  -1  -2   8   26.34    3.78
  -1  -2   7   23.08    3.11
  -1  -2   6  724.76   21.65
  -1  -2   5  119.24    6.46
  -1  -2   4   44.88    3.39
  -1  -2   3 1095.78   26.42
  -1  -2   3 1070.41   26.45
  -1  -2   2  332.46    8.86
   1   2  -2  335.87    9.64
  -1  -2   1 6050.63  129.43
   1   2  -1 6098.89  129.32
   1   2   0 1568.77   35.46
  -1  -2   0 1601.24   34.89
  -1  -2   0 1545.84   34.68
  -1  -2  -1   14.15    1.26
   1   2   1   11.16    1.54
  -1  -2  -1   12.75    0.67
   1   2   2    9.14    1.44
   1   2   3   28.06    2.89
  -1  -2  -3   28.99    2.42
   1   2   4  672.96   20.63
  -1  -2  -4  729.50   19.97
   1   2   5   36.01    3.77
  -1  -2  -5   39.09    3.60
   1   2   6    5.04    1.65
   1   2   6    4.21    1.37
   1   2   7    0.37    0.92
   1   2   7    1.42    0.57
   1   2   7    0.15    1.20
   1   2   8   25.84    2.31
   1   2   9  129.53    5.60
   1   2  10   50.95    2.96
   1   2  10   55.01    3.30
   1   2  11   12.34    1.27
   1   2  11   10.56    1.34
   1   2  12   -0.73    0.55
  -1  -3  14    9.09    0.98
  -1  -3  13    4.40    1.01
  -1  -3  12   84.95    4.15
  -1  -3  11    3.30    0.93
  -1  -3  10   53.89    3.16
  -1  -3  10   48.35    2.99
  -1  -3   9   56.39    5.87
  -1  -3   8   92.19    7.03
  -1  -3   7   76.57    5.94
  -1  -3   6    2.72    1.30
  -1  -3   5  163.85    7.91
   1   3  -4 1511.84   36.64
   1   3  -3   14.88    1.82
  -1  -3   3   15.82    1.89
  -1  -3   3   15.48    1.28
  -1  -3   2   17.00    1.75
   1   3  -2   15.84    1.68
   1   3  -1 2265.15   51.00
   1   3   0 1284.93   30.68
   1   3   1  538.27   15.68
  -1  -3  -2  229.56    8.10
   1   3   2  220.25    8.94
  -1  -3  -3   76.13    4.54
   1   3   3   71.01    5.01
   1   3   4    8.37    1.94
  -1  -3  -4    5.30    1.24
   1   3   5  102.87    7.03
   1   3   6    0.16    0.93
   1   3   6    1.94    1.12
   1   3   7   56.09    3.38
   1   3   8  267.82    8.99
   1   3   9   19.30    2.02
   1   3  10    3.69    1.09
   1   3  11   13.89    1.42
  -1  -4  14    4.58    0.84
  -1  -4  13   45.58    2.80
  -1  -4  12   75.54    3.93
  -1  -4  11    4.89    1.02
  -1  -4  11    4.29    0.99
  -1  -4  10  151.61    5.94
  -1  -4  10  145.87    5.69
   1   4  -9   68.41    6.40
   1   4  -8  527.40   19.51
   1   4  -7   58.01    5.15
   1   4  -6   -0.48    1.10
   1   4  -5    8.46    1.85
   1   4  -4  360.62   12.24
  -1  -4   4  351.07   11.79
  -1  -4   3  143.47    6.17
   1   4  -3  125.42    6.12
   1   4  -2   41.44    3.10
   1   4  -1  481.97   14.47
  -1  -4   0  140.58    6.01
   1   4   0  139.44    6.53
   1   4   1  270.02   10.50
  -1  -4  -1  272.83    9.52
   1   4   2  316.67   12.51
  -1  -4  -2  377.97   12.15
   1   4   3  119.00    7.26
  -1  -4  -3  142.80    7.12
   1   4   4  125.97    7.83
   1   4   5   76.13    6.37
   1   4   6   37.68    2.68
   1   4   7   77.49    4.13
   1   4   8   47.58    3.16
   1   4   9   42.78    2.88
   1   4  10    8.60    1.22
   1   4  11    0.09    0.37
  -1  -5  15    2.19    0.53
  -1  -5  15    0.09    0.31
  -1  -5  14    0.56    0.51
  -1  -5  13   31.33    2.33
  -1  -5  12   11.00    1.50
  -1  -5  12   10.50    1.42
  -1  -5  11   43.88    2.90
  -1  -5  11   41.74    2.79
  -1  -5  10  231.05    7.84
  -1  -5  10  241.59    7.98
   1   5  -9   19.61    3.58
   1   5  -8   51.37    5.23
   1   5  -7    0.54    0.92
   1   5  -6    0.01    1.15
   1   5  -5   28.37    3.28
  -1  -5   4   10.10    1.74
   1   5  -4   11.80    2.02
  -1  -5   3  283.04   10.15
   1   5  -3  277.71   10.59
  -1  -5   2    3.52    1.13
   1   5  -2    3.88    1.23
  -1  -5   1  129.52    5.61
   1   5  -1  135.99    6.94
   1   5   0  974.99   26.37
  -1  -5   0  934.53   25.23
  -1  -5  -1  621.25   18.07
   1   5   1  550.72   18.61
   1   5   2   23.24    3.14
  -1  -5  -2   29.57    3.11
   1   5   3    1.57    1.23
   1   5   4   22.04    3.35
   1   5   5  133.67    5.57
  -1  -5  -5  141.58    5.47
   1   5   6  392.91   11.72
   1   5   7  202.82    7.40
   1   5   8    2.03    0.78
   1   5   9    4.43    1.01
   1   5  10   25.29    1.62
  -1  -6  15   52.19    2.29
  -1  -6  14    8.69    1.14
  -1  -6  13   36.01    2.47
  -1  -6  13   35.97    2.51
  -1  -6  12    8.76    1.28
  -1  -6  12    9.67    1.33
  -1  -6  11   37.35    2.66
  -1  -6  11   39.78    2.71
  -1  -6  10   25.05    2.16
  -1  -6  10   29.41    2.33
  -1  -6   9  110.11    4.69
  -1  -6   9  115.56    4.80
   1   6  -8    8.46    2.32
   1   6  -7   27.20    3.78
   1   6  -6   88.70    6.54
   1   6  -5    5.46    1.61
  -1  -6   4    1.43    0.99
   1   6  -4    0.93    0.93
  -1  -6   3   24.41    2.72
   1   6  -3   19.85    2.86
   1   6  -2   87.38    5.95
  -1  -6   2   79.49    5.01
   1   6  -1  250.38   10.92
  -1  -6   0  248.16   10.32
   1   6   0  227.52   10.88
   1   6   1  425.85   16.26
   1   6   2  135.09    8.56
   1   6   3   26.98    3.79
   1   6   4   71.05    3.71
  -1  -6  -4   65.74    3.50
  -1  -6  -5  311.93    9.67
   1   6   5  316.97    9.96
   1   6   6    0.72    0.68
   1   6   7    4.70    1.08
   1   6   8   27.18    2.03
   1   6   9   54.10    2.53
  -1  -7  15    7.50    0.82
  -1  -7  14    9.64    1.16
  -1  -7  13    5.50    1.10
  -1  -7  13    5.09    1.05
  -1  -7  12   23.07    2.05
  -1  -7  12   25.83    2.16
  -1  -7  11  154.62    5.91
  -1  -7  11  139.16    5.77
  -1  -7  10  129.49    5.48
  -1  -7  10  140.10    5.51
  -1  -7   9  115.72    4.78
  -1  -7   9  115.23    4.91
   1   7  -8    9.41    2.55
   1   7  -7   56.65    5.57
   1   7  -6   52.97    5.21
   1   7  -5   77.74    6.05
   1   7  -4   40.58    4.35
   1   7  -3  194.71   10.08
   1   7  -2 2060.46   52.47
   1   7  -1   -0.19    0.96
   1   7   0  160.35    9.51
   1   7   1    5.15    1.84
  -1  -7  -2   35.56    2.47
  -1  -7  -3   26.39    2.19
  -1  -7  -4    0.64    0.50
   1   7   4   -0.38    0.68
   1   7   5   15.01    1.64
  -1  -7  -5   15.75    1.59
   1   7   6   56.44    3.21
   1   7   7    5.86    1.00
   1   7   8   78.21    3.08
  -1  -7  -8   70.58    3.10
  -1  -8  15   45.84    2.01
  -1  -8  14   35.41    2.09
  -1  -8  13   84.52    3.75
  -1  -8  13   80.65    3.75
  -1  -8  12  177.87    6.46
  -1  -8  12  179.08    6.35
  -1  -8  11    3.20    0.85
  -1  -8  11    4.62    1.04
  -1  -8  10    6.33    1.00
  -1  -8  10    6.73    1.21
  -1  -8   9   54.80    3.04
  -1  -8   9   53.83    3.21
  -1  -8   8   -0.07    0.44
  -1  -8   8    0.87    0.50
   1   8  -7   80.26    6.91
   1   8  -6  160.63    9.85
   1   8  -5  153.96    9.53
   1   8  -4    7.39    2.11
   1   8  -3   91.54    7.13
   1   8  -2   15.23    2.96
   1   8  -1  192.73   11.13
  -1  -8   0    2.16    0.70
  -1  -8   0    0.04    0.52
  -1  -8  -1    9.43    1.33
  -1  -8  -1    9.78    1.31
  -1  -8  -2    6.59    1.10
  -1  -8  -3   -0.15    0.54
  -1  -8  -4   39.41    2.64
   1   8   5    0.72    0.61
   1   8   6   32.40    2.06
  -1  -8  -6   27.48    2.02
  -1  -8  -7    5.36    0.76
  -1  -9  14   12.30    1.22
  -1  -9  14   11.92    1.06
  -1  -9  13   73.88    3.24
  -1  -9  13   65.93    3.26
  -1  -9  12    3.66    0.81
  -1  -9  12    3.48    0.96
  -1  -9  11   20.69    1.93
  -1  -9  10   27.35    2.18
  -1  -9  10   25.03    2.27
  -1  -9   9  114.94    4.82
  -1  -9   9  106.77    4.84
  -1  -9   8   36.58    2.56
  -1  -9   8   41.04    2.75
  -1  -9   8   37.48    2.59
  -1  -9   7   16.45    1.60
  -1  -9   7   15.15    1.59
  -1  -9   6    0.74    0.49
  -1  -9   6    0.23    0.52
  -1  -9   5   17.73    1.69
  -1  -9   5   17.88    1.67
  -1  -9   4   34.27    2.34
  -1  -9   4   36.13    2.39
  -1  -9   3   65.07    3.29
  -1  -9   2    7.56    1.23
  -1  -9   1  157.91    5.92
  -1  -9   1  156.28    6.09
  -1  -9   0   11.42    1.53
  -1  -9   0   10.13    1.34
  -1  -9  -1    3.90    0.94
  -1  -9  -1    5.96    1.09
  -1  -9  -2   12.31    1.51
  -1  -9  -2   11.33    1.42
  -1  -9  -3   10.86    1.37
  -1  -9  -3    8.20    1.23
  -1  -9  -4   26.72    2.07
  -1  -9  -4   28.10    2.05
  -1  -9  -5    5.16    0.89
  -1  -9  -6   43.88    2.14
  -1 -10  14    5.36    0.80
  -1 -10  13   43.84    2.44
  -1 -10  12    3.39    0.82
  -1 -10  11  142.71    5.23
  -1 -10  11  137.89    5.50
  -1 -10  10    3.56    0.84
  -1 -10  10    3.02    0.90
  -1 -10   9    1.24    0.56
  -1 -10   9    0.78    0.68
  -1 -10   8    3.48    0.99
  -1 -10   8    1.74    0.74
  -1 -10   8    1.73    0.75
  -1 -10   7  114.58    4.87
  -1 -10   7  113.43    4.97
  -1 -10   6   10.02    1.38
  -1 -10   6   10.49    1.37
  -1 -10   5    2.81    0.78
  -1 -10   5    5.48    1.03
  -1 -10   4   13.46    1.60
  -1 -10   4   14.05    1.57
  -1 -10   3   66.00    3.32
  -1 -10   3   62.92    3.45
  -1 -10   2    7.17    1.12
  -1 -10   1   70.91    3.75
  -1 -10   1   75.23    3.92
  -1 -10   0    7.23    1.25
  -1 -10   0    4.60    0.97
  -1 -10  -1    4.46    0.91
  -1 -10  -1    4.81    1.00
  -1 -10  -2    5.24    1.03
  -1 -10  -2    5.53    0.91
  -1 -10  -3    1.13    0.49
  -1 -10  -3   -0.57    0.55
  -1 -10  -4    3.38    0.64
  -1 -10  -4    3.40    0.70
  -1 -11  14   45.12    1.98
  -1 -11  13   66.72    2.92
  -1 -11  12   45.35    2.55
  -1 -11  11  159.69    5.82
  -1 -11  10    4.03    0.92
  -1 -11  10    3.02    0.82
  -1 -11   9   19.30    1.86
  -1 -11   9   21.37    2.08
  -1 -11   8    0.90    0.66
  -1 -11   8    1.59    0.79
  -1 -11   8    0.40    0.66
  -1 -11   7   34.73    2.58
  -1 -11   7   36.04    2.55
  -1 -11   6    3.34    0.93
  -1 -11   6    4.92    0.97
  -1 -11   5    2.39    0.71
  -1 -11   5    3.73    0.90
  -1 -11   4    8.46    1.17
  -1 -11   4    7.71    1.20
  -1 -11   3   25.74    2.11
  -1 -11   2   56.28    3.18
  -1 -11   1   12.21    1.48
  -1 -11   1   14.01    1.55
  -1 -11   0    5.72    0.96
  -1 -11   0    4.97    0.92
  -1 -11  -1   11.55    1.25
  -1 -11  -1   11.34    1.27
  -1 -11  -2   -0.27    0.38
  -1 -11  -2    1.24    0.55
  -1 -11  -3    8.38    0.90
  -1 -12  13  107.02    3.60
  -1 -12  12    1.50    0.53
  -1 -12  11   32.76    2.13
  -1 -12  10   16.90    1.57
  -1 -12  10   16.58    1.66
  -1 -12   9   21.62    1.86
  -1 -12   9   24.79    2.01
  -1 -12   8    0.75    0.65
  -1 -12   8    2.25    0.93
  -1 -12   7   11.54    1.50
  -1 -12   7   10.50    1.33
  -1 -12   6    6.40    1.11
  -1 -12   6    7.44    1.18
  -1 -12   5   32.46    2.39
  -1 -12   5   31.41    2.20
  -1 -12   4   38.39    2.58
  -1 -12   4   41.17    2.41
  -1 -12   3    7.39    1.16
  -1 -12   2   35.47    2.36
  -1 -12   1    1.23    0.58
  -1 -12   0   -0.50    0.51
  -1 -12  -1    5.11    0.69
  -1 -13  12   19.13    1.24
  -1 -13  11   16.22    1.30
  -1 -13  10    2.29    0.68
  -1 -13   9    3.13    0.79
  -1 -13   9    1.85    0.59
  -1 -13   8    1.13    0.71
  -1 -13   8    1.06    0.54
  -1 -13   7   34.54    2.27
  -1 -13   7   32.64    2.17
  -1 -13   7   35.07    2.30
  -1 -13   6   56.29    2.81
  -1 -13   6   49.33    2.77
  -1 -13   5   41.58    2.49
  -1 -13   4    0.35    0.53
  -1 -13   3   45.04    2.46
  -1 -13   2    8.94    1.02
  -1 -13   1   19.30    1.33
  -1 -14  10    4.26    0.64
  -1 -14   9    1.29    0.44
  -1 -14   8   45.37    2.24
  -1 -14   7  101.47    3.76
  -1 -14   6   -0.86    0.55
  -1 -14   5   23.59    1.57
  -1 -14   4    0.88    0.39
  -1 -14   3   15.74    1.09
   2 -14   2    1.27    0.51
   2 -14   3    9.86    1.04
   2 -14   4    1.94    0.55
   2 -14   5    1.66    0.49
   2 -14   5    2.49    0.71
   2 -14   6    0.76    0.53
   2 -14   6    1.15    0.50
   2 -14   7    1.24    0.52
   2 -14   7    0.98    0.53
   2 -14   8    3.45    0.67
   2 -14   8    4.29    0.75
   2 -14   9    0.33    0.35
   2 -14   9    1.55    0.49
   2 -14  10    7.08    0.79
   2 -14  10    7.88    0.81
   2 -13  -1    0.92    0.38
  -2  13   0    1.26    0.42
   2 -13   0    1.68    0.56
  -2  13  -1   -0.02    0.35
   2 -13   1    0.67    0.57
  -2  13  -2   19.76    1.54
   2 -13   2   18.95    1.69
   2 -13   3    9.84    1.31
   2 -13   4   -0.76    0.58
   2 -13   4    0.55    0.59
   2 -13   5    1.99    0.80
   2 -13   6    0.96    0.65
   2 -13   7   18.81    1.68
   2 -13   8   20.61    1.76
   2 -13   8   20.53    1.77
   2 -13   9    2.10    0.79
   2 -13   9    1.85    0.62
   2 -13  10    3.30    0.70
   2 -13  10    3.33    0.74
   2 -13  11   10.05    0.91
   2 -13  11   10.26    1.02
   2 -12  -3   -0.41    0.39
   2 -12  -2   15.49    1.36
   2 -12  -1    0.65    0.61
   2 -12   0    7.24    1.25
   2 -12   1   17.97    1.83
   2 -12   2    2.36    0.72
   2 -12   3   11.07    1.47
   2 -12   4   63.23    3.21
   2 -12   4   55.27    3.32
   2 -12   5   11.89    1.55
   2 -12   6   25.25    2.16
   2 -12   7    0.98    0.62
   2 -12   8   -0.30    0.55
   2 -12   9   -0.07    0.54
   2 -12  10    5.79    0.95
   2 -12  10    6.36    1.05
   2 -12  11  181.28    5.62
   2 -12  11  180.55    5.95
   2 -12  12    6.80    0.85
   2 -11  -4   28.33    1.75
   2 -11  -3    2.93    0.76
   2 -11  -2   77.31    3.76
   2 -11  -1    1.00    0.80
   2 -11   0    3.06    0.95
   2 -11   1   15.16    1.77
   2 -11   2   59.67    3.53
   2 -11   3   31.06    2.50
   2 -11   3   34.22    2.33
  -2  11  -4   80.28    3.84
   2 -11   4   73.13    3.67
   2 -11   4   70.58    3.89
   2 -11   5  120.81    5.30
   2 -11   5  125.11    5.10
   2 -11   6   30.32    2.46
   2 -11   7   31.33    2.46
   2 -11   8   94.98    4.49
   2 -11   9   95.97    4.44
   2 -11  10   94.91    4.11
   2 -11  10   90.07    4.23
   2 -11  11   23.03    1.94
   2 -11  12    7.87    1.05
   2 -11  13   -0.74    0.40
   2 -10  -5   18.76    1.53
   2 -10  -4    2.79    0.71
   2 -10  -3   10.13    1.40
   2 -10  -2   14.74    1.67
   2 -10  -1   80.60    4.14
   2 -10   0   63.82    3.64
   2 -10   1   29.61    2.42
   2 -10   2  226.94    7.87
   2 -10   3  323.37    9.50
   2 -10   3  312.02    9.90
   2 -10   4    4.71    1.02
   2 -10   4    4.10    0.91
   2 -10   5   19.50    1.78
   2 -10   5   16.99    1.81
   2 -10   6   19.63    1.95
   2 -10   7   48.47    3.09
   2 -10   8   29.44    2.32
   2 -10   9   28.87    2.37
   2 -10  10   -0.34    0.65
   2 -10  10    0.09    0.53
   2 -10  11   66.38    3.21
   2 -10  11   66.43    3.53
   2 -10  12   14.51    1.52
   2 -10  12   14.97    1.30
   2 -10  12   16.76    1.47
   2 -10  13    3.70    0.67
   2 -10  13    4.08    0.75
   2  -9  -6    7.72    1.02
   2  -9  -5   83.72    3.92
   2  -9  -4   17.34    1.77
   2  -9  -3  120.64    5.27
   2  -9  -2   61.29    3.56
   2  -9  -1   28.31    2.35
   2  -9   0   33.52    2.48
   2  -9   1    5.07    1.06
   2  -9   2    6.38    1.13
  -2   9  -3    0.08    1.07
   2  -9   3    0.18    0.50
  -2   9  -4   31.68    4.39
   2  -9   4   33.36    2.40
   2  -9   5    0.21    0.54
  -2   9  -5    1.06    1.54
   2  -9   5   -0.38    0.46
   2  -9   6   74.19    3.84
   2  -9   7   44.10    2.86
   2  -9   8   96.35    4.52
   2  -9   9   46.21    2.79
   2  -9   9   40.74    2.82
   2  -9  10  134.66    5.20
   2  -9  10  124.44    5.25
   2  -9  10  123.54    5.36
   2  -9  11   42.74    2.80
   2  -9  11   42.87    2.82
   2  -9  11   41.60    2.55
   2  -9  12   14.54    1.58
   2  -9  12   13.71    1.47
   2  -9  12   13.43    1.30
   2  -9  13   24.29    1.81
   2  -9  14    9.81    0.94
   2  -8  -7   10.75    1.22
   2  -8  -6   42.46    2.70
  -2   8   5   12.04    1.48
   2  -8  -5   12.05    1.51
   2  -8  -4  154.96    6.26
  -2   8   4  166.54    6.30
   2  -8  -3    0.94    0.70
  -2   8   3   -0.11    0.56
   2  -8  -2    5.77    1.03
   2  -8  -1    9.24    1.28
   2  -8   0   63.33    6.09
   2  -8   1   62.93    5.98
  -2   8  -2   58.66    5.65
  -2   8  -3   15.84    3.04
  -2   8  -4  125.65    8.40
  -2   8  -5   83.30    6.75
  -2   8  -6  117.41    8.26
  -2   8  -7   30.97    4.37
   2  -8   7   34.02    2.42
   2  -8   8   88.30    4.23
   2  -8   9   35.73    2.40
   2  -8   9   32.65    2.52
   2  -8  10  220.85    7.27
   2  -8  10  202.32    7.46
   2  -8  11   -0.54    0.75
   2  -8  11    0.05    0.60
   2  -8  11    0.43    0.57
   2  -8  12    0.70    0.67
   2  -8  12    0.92    0.69
   2  -8  12    1.25    0.62
   2  -8  13   19.58    1.74
   2  -8  14   25.70    1.67
   2  -7  -8   18.67    1.57
   2  -7  -7  149.22    5.77
  -2   7   7  157.71    5.75
  -2   7   6    0.28    0.56
  -2   7   6    2.09    0.99
  -2   7   5   12.24    1.59
  -2   7   5   12.90    1.66
  -2   7   4   71.01    3.86
  -2   7   4   70.73    3.76
  -2   7   3    1.12    0.76
  -2   7   3    0.77    0.61
   2  -7  -2  168.39   10.27
   2  -7  -1  308.19   14.18
   2  -7   0   99.71    7.21
  -2   7  -1    3.70    1.19
   2  -7   1    7.02    1.93
  -2   7  -2  194.65   10.01
  -2   7  -3   49.02    4.64
  -2   7  -4   35.71    3.97
  -2   7  -5   57.73    5.20
  -2   7  -6  116.30    7.88
  -2   7  -7  204.66   11.30
   2  -7   8   77.57    3.83
  -2   7  -8   64.15    6.33
   2  -7   9   42.35    2.74
   2  -7   9   24.53    2.04
   2  -7  10  234.15    8.16
   2  -7  10  251.14    7.97
   2  -7  11    4.45    0.99
   2  -7  11    4.68    1.06
   2  -7  11    5.84    1.07
   2  -7  12    0.39    0.58
   2  -7  12    0.31    0.65
   2  -7  13   12.95    1.57
   2  -7  14   15.09    1.35
  -2   6   9    0.24    0.45
   2  -6  -9   -0.01    0.45
  -2   6   8   86.74    4.01
  -2   6   8   82.60    4.01
  -2   6   7    4.20    1.03
  -2   6   7    1.49    0.74
  -2   6   6   19.96    2.02
  -2   6   6   18.49    2.00
  -2   6   5   56.24    3.41
  -2   6   5   58.47    3.41
  -2   6   4   89.01    4.21
  -2   6   4   86.77    4.13
   2  -6  -3  100.50    7.50
   2  -6  -2   56.66    5.38
   2  -6  -1    4.66    1.61
   2  -6   0    0.99    1.12
  -2   6  -1  131.03    7.36
   2  -6   1  126.56    7.39
   2  -6   2  374.02   14.06
  -2   6  -2  369.73   13.87
  -2   6  -2  402.87   13.82
  -2   6  -3  150.29    7.30
  -2   6  -3  132.22    7.37
  -2   6  -4   63.39    4.57
  -2   6  -4   48.60    4.39
  -2   6  -5    0.00    0.77
  -2   6  -5   -1.49    1.22
  -2   6  -6  715.79   20.78
  -2   6  -6  588.76   21.06
  -2   6  -7    5.64    1.74
  -2   6  -8   65.67    6.20
   2  -6   9  101.28    4.63
   2  -6   9  102.90    4.36
   2  -6  10   29.66    2.44
   2  -6  10   30.74    2.30
   2  -6  11   21.15    2.09
   2  -6  11   22.92    2.01
   2  -6  11   22.10    2.09
   2  -6  12    3.51    0.89
   2  -6  13    1.64    0.78
   2  -6  14    0.18    0.40
  -2   5  10    0.31    0.52
  -2   5   9    6.71    1.16
  -2   5   9    5.38    0.99
  -2   5   8  116.37    5.20
  -2   5   8  123.27    5.25
  -2   5   7    1.61    0.86
  -2   5   7    1.16    0.63
  -2   5   6  347.21   10.56
  -2   5   6  341.65   10.64
  -2   5   5  228.50    7.81
  -2   5   5  227.82    7.62
   2  -5  -4  229.08   11.83
   2  -5  -3   13.90    2.55
   2  -5  -2    5.37    1.57
   2  -5  -1    0.03    0.81
   2  -5   0    0.65    0.82
  -2   5   0    3.10    1.30
   2  -5   1  184.97    8.60
  -2   5  -1  189.13    8.35
  -2   5  -1  197.74    8.55
  -2   5  -2  616.30   18.01
  -2   5  -2  620.99   18.32
   2  -5   2  612.61   18.67
  -2   5  -3   82.37    5.06
  -2   5  -3   93.81    5.40
  -2   5  -4  682.11   21.34
  -2   5  -4  825.65   21.76
  -2   5  -5  366.40   12.87
  -2   5  -5  325.55   12.83
  -2   5  -6  129.71    7.27
  -2   5  -6  107.80    7.04
  -2   5  -7    1.69    1.15
  -2   5  -7    1.67    1.00
  -2   5  -8   23.68    3.58
   2  -5   9   32.08    2.40
   2  -5   9   33.71    2.31
   2  -5  10    2.92    0.88
   2  -5  10    6.15    1.07
   2  -5  11   11.78    1.64
   2  -5  12   20.00    1.99
   2  -5  13   16.99    1.67
   2  -5  14   27.97    1.70
  -2   4  11  158.21    5.13
  -2   4  10    1.90    0.81
  -2   4  10    1.09    0.65
  -2   4   9    1.35    0.68
  -2   4   9    0.54    0.75
  -2   4   8   26.02    2.27
  -2   4   8   22.42    2.20
  -2   4   7  399.38   12.01
  -2   4   7  412.34   11.96
  -2   4   6  133.50    5.42
  -2   4   6  131.92    5.35
   2  -4  -5   57.01    5.54
   2  -4  -4   66.35    5.62
   2  -4  -3    2.65    1.07
  -2   4   2   31.73    2.63
   2  -4  -2   29.63    3.17
   2  -4  -1  216.72    9.12
  -2   4   1  231.96    8.28
   2  -4   0   37.76    3.23
  -2   4   0   34.01    2.92
  -2   4   0   32.90    3.26
  -2   4  -1   17.19    2.04
  -2   4  -1   14.77    1.78
   2  -4   1   16.61    2.20
  -2   4  -1   16.35    1.66
  -2   4  -2  264.57    9.53
  -2   4  -2  254.18    8.98
  -2   4  -3  148.88    6.68
  -2   4  -3  143.41    6.50
  -2   4  -4    1.83    1.07
  -2   4  -4    1.79    1.15
  -2   4  -5  108.08    6.25
  -2   4  -5   98.05    6.02
  -2   4  -6  206.08    9.81
  -2   4  -6  226.69   10.27
  -2   4  -7    1.48    1.27
  -2   4  -7    1.25    0.81
  -2   4  -8  166.21   10.03
  -2   4  -8  200.87   10.81
   2  -4   9    4.52    0.90
   2  -4   9    4.10    0.79
   2  -4  10    0.47    0.53
   2  -4  10   -0.95    0.80
   2  -4  11    8.82    1.38
   2  -4  11    9.53    1.39
   2  -4  12  177.10    6.48
   2  -4  12  174.90    6.29
   2  -4  13    9.45    1.21
   2  -4  14    1.51    0.48
  -2   3  12    2.00    0.49
  -2   3  11   72.46    3.46
  -2   3  11   76.33    3.41
  -2   3  10    1.00    0.77
  -2   3  10    0.40    0.62
  -2   3   9  101.56    4.79
  -2   3   9   97.16    4.68
  -2   3   8  112.12    5.03
  -2   3   8  101.86    4.81
  -2   3   7    2.18    0.87
  -2   3   7    3.00    0.81
   2  -3  -6    4.61    1.57
  -2   3   6    6.76    2.05
   2  -3  -5    3.88    1.55
   2  -3  -4   24.22    3.11
   2  -3  -3   69.31    4.93
  -2   3   2    2.20    0.90
   2  -3  -2    2.86    1.13
  -2   3   1    1.13    0.74
   2  -3  -1    1.76    0.94
  -2   3   0   35.42    2.57
   2  -3   0   41.38    2.98
  -2   3   0   37.43    3.00
  -2   3  -1   44.44    2.79
   2  -3   1   41.65    2.97
  -2   3  -1   41.88    3.20
  -2   3  -1   39.21    2.54
  -2   3  -2  115.71    4.94
  -2   3  -2  118.03    5.52
  -2   3  -3  140.79    6.47
  -2   3  -3  134.74    5.86
  -2   3  -4  432.70   13.85
  -2   3  -4  380.57   12.69
  -2   3  -5  631.40   19.46
  -2   3  -6  180.79    9.08
  -2   3  -7   33.19    3.93
  -2   3  -8   71.31    6.41
   2  -3   9   35.89    2.55
   2  -3   9   38.44    2.64
   2  -3  10   61.49    3.53
   2  -3  11    0.94    0.65
   2  -3  11    1.79    0.81
   2  -3  12   91.96    4.21
   2  -3  12   91.21    4.18
   2  -3  13    7.71    1.00
   2  -3  13   10.21    1.15
  -2   2  12   -0.47    0.42
  -2   2  11    8.64    1.19
  -2   2  11    5.97    1.06
  -2   2  10    1.06    0.66
  -2   2  10    0.97    0.68
  -2   2   9   13.65    1.62
  -2   2   9   13.27    1.65
  -2   2   8  120.37    5.19
  -2   2   7   32.35    4.27
   2  -2  -7   32.75    4.28
  -2   2   6   27.59    3.53
   2  -2  -6   29.25    3.89
   2  -2  -5  109.40    6.95
   2  -2  -4    0.11    0.83
   2  -2  -3   17.56    2.36
  -2   2   2   40.00    2.94
   2  -2  -2   36.43    2.93
   2  -2  -1   89.99    4.38
  -2   2   1   85.66    4.49
   2  -2   0  181.25    6.36
  -2   2   0  193.30    6.77
  -2   2   0  183.60    5.22
  -2   2   0  179.69    5.61
  -2   2   0  189.01    7.01
   2  -2   1  230.23    7.15
  -2   2  -1  211.82    7.70
  -2   2  -1  220.58    6.40
  -2   2  -2    2.36    0.72
  -2   2  -2    3.51    1.13
   2  -2   3    7.15    1.55
  -2   2  -3    6.60    1.61
   2  -2   4  261.59   10.27
  -2   2  -4  286.58   10.74
   2  -2   5  703.76   19.16
   2  -2   5  664.84   20.80
  -2   2  -5  693.37   21.09
   2  -2   6   36.12    3.33
  -2   2  -6   28.74    3.59
  -2   2  -7   -0.78    1.40
  -2   2  -8   15.73    3.14
   2  -2   9   -0.57    0.66
   2  -2  10  151.39    6.09
   2  -2  10  150.43    6.12
   2  -2  11    5.84    1.10
   2  -2  11    5.86    1.13
   2  -2  12    3.34    0.76
   2  -2  12    4.82    0.97
   2  -2  13   26.04    1.77
  -2   1  13   20.18    1.43
  -2   1  12   34.41    2.33
  -2   1  11    1.24    0.75
  -2   1  11    1.08    0.53
  -2   1  10   30.07    2.57
  -2   1  10   38.31    2.64
  -2   1   9   61.54    3.45
  -2   1   8   92.62    4.32
  -2   1   8  100.86    4.21
  -2   1   7  119.30    8.14
  -2   1   6   21.63    3.07
  -2   1   5  409.24   14.46
  -2   1   4    5.78    1.08
  -2   1   4    4.02    1.30
  -2   1   3  862.38   21.47
  -2   1   2   88.36    4.38
  -2   1   1  383.88   11.02
   2  -1  -1  384.58   10.48
  -2   1   1  374.13   10.32
  -2   1   0  312.13    9.31
   2  -1   0  312.35    8.37
   2  -1   0  307.62    8.10
  -2   1  -1  440.12   13.13
  -2   1  -1  471.42   11.12
   2  -1   2    0.20    0.76
  -2   1  -2    0.70    0.98
   2  -1   3  194.37    6.03
  -2   1  -3  178.08    7.75
   2  -1   3  177.69    7.46
   2  -1   4  110.86    6.11
   2  -1   4  107.45    4.81
   2  -1   5    0.68    1.03
   2  -1   5    0.87    0.77
   2  -1   6   -0.67    0.86
   2  -1   6    0.85    0.98
   2  -1   7    0.34    1.16
   2  -1   8   25.50    2.14
   2  -1   9  115.99    5.16
   2  -1  10    3.81    0.99
   2  -1  11    2.46    0.90
   2  -1  12    3.26    0.86
   2  -1  13   -0.19    0.41
  -2   0  13   20.66    1.63
  -2   0  12   17.06    1.74
  -2   0  11   17.42    1.63
  -2   0  10   63.33    3.43
  -2   0   9  215.27    7.33
  -2   0   9  223.50    7.27
  -2   0   8   36.88    4.60
  -2   0   7  232.30   11.47
  -2   0   6   17.49    2.33
  -2   0   6   15.04    2.47
  -2   0   5  457.28   13.98
  -2   0   5  402.48   14.35
  -2   0   4   75.12    4.31
  -2   0   4   57.38    4.07
  -2   0   3  573.95   15.44
  -2   0   3  529.56   15.08
  -2   0   2  447.24   11.95
   2   0  -2  438.09    9.93
  -2   0   2  424.29   12.02
  -2   0   1  513.77   13.40
  -2   0   1  513.45   12.43
   2   0  -1  513.28   12.07
   2   0   0  104.52    2.94
   2   0   0  106.33    3.93
  -2   0   0  105.43    4.42
   2   0   1   84.10    3.92
  -2   0  -1   86.91    4.32
   2   0   2   36.78    1.79
   2   0   2   36.26    2.85
   2   0   3    7.90    1.60
   2   0   3    6.21    0.98
   2   0   4   63.77    3.73
   2   0   4   61.10    4.50
   2   0   5   70.44    4.53
   2   0   5   65.22    5.13
   2   0   6   26.52    3.57
   2   0   7    3.57    1.45
   2   0   8   50.45    3.11
   2   0   9   80.39    4.25
   2   0  10    4.43    1.15
   2   0  11   88.50    4.26
   2   0  12   27.05    1.99
  -2  -1  14   60.26    2.54
  -2  -1  13   68.31    2.92
  -2  -1  13   68.61    3.31
  -2  -1  12  115.44    4.63
  -2  -1  11  229.07    7.68
  -2  -1  10    6.22    1.07
  -2  -1   9   86.40    3.87
  -2  -1   9   80.60    3.93
  -2  -1   8    4.24    1.96
  -2  -1   7   71.05    5.75
  -2  -1   7   67.40    5.19
  -2  -1   6    1.43    1.05
  -2  -1   6    2.56    1.16
  -2  -1   5  275.61   10.91
  -2  -1   5  306.42   10.94
  -2  -1   4  138.98    6.27
  -2  -1   4  121.84    6.06
  -2  -1   3  468.37   14.42
  -2  -1   3  475.58   13.82
  -2  -1   2  280.08    8.01
  -2  -1   2  290.44    8.60
   2   1  -2  288.14    7.94
   2   1  -1  639.18   15.93
  -2  -1   1  656.28   15.86
  -2  -1   1  649.17   16.63
   2   1  -1  651.16   14.74
   2   1   0 2274.31   50.18
  -2  -1   0 2225.25   50.30
   2   1   1 2046.74   46.86
  -2  -1  -2   78.90    2.79
   2   1   2   82.66    4.71
   2   1   3    0.49    0.88
  -2  -1  -3    0.98    0.42
   2   1   4   72.67    5.17
   2   1   5  366.10   14.83
   2   1   5  437.22   14.12
   2   1   6  150.67    9.08
   2   1   7   43.14    5.02
   2   1   7   45.89    2.89
   2   1   8   77.09    4.07
   2   1   9    1.63    0.91
   2   1  10   66.57    3.75
   2   1  11    0.67    0.82
   2   1  12   24.77    1.71
  -2  -2  14   98.21    3.63
  -2  -2  14   90.88    3.19
  -2  -2  13  177.21    5.91
  -2  -2  13  174.71    6.18
  -2  -2  12    6.51    1.13
  -2  -2  11   16.95    1.75
  -2  -2  10    9.24    1.31
  -2  -2   9   11.22    1.32
  -2  -2   9    9.17    1.15
  -2  -2   8   90.64    7.10
  -2  -2   8   93.71    6.86
  -2  -2   7    2.77    1.46
  -2  -2   7    0.56    0.98
  -2  -2   6    6.15    1.49
  -2  -2   6    8.11    1.75
  -2  -2   5    5.05    1.45
  -2  -2   5    7.08    1.56
  -2  -2   4  233.06    8.90
  -2  -2   4  223.00    8.83
  -2  -2   3 1267.30   31.47
   2   2  -3 1241.15   30.07
  -2  -2   3 1228.18   30.42
  -2  -2   2 9858.93  209.76
   2   2  -2 9999.00  207.92
  -2  -2   2 9582.88  209.98
  -2  -2   1 3059.98   65.25
  -2  -2   1 3028.48   66.02
   2   2  -1 2988.78   65.40
  -2  -2   1 2939.78   66.92
   2   2   0  738.86   19.77
  -2  -2   0  765.16   18.28
   2   2   1  320.01   11.07
  -2  -2  -1  346.89    8.49
   2   2   2    4.58    1.32
   2   2   3  125.78    6.90
   2   2   4   10.86    2.10
   2   2   5   31.26    3.83
   2   2   6  143.08    9.21
   2   2   7   29.82    2.40
   2   2   8  179.10    6.87
   2   2   9    9.36    1.48
   2   2  10    3.19    1.05
   2   2  11    4.53    0.92
  -2  -3  14   36.79    2.14
  -2  -3  14   39.38    2.07
  -2  -3  13    3.83    0.94
  -2  -3  12  139.26    5.56
  -2  -3  11    1.13    0.72
  -2  -3  10    1.06    0.72
  -2  -3  10    0.00    0.50
  -2  -3   9    2.90    1.72
  -2  -3   9    3.47    1.53
  -2  -3   9    1.24    0.62
  -2  -3   8  272.04   13.25
  -2  -3   8  293.65   13.39
  -2  -3   7  291.19   12.95
   2   3  -6  429.27   14.77
  -2  -3   6  381.30   14.70
   2   3  -5   92.43    5.45
  -2  -3   4  590.74   18.02
   2   3  -4  587.11   17.15
  -2  -3   4  622.92   16.67
  -2  -3   4  586.45   17.89
  -2  -3   3  770.31   21.57
   2   3  -3  802.69   20.66
  -2  -3   3  794.65   21.53
   2   3  -2  497.10   12.55
  -2  -3   2  495.74   13.72
   2   3  -1  112.14    5.01
  -2  -3   1  113.68    5.35
  -2  -3   1  126.88    4.53
   2   3   0  320.56   11.19
   2   3   1   44.50    3.73
   2   3   2   -0.05    0.89
   2   3   3   51.69    4.59
   2   3   4   11.38    2.43
   2   3   5    4.70    1.41
   2   3   6    8.88    1.26
   2   3   7   10.95    1.48
   2   3   8    6.15    1.28
   2   3   9  122.16    5.25
   2   3  10   14.46    1.54
   2   3  11    3.81    0.73
  -2  -4  14  117.85    4.30
  -2  -4  13   11.34    1.42
  -2  -4  12   46.89    2.99
  -2  -4  11   -1.57    0.87
  -2  -4  11    0.56    0.67
  -2  -4  10  110.33    4.81
  -2  -4  10  103.30    4.60
   2   4  -9    0.38    1.11
  -2  -4   9   -1.04    0.88
  -2  -4   9   -0.17    0.45
   2   4  -8   24.43    3.48
   2   4  -7  250.27   11.60
   2   4  -6   16.98    2.60
   2   4  -5  156.56    7.71
   2   4  -4    1.98    1.06
  -2  -4   4    1.74    1.15
  -2  -4   4    3.79    1.38
  -2  -4   3   -0.72    0.86
   2   4  -3    0.71    0.81
  -2  -4   3    0.49    0.74
  -2  -4   2  212.92    8.50
   2   4  -2  217.84    8.33
   2   4  -1  112.85    5.64
   2   4   0   20.71    2.66
   2   4   1  145.63    7.72
   2   4   2    2.16    1.51
   2   4   3   -0.76    1.00
   2   4   4   26.50    3.68
   2   4   5    0.81    0.66
  -2  -4  -5   -0.34    0.52
   2   4   6   19.98    1.89
   2   4   7   54.35    3.42
  -2  -4  -7   59.15    3.30
   2   4   8    4.87    1.11
   2   4   9   54.98    3.09
   2   4  10    7.11    1.01
  -2  -5  15    0.48    0.33
  -2  -5  14   43.61    2.40
  -2  -5  13   13.54    1.59
  -2  -5  12    9.48    1.33
  -2  -5  12   11.61    1.44
  -2  -5  11   -0.57    0.69
  -2  -5  11   -0.48    0.68
  -2  -5  10    0.93    0.72
  -2  -5  10   -0.28    0.56
   2   5  -9   42.23    5.04
  -2  -5   9   39.98    2.60
  -2  -5   9   40.68    2.66
   2   5  -8    4.05    1.29
   2   5  -7    4.31    1.55
   2   5  -6  220.97   10.45
  -2  -5   5   66.80    5.14
   2   5  -5   69.60    5.18
  -2  -5   5   61.23    5.13
  -2  -5   4    3.29    1.15
   2   5  -4    3.98    1.34
  -2  -5   3   26.35    2.92
   2   5  -3   23.86    2.76
  -2  -5   3   19.68    2.64
  -2  -5   2    0.16    0.62
   2   5  -2   -0.28    0.85
   2   5  -1  265.37   10.51
   2   5   0  172.35    8.94
   2   5   1  150.18    8.52
   2   5   2    2.28    1.31
   2   5   3   36.30    4.51
   2   5   4   83.78    3.93
  -2  -5  -4   76.60    3.82
  -2  -5  -5    0.57    0.59
  -2  -5  -5    1.30    0.53
   2   5   5    1.27    0.66
  -2  -5  -6   10.06    1.42
   2   5   6   11.96    1.60
   2   5   7  155.11    6.21
  -2  -5  -7  172.28    6.18
   2   5   8    0.08    0.68
   2   5   9   20.20    1.62
  -2  -6  15   -0.24    0.38
  -2  -6  14    2.98    0.72
  -2  -6  13   26.19    2.12
  -2  -6  13   28.31    2.14
  -2  -6  12    2.02    0.73
  -2  -6  12    1.63    0.74
  -2  -6  11    6.69    1.26
  -2  -6  11    8.75    1.31
  -2  -6  10    1.70    0.68
  -2  -6  10    3.71    0.93
  -2  -6   9    0.50    0.57
  -2  -6   9   -0.01    0.49
   2   6  -8   40.10    4.77
  -2  -6   8   39.87    4.92
   2   6  -7    1.86    1.30
  -2  -6   7    0.25    0.85
  -2  -6   6   50.15    4.95
   2   6  -6   52.00    4.85
   2   6  -5   43.03    4.26
  -2  -6   5   35.82    4.02
  -2  -6   5   38.99    4.03
  -2  -6   4   96.16    6.31
   2   6  -4   99.16    6.45
  -2  -6   4   99.39    6.47
   2   6  -3   -0.06    0.95
  -2  -6   3   -0.51    0.73
  -2  -6   3    0.62    0.82
   2   6  -2   25.08    3.16
   2   6  -1  768.00   22.44
   2   6  -1  639.93   22.34
   2   6   0  237.04   11.58
   2   6   1    0.62    1.17
   2   6   2    0.96    1.23
  -2  -6  -3  149.91    5.91
  -2  -6  -3  157.32    5.94
  -2  -6  -4   63.50    3.51
  -2  -6  -4   58.34    3.43
   2   6   5   87.95    4.23
  -2  -6  -5   82.71    4.17
   2   6   6  155.97    5.91
  -2  -6  -6  151.91    5.84
   2   6   7   10.52    1.31
   2   6   8    0.34    0.50
  -2  -7  15    8.62    0.82
  -2  -7  14   34.02    2.04
  -2  -7  13   50.83    2.87
  -2  -7  13   48.45    2.78
  -2  -7  12    1.17    0.72
  -2  -7  12    1.01    0.62
  -2  -7  11   59.03    3.31
  -2  -7  11   52.35    3.23
  -2  -7  10    0.70    0.49
  -2  -7  10    0.16    0.54
  -2  -7   9    8.83    1.20
  -2  -7   9    8.51    1.13
  -2  -7   9    6.89    1.23
  -2  -7   8   45.59    2.71
   2   7  -8   45.31    5.14
  -2  -7   8   43.61    2.73
   2   7  -7   23.39    3.55
  -2  -7   7   30.79    4.14
   2   7  -6   91.71    6.91
  -2  -7   6   79.22    6.65
  -2  -7   5   21.98    3.20
   2   7  -5   21.86    3.25
  -2  -7   5   24.56    3.32
   2   7  -4   85.79    6.56
  -2  -7   4   83.99    6.20
  -2  -7   4   97.98    6.82
   2   7  -3   -0.15    1.11
  -2  -7   3    1.17    0.75
  -2  -7   2   33.45    3.90
   2   7  -2   30.85    3.74
   2   7  -1  289.23   13.68
   2   7   0  301.32   14.21
  -2  -7  -1   20.50    1.86
  -2  -7  -1   24.22    2.00
  -2  -7  -2    1.30    0.73
  -2  -7  -2    1.06    0.54
  -2  -7  -3  108.12    4.88
  -2  -7  -4  132.15    5.47
  -2  -7  -5    4.01    0.87
  -2  -7  -6    0.19    0.48
   2   7   6    0.40    0.58
   2   7   7    6.95    0.90
  -2  -8  14   56.01    2.56
  -2  -8  13    7.51    1.03
  -2  -8  13    9.22    1.21
  -2  -8  12    5.71    1.08
  -2  -8  12    5.26    0.96
  -2  -8  11    0.15    0.48
  -2  -8  11   -0.27    0.54
  -2  -8  10   62.41    3.52
  -2  -8   9    4.04    0.95
  -2  -8   9    3.50    0.92
  -2  -8   8  152.82    5.58
  -2  -8   8  149.42    5.68
  -2  -8   8  142.87    5.78
  -2  -8   7    0.74    0.52
  -2  -8   7    0.21    0.39
  -2  -8   6  136.23    5.24
  -2  -8   6  132.82    8.99
   2   8  -6  149.64    9.56
   2   8  -5    4.69    1.41
   2   8  -4    1.22    0.94
   2   8  -3   10.02    2.43
   2   8  -2   44.92    5.05
  -2  -8   2   47.29    2.84
   2   8  -2   44.00    5.30
  -2  -8   1  101.00    4.35
  -2  -8   1  100.22    4.47
  -2  -8   0    0.49    0.56
  -2  -8  -1   15.57    1.76
  -2  -8  -2    2.23    0.78
  -2  -8  -2    2.58    0.72
  -2  -8  -3   46.54    2.87
  -2  -8  -3   44.36    2.91
  -2  -8  -4   29.87    2.29
  -2  -8  -4   32.69    2.40
  -2  -8  -5  104.49    4.30
  -2  -8  -5  103.68    4.27
  -2  -8  -6   -0.97    0.51
  -2  -8  -7   12.72    1.00
  -2  -9  14    4.81    0.65
  -2  -9  14    4.04    0.66
  -2  -9  13    1.79    0.57
  -2  -9  13    1.10    0.53
  -2  -9  12    8.48    1.26
  -2  -9  11    4.26    1.01
  -2  -9  10    4.93    1.03
  -2  -9   9   16.00    1.71
  -2  -9   9   15.14    1.74
  -2  -9   8   25.26    2.14
  -2  -9   8   22.27    1.92
  -2  -9   8   25.09    2.19
  -2  -9   7   40.15    2.65
  -2  -9   7   39.24    2.57
  -2  -9   6    1.79    0.70
  -2  -9   6    1.38    0.57
  -2  -9   5   44.70    2.75
  -2  -9   5   45.86    2.75
  -2  -9   4    0.75    0.56
  -2  -9   4    0.64    0.50
  -2  -9   3  200.78    6.73
  -2  -9   3  206.82    7.20
  -2  -9   2   60.96    3.46
  -2  -9   1   -0.25    0.59
  -2  -9   1    1.20    0.69
  -2  -9   0    5.28    1.15
  -2  -9   0    1.83    0.59
  -2  -9  -1   -0.03    0.58
  -2  -9  -2  144.82    5.80
  -2  -9  -3  113.40    4.55
  -2  -9  -3  110.25    4.71
  -2  -9  -4   16.79    1.56
  -2  -9  -4   16.92    1.49
  -2  -9  -5   15.85    1.23
  -2  -9  -5   14.84    1.28
  -2 -10  14   39.39    1.91
  -2 -10  13    3.16    0.69
  -2 -10  12   17.80    1.66
  -2 -10  11    5.63    1.04
  -2 -10  10   15.06    1.67
  -2 -10   9   92.04    4.25
  -2 -10   9   89.99    4.35
  -2 -10   8   -0.27    0.75
  -2 -10   8   -0.35    0.60
  -2 -10   7   -0.60    0.70
  -2 -10   7    0.19    0.48
  -2 -10   6   42.78    2.76
  -2 -10   6   39.42    2.66
  -2 -10   5    5.05    0.98
  -2 -10   5    4.73    0.92
  -2 -10   4    9.99    1.27
  -2 -10   4    7.98    1.21
  -2 -10   3  190.14    6.78
  -2 -10   2  115.75    5.10
  -2 -10   1   -0.27    0.70
  -2 -10   0    2.21    0.67
  -2 -10   0    2.52    0.95
  -2 -10  -1   33.96    2.30
  -2 -10  -1   36.45    2.54
  -2 -10  -2    1.48    0.60
  -2 -10  -2    1.75    0.70
  -2 -10  -3   -0.14    0.47
  -2 -10  -4    1.70    0.48
  -2 -10  -4    1.36    0.44
  -2 -11  13    2.66    0.58
  -2 -11  12    0.27    0.49
  -2 -11  11   12.67    1.42
  -2 -11  10   37.29    2.52
  -2 -11   9   24.80    2.01
  -2 -11   9   24.24    2.10
  -2 -11   8    1.06    0.77
  -2 -11   8    0.94    0.53
  -2 -11   8    1.95    0.85
  -2 -11   7    1.45    0.86
  -2 -11   7    1.20    0.66
  -2 -11   6   31.99    2.33
  -2 -11   6   29.95    2.27
  -2 -11   5    1.71    0.57
  -2 -11   5    1.78    0.76
  -2 -11   4   12.18    1.33
  -2 -11   4    9.85    1.39
  -2 -11   3   44.08    2.81
  -2 -11   2   67.13    3.54
  -2 -11   1   28.58    2.19
  -2 -11   0   -0.43    0.54
  -2 -11  -1    8.76    1.10
  -2 -11  -2   -0.05    0.40
  -2 -12  12    9.44    0.96
  -2 -12  11   12.42    1.28
  -2 -12  10   11.76    1.33
  -2 -12   9    9.77    1.29
  -2 -12   8    1.29    0.78
  -2 -12   7    1.04    0.53
  -2 -12   6    2.63    0.73
  -2 -12   5   17.11    1.68
  -2 -12   4   19.97    1.81
  -2 -12   3    0.60    0.63
  -2 -12   2   82.81    3.67
  -2 -12   1   -0.10    0.46
  -2 -12   0    3.42    0.68
  -2 -12  -1   11.89    0.98
  -2 -13  11   30.24    1.70
  -2 -13  10    3.55    0.68
  -2 -13   9   18.33    1.50
  -2 -13   8    0.11    0.57
  -2 -13   7    9.22    1.12
  -2 -13   7    8.58    1.12
  -2 -13   6   13.43    1.29
  -2 -13   5    1.48    0.61
  -2 -13   4   17.81    1.46
  -2 -13   3   28.25    1.80
  -2 -13   2    0.86    0.44
  -2 -13   1    4.97    0.63
  -2 -14   9   11.29    0.95
  -2 -14   8   17.46    1.24
  -2 -14   7   -0.21    0.34
  -2 -14   6   44.19    2.10
  -2 -14   5   10.50    0.93
  -2 -14   5   10.05    0.95
   3 -14   2    0.59    0.42
   3 -14   3    3.49    0.70
   3 -14   4    0.79    0.54
   3 -14   5    1.66    0.51
   3 -14   5    0.62    0.43
   3 -14   6   -0.19    0.37
   3 -14   6    0.45    0.49
   3 -14   7   25.44    1.67
   3 -14   7   27.07    1.75
   3 -14   8   56.30    2.50
   3 -14   8   53.47    2.50
   3 -14   9    4.75    0.67
   3 -14   9    3.96    0.64
  -3  13   0   89.45    3.36
   3 -13   0   93.35    3.54
   3 -13   1   -0.54    0.46
  -3  13  -1    0.81    0.48
   3 -13   2    4.40    0.86
  -3  13  -2    4.16    0.72
   3 -13   3    0.86    0.65
  -3  13  -3    0.10    0.43
   3 -13   4    2.98    0.90
  -3  13  -4    3.39    0.71
  -3  13  -5   93.06    3.78
   3 -13   5   95.63    4.16
   3 -13   6   13.49    1.52
   3 -13   7   10.30    1.26
   3 -13   8   50.97    2.77
   3 -13   9   67.93    3.05
   3 -13   9   71.07    3.23
   3 -13  10    4.88    0.80
   3 -13  10    4.70    0.68
   3 -13  11    3.36    0.58
   3 -12  -2    3.75    0.73
   3 -12  -1   57.57    2.92
   3 -12   0    5.89    1.05
   3 -12   1    5.37    1.02
   3 -12   2    1.44    0.85
   3 -12   3   10.98    1.52
  -3  12  -3   11.17    1.32
   3 -12   4    7.61    1.27
  -3  12  -4    6.40    1.06
  -3  12  -5  299.76    8.93
   3 -12   5  271.66    9.02
   3 -12   6    1.04    0.63
  -3  12  -6    1.24    0.54
   3 -12   7    3.33    0.81
   3 -12   8    7.09    1.15
   3 -12   9   39.06    2.51
   3 -12  10   75.41    3.32
   3 -12  10   82.68    3.66
   3 -12  11   27.35    1.84
   3 -12  12   37.27    1.96
   3 -11  -4    0.44    0.35
   3 -11  -3   54.03    2.76
   3 -11  -2   27.24    2.06
   3 -11  -1   48.29    2.93
   3 -11   0    1.62    0.74
   3 -11   1   -1.14    0.69
   3 -11   2   32.67    2.53
   3 -11   3    6.54    1.21
   3 -11   4    4.60    1.10
  -3  11  -4    5.44    1.02
  -3  11  -5  114.92    4.89
   3 -11   5  103.76    4.84
   3 -11   6    2.78    1.00
  -3  11  -6    3.64    0.93
  -3  11  -7  222.42    7.17
   3 -11   7  188.97    7.12
   3 -11   8   50.79    3.10
   3 -11   9   31.55    2.41
   3 -11  10    1.19    0.73
   3 -11  11    0.51    0.53
   3 -11  12   16.92    1.43
   3 -10  -5    5.84    0.84
   3 -10  -4   15.38    1.49
   3 -10  -3   63.00    3.36
   3 -10  -2   30.99    2.39
   3 -10  -1   19.92    1.94
   3 -10   0   61.73    3.56
   3 -10   1   43.18    2.95
   3 -10   2  105.43    4.83
   3 -10   3  127.61    5.43
  -3  10  -4  549.29   14.88
   3 -10   4  551.26   15.09
  -3  10  -5  307.84    9.49
   3 -10   5  295.69    9.56
  -3  10  -6   64.71    3.46
   3 -10   6   55.35    3.38
   3 -10   7    0.17    0.59
  -3  10  -7    1.83    0.73
   3 -10   8   12.22    1.59
  -3  10  -8   13.68    1.47
   3 -10   9   41.87    2.84
   3 -10  10   24.18    2.12
   3 -10  11   17.40    1.59
   3 -10  11   20.43    1.84
   3 -10  12    7.92    1.10
   3 -10  12    5.70    0.88
   3 -10  13    7.32    0.85
  -3   9   6   23.52    1.56
   3  -9  -6   24.11    1.67
  -3   9   5    4.93    0.91
   3  -9  -5    4.34    0.87
   3  -9  -4   24.59    2.03
  -3   9   4   24.26    1.94
   3  -9  -3   38.19    2.70
  -3   9   3   38.14    2.54
   3  -9  -2   53.80    3.34
  -3   9   2   61.18    3.30
   3  -9  -1   92.17    4.49
   3  -9   0  408.22   11.93
   3  -9   1   53.34    3.24
   3  -9   2  435.09   12.46
   3  -9   3  105.54    4.73
   3  -9   4   73.28    3.78
  -3   9  -4   71.53    3.65
  -3   9  -5   29.80    2.25
   3  -9   5   29.79    2.35
  -3   9  -6   92.68    4.24
   3  -9   6   87.49    4.30
  -3   9  -7   17.40    1.77
   3  -9   7   19.25    1.92
   3  -9   8    6.69    1.22
  -3   9  -8    7.99    1.11
   3  -9   9   25.90    2.30
   3  -9  10   85.60    4.23
   3  -9  11   30.74    2.34
   3  -9  11   34.20    2.46
   3  -9  12    5.76    1.06
   3  -9  12    5.57    1.05
   3  -9  13    1.64    0.54
  -3   8   7    1.14    0.57
   3  -8  -7    0.46    0.43
   3  -8  -6   15.96    1.62
   3  -8  -5   64.15    3.49
   3  -8  -4  186.47    6.83
   3  -8  -3   -0.22    0.53
   3  -8  -2  664.93   17.44
   3  -8  -1  164.10    6.26
  -3   8   1  174.64    6.23
   3  -8   0   31.50    2.32
   3  -8   1  490.46   19.48
  -3   8  -2   71.42    6.20
  -3   8  -3   68.71    6.11
  -3   8  -4   36.65    4.35
  -3   8  -5    2.93    1.39
  -3   8  -6   17.78    1.67
   3  -8   6   15.25    1.59
  -3   8  -7  134.56    5.35
   3  -8   7  137.79    5.55
  -3   8  -8   21.16    1.91
   3  -8   8   17.10    1.78
   3  -8   9   84.88    4.26
   3  -8  10    3.53    0.99
   3  -8  11   20.42    1.96
   3  -8  12    6.78    1.16
   3  -8  12    6.41    1.21
   3  -8  13   51.06    2.74
   3  -8  14   28.85    1.62
   3  -7  -8   43.58    2.32
   3  -7  -7   31.93    2.24
  -3   7   7   31.83    2.33
   3  -7  -6  156.36    5.91
  -3   7   6  147.89    5.95
   3  -7  -5  131.59    5.46
  -3   7   5  126.30    5.48
  -3   7   4  218.85    7.72
   3  -7  -4  216.85    7.62
   3  -7  -3   68.90    3.65
  -3   7   3   63.50    3.58
   3  -7  -2  148.82    5.72
  -3   7   2  149.15    5.75
   3  -7  -1   21.10    3.47
   3  -7   0    0.25    0.76
  -3   7  -1   66.89    5.59
   3  -7   1   77.97    6.40
  -3   7  -2   -0.24    0.72
  -3   7  -3    4.84    1.71
  -3   7  -3    1.62    1.05
  -3   7  -4  263.84   11.67
  -3   7  -4  212.99   10.89
  -3   7  -5   -0.19    0.88
  -3   7  -5    2.88    1.33
  -3   7  -6    0.09    1.18
   3  -7   7   36.36    2.49
   3  -7   8   39.87    2.72
   3  -7   9   34.68    2.57
   3  -7  10   38.50    2.83
   3  -7  11  200.87    7.17
   3  -7  12    4.67    1.11
   3  -7  13    9.51    1.19
   3  -7  14    2.59    0.60
  -3   6   9  113.95    4.33
   3  -6  -8  110.47    4.49
  -3   6   8  109.09    4.64
  -3   6   7  168.92    6.42
  -3   6   6   59.33    3.54
  -3   6   5    1.30    0.66
  -3   6   5    1.16    0.70
  -3   6   4   14.44    1.55
   3  -6  -3   26.19    3.84
   3  -6  -2   37.45    4.42
   3  -6  -1    1.25    0.98
   3  -6   0    6.71    1.87
  -3   6  -1    8.20    1.85
   3  -6   1    7.13    1.70
  -3   6  -2    5.97    1.62
  -3   6  -2    7.75    1.92
  -3   6  -3    7.14    1.70
  -3   6  -3    5.81    1.79
  -3   6  -4   94.46    6.17
  -3   6  -4   88.43    6.32
  -3   6  -5  510.33   18.07
  -3   6  -5  558.54   18.92
  -3   6  -6  104.05    7.16
  -3   6  -6  104.96    7.15
  -3   6  -7   42.49    4.68
   3  -6   8   93.04    4.32
  -3   6  -9  143.62    5.49
   3  -6   9  133.29    5.60
   3  -6  10   45.54    3.03
   3  -6  11  173.85    6.36
   3  -6  11  169.15    6.47
   3  -6  12   10.16    1.50
   3  -6  13   24.96    1.93
   3  -6  14    3.79    0.61
  -3   5  10    4.80    0.78
  -3   5   9    8.28    1.30
  -3   5   8   60.38    3.53
  -3   5   7   14.51    1.81
  -3   5   7   15.54    1.77
  -3   5   6   -0.04    0.66
  -3   5   6    2.20    0.92
  -3   5   5    9.86    1.36
  -3   5   5    8.65    1.29
   3  -5  -4    8.36    2.30
   3  -5  -3   11.70    2.53
   3  -5  -2    0.61    0.86
  -3   5   1   38.54    3.58
   3  -5  -1   33.66    3.69
  -3   5   1   38.14    3.74
   3  -5   0   71.53    5.30
  -3   5   0   82.63    5.16
   3  -5   1  812.81   24.36
  -3   5  -1  858.00   23.69
  -3   5  -1  894.01   23.48
  -3   5  -1  872.50   25.11
  -3   5  -2  947.57   25.60
  -3   5  -2  952.31   27.00
  -3   5  -3  110.54    6.11
  -3   5  -3  125.84    7.20
  -3   5  -4  192.79    8.75
  -3   5  -4  197.36    9.38
  -3   5  -5   61.95    4.89
  -3   5  -5   63.33    5.27
  -3   5  -6   73.84    5.74
  -3   5  -6   78.82    6.19
  -3   5  -7   29.80    3.91
  -3   5  -8   13.81    2.78
   3  -5   8   13.79    1.55
  -3   5  -8   12.33    1.41
  -3   5  -9  525.47   13.99
   3  -5   9  502.68   14.19
   3  -5  10   28.08    2.39
   3  -5  11   75.87    3.93
   3  -5  12   18.76    1.72
   3  -5  12   15.00    1.71
   3  -5  13   21.81    1.71
   3  -5  13   22.08    1.61
  -3   4  11   74.32    3.09
  -3   4  10   48.36    2.85
  -3   4   9    1.89    0.88
  -3   4   8    7.38    1.21
  -3   4   8    4.78    1.15
  -3   4   7   55.48    3.41
  -3   4   7   63.06    3.57
  -3   4   6   30.44    2.36
  -3   4   6   24.88    2.15
   3  -4  -5    6.57    2.00
   3  -4  -4  142.21    8.74
   3  -4  -3   19.31    2.93
   3  -4  -2  667.16   20.85
  -3   4   2  670.81   19.96
   3  -4  -1  574.36   18.52
  -3   4   1  616.59   18.53
  -3   4   1  638.94   18.93
   3  -4   0  333.85   11.94
  -3   4   0  337.55   12.56
  -3   4   0  339.85   11.93
   3  -4   1    5.58    1.40
  -3   4  -1    5.16    1.27
  -3   4  -1    5.92    1.25
  -3   4  -2   61.45    3.79
  -3   4  -2   64.30    4.82
  -3   4  -3  343.53   12.72
  -3   4  -3  343.12   11.35
  -3   4  -4  100.76    6.39
  -3   4  -4  106.14    5.80
  -3   4  -5  114.85    7.24
  -3   4  -5  110.94    6.43
  -3   4  -6  220.52   11.03
  -3   4  -6  215.53   10.29
  -3   4  -7   37.43    4.61
  -3   4  -8  217.99   12.29
   3  -4   8  248.11    8.01
  -3   4  -9   37.64    2.52
   3  -4   9   32.79    2.50
   3  -4  10  328.17   10.27
   3  -4  11    1.69    1.07
   3  -4  12   22.25    1.92
   3  -4  12   19.96    1.85
   3  -4  13  108.36    3.98
   3  -4  13  102.53    3.93
  -3   3  12    2.04    0.50
  -3   3  11   57.87    2.96
  -3   3  10    0.83    0.61
  -3   3   9    0.03    0.58
  -3   3   9   -0.12    0.69
  -3   3   8  162.23    6.34
  -3   3   8  164.59    6.38
  -3   3   7    1.88    0.86
  -3   3   7    2.89    0.90
  -3   3   6    6.48    1.77
   3  -3  -6    6.15    1.86
   3  -3  -5    0.05    1.07
  -3   3   5    1.18    1.18
   3  -3  -4  393.04   15.15
   3  -3  -3   22.68    2.94
  -3   3   2 1207.85   31.80
   3  -3  -2 1258.52   32.07
  -3   3   1    6.79    1.73
  -3   3   1    4.41    1.39
  -3   3   1    3.55    1.31
   3  -3  -1    5.16    1.30
   3  -3   0  833.85   21.54
  -3   3   0  793.04   21.96
  -3   3   0  776.09   22.30
   3  -3   1  667.31   17.98
  -3   3  -1  651.64   16.53
  -3   3  -1  635.94   19.10
  -3   3  -2   88.81    5.47
  -3   3  -2   88.92    4.00
  -3   3  -3    7.05    1.63
  -3   3  -3    8.88    1.33
  -3   3  -4    0.57    0.65
  -3   3  -4   -0.47    1.08
  -3   3  -5  251.81   11.50
  -3   3  -5  259.67   10.40
  -3   3  -6   71.38    6.07
  -3   3  -7   56.23    5.71
  -3   3  -8   81.38    3.88
   3  -3   8   83.89    4.00
  -3   3  -9  213.70    7.31
   3  -3  10  108.27    5.00
   3  -3  11    3.45    0.97
   3  -3  11    1.92    0.75
   3  -3  12    6.16    1.08
   3  -3  12    6.06    1.02
   3  -3  13   12.19    1.18
  -3   2  12   83.91    3.45
  -3   2  11    3.39    0.87
  -3   2  10   11.25    1.38
  -3   2  10    7.95    1.26
  -3   2   9   63.51    3.71
  -3   2   9   78.08    3.94
  -3   2   8    3.83    0.96
  -3   2   8    2.79    0.77
  -3   2   7  398.22   11.14
  -3   2   7  387.64   11.22
  -3   2   7  384.99   11.27
  -3   2   6  284.72   13.22
   3  -2  -6  298.22   13.73
  -3   2   5  161.29    8.69
   3  -2  -5  166.19    9.05
  -3   2   4    7.79    1.80
   3  -2  -4    7.05    1.77
  -3   2   3  660.08   19.74
   3  -2  -3  681.42   19.93
  -3   2   2  422.68   13.80
   3  -2  -2  417.61   13.33
  -3   2   1   54.67    3.90
   3  -2  -1   55.37    3.55
  -3   2   1   60.02    4.20
   3  -2   0  491.78   13.47
  -3   2   0  492.34   14.86
  -3   2   0  449.62   14.71
  -3   2  -1  109.11    3.54
  -3   2  -1  104.48    5.70
   3  -2   1  120.26    4.77
  -3   2  -2  437.00   11.44
   3  -2   2  466.78   13.67
  -3   2  -3    0.28    0.51
   3  -2   3   -0.47    0.80
  -3   2  -3   -0.22    1.05
  -3   2  -4  202.55    8.02
   3  -2   4  214.30    9.42
   3  -2   5  557.63   18.79
  -3   2  -5  530.46   18.94
  -3   2  -6  162.51    9.59
  -3   2  -7   27.55    4.03
  -3   2  -8    2.70    0.74
   3  -2   9    2.70    0.86
  -3   2  -9    4.65    1.01
   3  -2  10    1.75    0.91
  -3   2 -10    1.66    0.77
   3  -2  11  114.84    4.81
   3  -2  11  120.13    5.10
   3  -2  12   62.37    3.20
   3  -2  13    0.99    0.45
  -3   1  13    1.53    0.47
  -3   1  12    0.40    0.58
  -3   1  11   15.05    1.66
  -3   1  10  185.42    6.92
  -3   1   9    0.31    0.53
  -3   1   9    0.09    0.60
  -3   1   9    0.74    0.74
  -3   1   8   20.38    1.77
  -3   1   8   20.06    1.94
  -3   1   7   86.75    7.04
   3  -1  -7   98.51    7.64
  -3   1   6    1.39    1.06
   3  -1  -6    3.61    1.61
  -3   1   5  221.68   10.12
  -3   1   4   11.82    1.93
  -3   1   3  228.67    8.64
   3  -1  -3  241.19    9.20
  -3   1   3  225.65    9.42
  -3   1   2  892.33   22.08
  -3   1   2  866.87   23.50
  -3   1   2  871.80   24.25
   3  -1  -2  918.81   22.85
  -3   1   2  869.40   23.82
  -3   1   1  132.02    4.54
  -3   1   1  120.68    5.57
  -3   1   1  127.18    6.35
   3  -1  -1  139.54    5.32
  -3   1   1  137.42    6.14
  -3   1   1  124.00    6.15
   3  -1   0   14.51    1.42
  -3   1   0   13.25    1.84
   3  -1   1   15.95    1.72
  -3   1  -1   15.17    2.08
  -3   1  -2  515.46   16.31
   3  -1   2  527.87   15.48
   3  -1   3  262.33   10.21
  -3   1  -3  252.27   10.56
   3  -1   4   96.55    6.18
  -3   1  -4   97.28    6.55
   3  -1   5   45.76    4.57
  -3   1  -5   52.95    5.03
   3  -1   6   43.58    4.75
  -3   1  -6   38.04    4.55
   3  -1   7   57.13    5.84
  -3   1  -7   54.67    5.91
   3  -1   8  443.96   12.95
  -3   1  -8  457.88   12.74
  -3   1  -9   -0.01    0.53
   3  -1   9    0.57    0.71
   3  -1  10   25.53    2.23
   3  -1  11   31.26    2.40
   3  -1  12    8.58    1.11
  -3   0  13    1.49    0.57
  -3   0  12    1.65    0.71
  -3   0  12    3.28    0.69
  -3   0  11   47.82    3.10
  -3   0  11   59.84    3.11
  -3   0  10    6.58    1.08
  -3   0  10    8.08    1.37
  -3   0  10    5.89    1.12
  -3   0   9  266.13    8.50
  -3   0   9  268.07    8.59
  -3   0   8    3.14    0.81
  -3   0   8    3.87    0.78
  -3   0   7    6.48    1.68
  -3   0   6    2.64    1.28
  -3   0   6    2.92    1.34
  -3   0   5  318.73   12.56
  -3   0   5  359.64   12.77
  -3   0   4  318.39   11.42
  -3   0   4  303.63   11.11
  -3   0   3  335.86   10.93
  -3   0   2  160.75    6.48
   3   0  -2  158.35    4.48
  -3   0   2  174.31    6.03
  -3   0   2  157.19    7.27
  -3   0   2  157.23    7.08
  -3   0   2  154.20    6.86
  -3   0   1  163.21    7.15
  -3   0   1  154.26    6.67
   3   0  -1  172.35    5.40
  -3   0   1  160.10    7.18
   3   0  -1  168.70    5.51
  -3   0   1  167.95    6.70
   3   0   0   30.24    2.28
  -3   0   0   32.50    2.78
  -3   0  -1  109.78    5.65
   3   0   1  110.85    5.22
   3   0   2   18.20    2.26
  -3   0  -2   21.62    2.57
   3   0   3  551.41   17.18
  -3   0  -3  524.82   17.58
  -3   0  -4  688.52   22.13
   3   0   4  697.46   21.64
   3   0   5  137.92    8.37
  -3   0  -5  140.39    8.70
   3   0   6    0.95    1.25
  -3   0  -6   -0.54    1.15
  -3   0  -7   79.78    3.90
   3   0   7   81.76    4.11
  -3   0  -8  113.07    4.99
   3   0   8  112.18    5.07
   3   0   9    5.02    1.24
   3   0  10   33.36    2.58
   3   0  11   29.68    2.27
   3   0  12    2.81    0.69
  -3  -1  13   25.48    1.62
  -3  -1  13   27.01    1.85
  -3  -1  12  143.04    5.29
  -3  -1  12  148.24    5.59
  -3  -1  11   41.35    2.70
  -3  -1  11   43.87    2.71
  -3  -1  10   39.52    2.72
  -3  -1  10   39.59    2.70
  -3  -1   9   50.04    3.05
  -3  -1   9   48.83    2.97
  -3  -1   8    4.96    1.77
  -3  -1   7    7.02    1.93
  -3  -1   7    8.44    1.96
  -3  -1   6   32.20    3.67
  -3  -1   6   31.92    3.69
  -3  -1   5  397.54   14.34
  -3  -1   5  431.89   14.93
  -3  -1   4  534.19   16.32
  -3  -1   4  531.28   17.00
  -3  -1   3   45.85    3.77
   3   1  -3   45.78    2.37
  -3  -1   3   43.92    3.75
  -3  -1   3   42.34    3.68
   3   1  -3   47.20    2.69
  -3  -1   3   48.32    3.39
   3   1  -2   47.32    2.60
  -3  -1   2   40.65    3.41
   3   1  -2   40.76    1.88
  -3  -1   2   41.71    3.49
  -3  -1   2   45.54    2.92
  -3  -1   2   44.66    3.47
  -3  -1   1   53.83    3.26
   3   1  -1   61.52    3.39
  -3  -1   1   58.27    3.82
   3   1  -1   56.27    2.18
  -3  -1   0  852.75   21.85
  -3  -1   0  830.21   21.83
   3   1   0  819.02   21.56
   3   1   1  412.31   13.28
  -3  -1  -1  433.13   13.75
   3   1   2   27.21    2.95
  -3  -1  -2   26.06    3.03
   3   1   3    1.33    1.10
  -3  -1  -3    0.65    1.12
   3   1   4   30.85    3.60
   3   1   5  105.01    7.44
   3   1   6   36.25    4.63
   3   1   7   11.23    1.57
   3   1   8   86.23    4.41
   3   1   9    3.87    1.18
   3   1  10    4.80    1.18
   3   1  11    2.13    0.82
  -3  -2  14   -0.63    0.41
  -3  -2  13   11.83    1.26
  -3  -2  13   10.30    1.15
  -3  -2  12   21.96    1.95
  -3  -2  12   21.77    1.89
  -3  -2  11   29.17    2.31
  -3  -2  11   30.36    2.23
  -3  -2  10   24.41    2.17
  -3  -2  10   28.47    2.28
  -3  -2   9   48.95    2.93
  -3  -2   9   50.05    2.95
  -3  -2   8   70.72    6.23
  -3  -2   8   60.19    5.93
  -3  -2   7  188.44   10.26
  -3  -2   7  173.63    9.86
  -3  -2   6  236.86   11.10
  -3  -2   6  271.52   11.90
  -3  -2   5  118.86    6.74
  -3  -2   5  119.40    7.17
  -3  -2   5  112.40    6.66
   3   2  -5  129.42    6.41
   3   2  -4  334.08   10.92
  -3  -2   4  336.86   12.19
  -3  -2   4  329.50   12.73
  -3  -2   4  334.84   12.64
   3   2  -3  741.61   18.58
  -3  -2   3  728.87   21.09
  -3  -2   3  725.45   21.25
  -3  -2   3  716.91   20.65
   3   2  -2   58.66    3.57
   3   2  -2   55.70    2.70
  -3  -2   2   55.12    4.27
  -3  -2   2   58.44    3.14
  -3  -2   1   90.77    4.42
  -3  -2   1   92.95    4.83
   3   2  -1   98.28    4.95
  -3  -2   0  161.37    6.98
   3   2   0  158.29    7.19
  -3  -2   0  178.31    6.78
   3   2   1    2.04    1.13
  -3  -2  -1    5.30    1.03
  -3  -2  -1    3.84    1.15
   3   2   2   15.30    2.35
  -3  -2  -2   13.79    2.19
   3   2   3   96.80    6.53
   3   2   4  323.79   13.93
   3   2   5    2.61    1.37
  -3  -2  -6   23.47    1.95
   3   2   6   23.55    2.08
   3   2   7   -0.71    0.69
   3   2   8    2.38    0.98
   3   2   9   11.36    1.56
   3   2  10   27.88    2.11
   3   2  11   -0.85    0.59
  -3  -3  14    3.30    0.62
  -3  -3  14    3.69    0.62
  -3  -3  13   22.44    1.77
  -3  -3  13   22.37    1.79
  -3  -3  12    2.59    0.70
  -3  -3  12    3.11    0.72
  -3  -3  11   26.29    2.24
  -3  -3  11   25.95    2.08
  -3  -3  10    0.52    0.58
  -3  -3  10    0.86    0.49
  -3  -3  10    1.51    0.68
  -3  -3   9  178.69    6.43
  -3  -3   9  177.14    6.22
   3   3  -8   91.75    6.97
  -3  -3   8   93.22    7.41
  -3  -3   7   12.25    2.54
   3   3  -7    8.93    1.80
  -3  -3   7   11.58    2.26
   3   3  -6   67.73    5.08
  -3  -3   6   66.42    5.07
  -3  -3   6   62.37    5.49
   3   3  -5  994.86   26.74
  -3  -3   5  986.87   28.59
  -3  -3   5  987.39   27.12
  -3  -3   4  198.14    9.49
   3   3  -4  207.23    8.14
  -3  -3   4  206.80    9.54
  -3  -3   4  210.56    8.75
   3   3  -3  175.71    6.67
  -3  -3   3  173.01    8.20
  -3  -3   3  161.50    8.28
   3   3  -2  149.88    5.81
  -3  -3   2  137.77    7.37
   3   3  -1  117.45    4.94
   3   3  -1  118.56    6.22
   3   3   0  108.95    6.22
  -3  -3   0  111.44    5.65
   3   3   1  467.56   16.44
  -3  -3  -1  503.36   15.97
   3   3   2   78.23    5.85
   3   3   3   23.69    3.43
   3   3   4    1.73    1.36
  -3  -3  -5   21.12    1.82
   3   3   5   20.16    1.88
   3   3   6   45.74    3.01
  -3  -3  -6   50.59    3.03
   3   3   7    1.56    0.90
   3   3   8   19.22    1.97
   3   3   9   49.89    2.94
  -3  -3  -9   49.53    2.75
   3   3  10  113.25    4.28
  -3  -4  14    1.20    0.52
  -3  -4  14   -0.36    0.35
  -3  -4  13   26.54    2.03
  -3  -4  12    1.22    0.78
  -3  -4  12    1.55    0.68
  -3  -4  11   60.43    3.50
  -3  -4  11   67.56    3.47
  -3  -4  11   62.33    3.35
  -3  -4  10    1.05    0.68
  -3  -4  10    0.04    0.66
  -3  -4   9   35.92    2.52
  -3  -4   9   32.90    2.32
  -3  -4   8  137.65    9.47
   3   4  -7    3.32    1.51
  -3  -4   7    2.71    1.24
   3   4  -6   14.13    2.47
  -3  -4   6    9.14    2.23
  -3  -4   5  683.75   22.91
  -3  -4   5  685.03   22.93
   3   4  -4   14.38    1.99
  -3  -4   4   10.87    2.21
  -3  -4   4    9.78    2.14
   3   4  -3  813.12   21.84
  -3  -4   3  822.24   23.72
  -3  -4   3  779.10   23.89
   3   4  -2   32.93    2.84
   3   4  -1    2.56    1.31
   3   4   0   17.05    2.66
   3   4   1   27.68    3.49
   3   4   2   57.74    5.41
   3   4   3   76.78    6.62
  -3  -4  -4    1.04    0.52
  -3  -4  -5   58.56    3.36
   3   4   5   58.44    3.37
   3   4   6   12.40    1.58
  -3  -4  -6   12.37    1.39
   3   4   7   36.97    2.64
  -3  -4  -7   35.85    2.55
  -3  -4  -8    7.19    1.11
   3   4   8    7.41    1.25
   3   4   9    5.13    0.90
  -3  -5  14    1.50    0.57
  -3  -5  13    7.66    1.15
  -3  -5  12   51.45    3.12
  -3  -5  12   56.53    2.99
  -3  -5  12   53.67    3.01
  -3  -5  11   -0.29    0.70
  -3  -5  11    0.30    0.55
  -3  -5  10    1.53    0.68
  -3  -5  10    0.54    0.52
  -3  -5   9  209.72    7.21
  -3  -5   9  212.67    7.20
  -3  -5   8    9.88    2.56
  -3  -5   7  193.38   11.06
   3   5  -6  197.11    9.74
  -3  -5   6  174.40   10.25
  -3  -5   5   67.75    5.78
  -3  -5   5   71.66    5.84
   3   5  -5   75.72    5.36
  -3  -5   4   12.55    2.40
   3   5  -4   16.20    2.28
  -3  -5   4   14.99    2.67
  -3  -5   3  107.21    6.91
  -3  -5   3  106.37    6.98
   3   5  -2    1.29    1.22
   3   5  -1   12.25    2.33
   3   5   0   17.76    2.91
   3   5   1    5.09    1.91
   3   5   2   89.87    7.34
  -3  -5  -3  193.98    6.84
  -3  -5  -4    2.73    0.82
  -3  -5  -5   11.01    1.49
  -3  -5  -5    9.89    1.35
   3   5   5   10.70    1.43
  -3  -5  -6   60.59    3.35
  -3  -5  -6   61.57    3.48
   3   5   6   61.55    3.41
  -3  -5  -7    2.79    0.76
   3   5   7    2.07    0.70
   3   5   8  137.71    4.88
  -3  -5  -8  131.90    4.69
  -3  -5  -9   -0.25    0.37
  -3  -6  14    0.24    0.49
  -3  -6  13    9.25    1.28
  -3  -6  12   79.93    3.84
  -3  -6  12   80.92    3.72
  -3  -6  12   77.42    3.73
  -3  -6  11   56.40    3.29
  -3  -6  11   57.56    3.28
  -3  -6  10  129.37    5.24
  -3  -6  10  129.88    5.30
  -3  -6   9   18.38    1.70
  -3  -6   9   20.28    1.90
  -3  -6   8   -0.09    0.36
  -3  -6   8   -0.95    0.59
  -3  -6   7  125.74    9.00
  -3  -6   6   15.32    3.01
  -3  -6   5  197.60   10.59
  -3  -6   5  190.78   10.63
  -3  -6   4   15.80    2.67
  -3  -6   4   11.54    2.35
  -3  -6   3    1.36    0.70
   3   6  -2  272.07   12.63
  -3  -6   2  247.69   12.17
   3   6  -1   25.10    3.57
   3   6   0   24.00    3.72
  -3  -6  -1  102.66    4.48
   3   6   1   90.11    7.53
  -3  -6  -1  100.79    4.40
  -3  -6  -2   40.82    2.78
  -3  -6  -2   44.36    2.85
  -3  -6  -3   40.20    2.81
  -3  -6  -3   38.17    2.76
  -3  -6  -4    1.17    0.67
  -3  -6  -4    2.19    0.86
  -3  -6  -5   52.80    3.19
  -3  -6  -5   51.74    3.15
  -3  -6  -6    0.32    0.56
   3   6   7   16.50    1.42
  -3  -6  -7   16.95    1.48
  -3  -6  -8   15.01    1.19
  -3  -7  14   74.42    3.00
  -3  -7  13   20.87    1.64
  -3  -7  13   19.74    1.62
  -3  -7  12   73.70    3.53
  -3  -7  12   70.60    3.50
  -3  -7  11   41.95    2.63
  -3  -7  11   42.67    2.71
  -3  -7  10    0.40    0.54
  -3  -7  10   -0.99    0.74
  -3  -7   9   54.63    3.24
  -3  -7   8   -0.18    0.50
  -3  -7   7  119.32    4.88
  -3  -7   6   18.90    1.69
  -3  -7   6   25.27    3.91
  -3  -7   6   21.50    1.86
  -3  -7   5  194.38   10.97
  -3  -7   5  203.89   11.16
  -3  -7   4    1.71    1.11
   3   7  -3   19.98    3.33
  -3  -7   3   18.55    3.12
   3   7  -2   54.01    5.63
  -3  -7   2   48.72    5.17
  -3  -7   1   37.26    2.52
  -3  -7   1   42.63    2.65
  -3  -7   1   38.50    2.56
  -3  -7   0   25.37    2.09
  -3  -7   0   25.35    2.11
  -3  -7  -1   75.22    3.95
  -3  -7  -1   75.89    3.95
  -3  -7  -2    9.29    1.37
  -3  -7  -2   11.15    1.51
  -3  -7  -3   72.95    3.88
  -3  -7  -3   70.85    3.87
  -3  -7  -4  116.55    5.07
  -3  -7  -5   46.45    2.81
  -3  -7  -6   66.02    3.15
  -3  -7  -7    2.85    0.64
  -3  -8  14   27.95    1.55
  -3  -8  13   27.35    1.76
  -3  -8  13   22.55    1.55
  -3  -8  13   26.11    1.78
  -3  -8  12    8.43    1.05
  -3  -8  12    6.90    1.00
  -3  -8  11    6.40    1.03
  -3  -8  10    6.99    1.22
  -3  -8   9   38.63    2.67
  -3  -8   8   70.70    3.76
  -3  -8   7   74.01    3.76
  -3  -8   6   93.94    4.25
  -3  -8   6   94.41    4.10
  -3  -8   5   43.55    2.70
  -3  -8   5   48.33    2.76
  -3  -8   5   45.57    2.68
  -3  -8   5   46.03    2.83
  -3  -8   4   12.68    1.41
  -3  -8   4   14.37    1.52
  -3  -8   4   18.60    1.74
  -3  -8   4   16.11    1.60
  -3  -8   3    7.26    1.13
  -3  -8   3   10.85    1.29
  -3  -8   2   16.81    1.68
  -3  -8   2   16.62    1.70
  -3  -8   1  496.82   13.42
  -3  -8   1  469.16   13.46
  -3  -8   0   15.60    1.71
  -3  -8   0   17.99    1.87
  -3  -8  -1    1.53    0.81
  -3  -8  -1    0.98    0.62
  -3  -8  -2    1.82    0.71
  -3  -8  -3  131.95    5.47
  -3  -8  -4   11.71    1.42
  -3  -8  -4   10.23    1.38
  -3  -8  -5   24.68    1.89
  -3  -8  -5   29.31    1.98
  -3  -8  -6   10.21    0.95
  -3  -9  13   45.09    2.18
  -3  -9  13   48.37    2.40
  -3  -9  12   60.33    3.05
  -3  -9  11    8.90    1.30
  -3  -9  10   48.58    2.99
  -3  -9   9   15.81    1.75
  -3  -9   8    0.88    0.59
  -3  -9   7  134.54    5.31
  -3  -9   6    8.08    1.29
  -3  -9   6   11.62    1.39
  -3  -9   5   26.27    2.13
  -3  -9   4  256.82    8.30
  -3  -9   3    8.02    1.17
  -3  -9   3   10.02    1.39
  -3  -9   2  176.75    6.39
  -3  -9   2  171.93    6.55
  -3  -9   1   47.11    2.95
  -3  -9   1   47.20    3.10
  -3  -9   0   26.33    2.24
  -3  -9   0   28.93    2.39
  -3  -9  -1    6.63    1.18
  -3  -9  -1    5.31    1.12
  -3  -9  -2   19.26    1.78
  -3  -9  -2   21.99    2.02
  -3  -9  -3   10.45    1.26
  -3  -9  -3    9.16    1.22
  -3  -9  -4    2.18    0.64
  -3  -9  -4    3.24    0.76
  -3  -9  -5   -0.58    0.38
  -3 -10  13    0.60    0.32
  -3 -10  13   -0.58    0.38
  -3 -10  12   50.64    2.40
  -3 -10  12   48.84    2.59
  -3 -10  11   42.13    2.58
  -3 -10  10   28.77    2.22
  -3 -10   9   52.45    3.11
  -3 -10   8  124.98    4.89
  -3 -10   8  119.46    5.18
  -3 -10   7   55.00    3.10
  -3 -10   6    0.89    0.54
  -3 -10   5   18.12    1.79
  -3 -10   4   20.11    1.90
  -3 -10   3   22.44    2.06
  -3 -10   3   28.16    2.09
  -3 -10   2    3.32    0.92
  -3 -10   2    3.18    0.89
  -3 -10   1   13.75    1.44
  -3 -10   1   11.97    1.59
  -3 -10   0    3.78    0.87
  -3 -10   0    5.72    1.06
  -3 -10  -1    3.43    0.81
  -3 -10  -1    3.16    0.77
  -3 -10  -2    1.88    0.60
  -3 -10  -2    1.78    0.61
  -3 -10  -3    0.28    0.36
  -3 -11  12   37.63    1.90
  -3 -11  12   37.33    2.02
  -3 -11  11   19.06    1.59
  -3 -11  10    1.33    0.59
  -3 -11   9   -0.17    0.55
  -3 -11   8    9.49    1.18
  -3 -11   8    8.40    1.24
  -3 -11   7    1.91    0.78
  -3 -11   6    0.78    0.47
  -3 -11   5    3.74    0.83
  -3 -11   4   25.77    2.04
  -3 -11   3    0.90    0.60
  -3 -11   2    5.04    1.01
  -3 -11   1    5.54    0.87
  -3 -11   1    5.00    0.92
  -3 -11   0    3.93    0.72
  -3 -11   0    5.41    0.92
  -3 -11  -1    0.98    0.42
  -3 -11  -1    0.60    0.49
  -3 -11  -2    1.77    0.45
  -3 -12  11    4.61    0.74
  -3 -12  10    9.13    1.05
  -3 -12   9   13.79    1.37
  -3 -12   8   13.42    1.37
  -3 -12   7    2.85    0.71
  -3 -12   7    5.86    0.96
  -3 -12   6   -0.87    0.56
  -3 -12   5    2.75    0.78
  -3 -12   4   23.69    1.80
  -3 -12   3    3.94    0.83
  -3 -12   2    0.35    0.46
  -3 -12   1    6.82    0.90
  -3 -12   0    1.88    0.49
  -3 -13  10   12.15    1.01
  -3 -13  10   11.03    0.95
  -3 -13   9    6.25    0.82
  -3 -13   8    4.60    0.77
  -3 -13   7    0.73    0.52
  -3 -13   6   -0.03    0.37
  -3 -13   6    0.00    0.42
  -3 -13   5   15.34    1.25
  -3 -13   4   20.66    1.40
  -3 -13   3   37.77    1.84
   4 -14   3   21.43    1.37
   4 -14   4    0.74    0.42
   4 -14   5   10.84    0.95
   4 -14   5   12.32    1.10
   4 -14   6   21.78    1.48
   4 -14   7    1.52    0.50
   4 -14   7    1.57    0.46
   4 -14   8   52.14    2.21
   4 -14   8   52.57    2.29
   4 -13   0    3.16    0.61
  -4  13   0    2.22    0.50
   4 -13   1    6.25    0.85
  -4  13  -1    7.52    0.92
  -4  13  -2   19.58    1.51
   4 -13   2   16.82    1.43
   4 -13   3    1.59    0.67
  -4  13  -3    2.70    0.68
   4 -13   4    7.60    1.08
  -4  13  -4    7.25    0.99
  -4  13  -5   22.25    1.66
   4 -13   5   21.80    1.77
  -4  13  -6   60.37    2.81
   4 -13   6   60.30    3.04
   4 -13   7    1.74    0.65
  -4  13  -7    2.46    0.61
   4 -13   8   20.71    1.63
   4 -13   9    2.04    0.53
   4 -13  10    4.71    0.73
   4 -13  10    5.95    0.69
  -4  12   2   25.10    1.54
   4 -12  -1   77.43    3.22
   4 -12   0   17.81    1.56
   4 -12   1    5.46    1.02
  -4  12  -1    7.66    1.15
  -4  12  -2   46.11    2.74
   4 -12   2   46.50    2.80
   4 -12   3   10.47    1.31
  -4  12  -3    8.94    1.21
   4 -12   4    7.39    1.13
  -4  12  -4    5.44    0.99
  -4  12  -5   32.02    2.26
   4 -12   5   31.84    2.37
  -4  12  -6   43.28    2.63
   4 -12   6   42.17    2.70
   4 -12   7    8.47    1.24
  -4  12  -7    8.19    1.14
   4 -12   8   -0.47    0.56
   4 -12   9   -0.32    0.50
   4 -12  10    1.93    0.66
   4 -12  11   24.18    1.61
   4 -11  -3   21.02    1.50
   4 -11  -2   31.91    2.06
   4 -11  -1   75.13    3.57
   4 -11   0    0.26    0.58
   4 -11   1    0.92    0.68
   4 -11   2   17.29    1.78
   4 -11   3   -0.95    0.72
  -4  11  -3   -0.28    0.72
   4 -11   4   11.20    1.55
  -4  11  -4    9.85    1.39
   4 -11   5   15.98    1.83
  -4  11  -5   15.43    1.62
  -4  11  -6   44.95    2.87
   4 -11   6   42.49    2.87
   4 -11   7   14.63    1.62
  -4  11  -7   16.29    1.69
  -4  11  -8  134.22    5.23
   4 -11   8  137.48    5.40
   4 -11   9  105.72    4.52
   4 -11  10    9.99    1.26
  -4  11 -10    9.39    1.07
   4 -11  11    4.54    0.82
   4 -11  12   16.22    1.28
   4 -10  -4    1.19    0.54
  -4  10   4    1.17    0.51
  -4  10   3   12.96    1.29
   4 -10  -3   13.82    1.47
   4 -10  -2   13.83    1.54
  -4  10   2   11.61    1.30
   4 -10  -1   99.84    4.55
   4 -10   0    3.00    0.95
   4 -10   1    4.31    1.00
   4 -10   2   -0.49    0.55
  -4  10  -3   31.21    2.46
   4 -10   3   33.06    2.53
  -4  10  -4  161.83    6.28
   4 -10   4  169.25    6.41
  -4  10  -5  241.66    8.23
   4 -10   5  251.34    8.35
   4 -10   6    5.00    0.97
  -4  10  -6    6.90    1.30
  -4  10  -7   29.61    2.36
   4 -10   7   28.62    2.33
   4 -10   8    0.47    0.58
  -4  10  -8   -0.13    0.51
   4 -10   9   26.61    2.19
  -4  10 -10  181.78    6.08
   4 -10  10  183.34    6.45
   4 -10  11   28.22    1.98
   4 -10  11   32.87    2.20
   4 -10  12    4.12    0.76
   4 -10  12    3.18    0.63
  -4   9   6    1.60    0.47
  -4   9   5   31.40    2.04
   4  -9  -5   32.92    2.04
   4  -9  -4    2.27    0.77
  -4   9   4    1.17    0.60
  -4   9   3   99.03    4.39
   4  -9  -3   98.32    4.41
  -4   9   2   50.36    3.00
   4  -9  -2   49.93    3.07
   4  -9  -1    1.77    0.69
  -4   9   1    3.17    0.92
   4  -9   0    0.07    0.52
  -4   9   0   -0.12    0.51
  -4   9  -1  136.65    5.30
   4  -9   1  120.05    5.26
   4  -9   2  187.30    6.87
  -4   9  -3  127.06    5.28
   4  -9   3  120.60    5.22
  -4   9  -4  123.61    5.14
   4  -9   4  110.38    4.98
   4  -9   5    4.51    1.00
  -4   9  -5    2.46    0.80
   4  -9   6    9.95    1.38
  -4   9  -6   11.14    1.49
  -4   9  -7  429.85   12.44
   4  -9   7  443.74   12.57
  -4   9  -8   74.84    3.90
   4  -9   8   71.36    3.85
   4  -9   9    3.64    0.99
   4  -9  10   12.63    1.51
  -4   9 -10   11.60    1.34
   4  -9  11   -0.87    0.67
   4  -9  12   16.21    1.50
   4  -9  12   14.45    1.38
   4  -9  13    4.52    0.68
  -4   8   7    7.43    0.95
  -4   8   6    0.46    0.48
  -4   8   5   70.32    3.60
   4  -8  -5   77.04    3.61
   4  -8  -4   87.78    4.12
  -4   8   4   90.76    4.28
  -4   8   3  291.13    9.35
   4  -8  -3  306.98    9.46
  -4   8   2   51.86    3.11
   4  -8  -2   55.57    3.26
  -4   8   1   27.86    2.22
   4  -8  -1   26.01    2.16
  -4   8   0  153.80    5.86
   4  -8   0  156.19    5.99
  -4   8  -1  112.34    4.75
   4  -8   1  108.98    4.76
  -4   8  -2  546.40   14.60
   4  -8   2  556.53   14.85
  -4   8  -3   56.56    3.09
  -4   8  -3   59.63    3.30
   4  -8   3   56.85    3.22
   4  -8   4    5.36    0.99
  -4   8  -4    4.61    0.87
  -4   8  -4    3.27    0.82
  -4   8  -5   81.99    3.93
  -4   8  -5   87.29    4.12
   4  -8   5   83.99    4.10
   4  -8   6   12.93    1.59
  -4   8  -6   13.64    1.58
  -4   8  -7   77.06    3.96
   4  -8   7   78.96    4.05
   4  -8   8   25.02    2.18
   4  -8   9   -0.05    0.65
   4  -8  10    0.51    0.66
  -4   8 -10    0.40    0.50
   4  -8  11    2.25    0.77
   4  -8  12    7.47    1.17
   4  -8  13    0.01    0.41
  -4   7   8    8.11    0.96
  -4   7   7   18.40    1.67
  -4   7   6   37.13    2.66
  -4   7   5  107.59    4.97
   4  -7  -4   18.16    1.73
  -4   7   4   12.48    1.60
   4  -7  -3  167.26    6.18
  -4   7   3  152.42    6.16
   4  -7  -2   23.66    2.01
  -4   7   2   23.86    2.09
  -4   7   1  384.46   11.19
   4  -7  -1  393.04   11.14
   4  -7   0   23.73    3.74
   4  -7   1   13.57    2.59
  -4   7  -2   -1.23    1.10
  -4   7  -3   20.25    3.28
  -4   7  -4   20.94    3.50
  -4   7  -5   43.70    5.01
  -4   7  -6   41.44    2.71
  -4   7  -6   42.41    2.70
   4  -7   6   39.59    2.67
   4  -7   7    3.48    0.83
  -4   7  -7    1.04    0.52
  -4   7  -7    2.70    0.79
   4  -7   8   65.39    3.62
   4  -7   9    0.36    0.56
  -4   7  -9    1.23    0.60
  -4   7 -10  135.00    5.28
   4  -7  10  132.94    5.52
   4  -7  11   64.20    3.44
   4  -7  12   -0.32    0.46
   4  -7  12    0.43    0.64
   4  -7  13   -0.21    0.46
  -4   6   9   -0.26    0.42
  -4   6   8   13.98    1.51
  -4   6   7    0.84    0.76
  -4   6   6    2.01    0.78
  -4   6   5  367.20   11.17
  -4   6   4   80.75    4.07
  -4   6   3  176.02    6.48
   4  -6  -2  294.74   14.14
   4  -6  -1   33.59    4.26
  -4   6   0    5.30    1.68
   4  -6   0    3.50    1.54
  -4   6  -1   52.31    5.18
   4  -6   1   50.88    4.95
  -4   6  -2   29.40    3.84
  -4   6  -3  151.22    9.05
  -4   6  -4   27.05    3.79
  -4   6  -5    4.80    1.80
  -4   6  -6   13.27    2.71
  -4   6  -7  142.71    5.61
   4  -6   7  135.78    5.49
   4  -6   8  121.82    5.23
   4  -6   9    4.08    1.01
  -4   6  -9    1.82    0.65
  -4   6 -10   61.62    3.30
   4  -6  10   53.79    3.28
   4  -6  11    1.53    0.75
   4  -6  12   10.70    1.26
   4  -6  12    9.83    1.41
   4  -6  13    3.66    0.63
   4  -6  13    4.32    0.70
  -4   5  10    0.96    0.56
  -4   5  10    2.79    0.65
  -4   5   9    5.98    0.98
  -4   5   8   75.95    3.91
  -4   5   7   29.22    2.42
  -4   5   6  151.71    6.04
  -4   5   5    3.70    0.89
  -4   5   4   46.86    2.92
   4  -5  -3  540.65   20.45
  -4   5   3  555.96   20.73
   4  -5  -2   46.04    4.78
  -4   5   2   49.88    5.04
  -4   5   1   24.06    3.35
  -4   5   1   26.47    3.40
   4  -5  -1   21.15    3.05
  -4   5   0   20.65    2.92
  -4   5   0   18.24    3.03
   4  -5   0   17.59    2.70
  -4   5  -1   47.29    4.68
   4  -5   1   47.87    4.42
  -4   5  -2    4.83    1.80
  -4   5  -3  635.52   21.67
  -4   5  -4   87.17    6.66
  -4   5  -5   82.08    6.66
  -4   5  -6   71.52    6.44
   4  -5   7    9.50    1.29
  -4   5  -7    9.13    1.26
   4  -5   8    5.59    1.10
  -4   5  -8    4.87    1.01
  -4   5  -9   81.97    4.09
   4  -5   9   86.91    4.26
  -4   5 -10   92.27    4.26
   4  -5  11   40.01    2.68
  -4   5 -11   41.18    2.45
   4  -5  12    0.63    0.48
   4  -5  12    2.03    0.82
   4  -5  13    1.54    0.47
   4  -5  13    0.63    0.35
  -4   4  11   11.11    0.99
  -4   4  10  144.36    5.19
  -4   4   9    7.80    1.34
  -4   4   8    3.41    1.03
  -4   4   7  248.43    8.42
  -4   4   6   20.80    2.01
  -4   4   5    1.32    0.58
  -4   4   4   14.94    2.73
   4  -4  -4   16.35    3.04
   4  -4  -3  169.16    9.65
  -4   4   3  189.27   10.35
  -4   4   2    0.11    0.84
   4  -4  -2    2.11    1.51
  -4   4   2    0.66    0.79
   4  -4  -1   39.56    3.89
  -4   4   1   38.54    3.97
  -4   4   1   42.17    4.18
   4  -4   0  177.86    8.42
  -4   4   0  159.04    8.82
  -4   4   0  174.55    8.74
   4  -4   1    1.77    1.18
  -4   4  -1    0.82    0.83
  -4   4  -2   51.53    4.76
  -4   4  -3    2.29    1.23
  -4   4  -4   49.46    4.85
  -4   4  -5  437.27   17.31
  -4   4  -6   39.22    4.77
  -4   4  -7  185.47    6.61
   4  -4   7  190.57    6.66
  -4   4  -8   31.56    2.42
   4  -4   8   31.61    2.47
  -4   4  -9   55.27    3.27
   4  -4   9   57.14    3.39
   4  -4  10   88.71    4.45
  -4   4 -10   92.23    4.23
   4  -4  11   10.75    1.44
  -4   4 -11   11.48    1.28
   4  -4  12    4.36    0.86
   4  -4  12    6.68    1.07
   4  -4  13    6.58    0.79
  -4   3  11    0.50    0.41
  -4   3  10  109.80    4.63
  -4   3   9   18.91    1.90
  -4   3   8  113.65    5.08
  -4   3   7   30.66    2.47
  -4   3   6  364.60   10.83
   4  -3  -5  141.78    9.08
  -4   3   5  134.83    8.57
   4  -3  -4   62.15    5.50
  -4   3   4   62.24    5.22
  -4   3   3   -0.01    1.29
  -4   3   3    0.64    1.02
   4  -3  -3    1.26    1.00
   4  -3  -2   -0.75    0.68
  -4   3   2    0.26    0.91
   4  -3  -1  165.71    7.82
  -4   3   1  176.47    8.76
  -4   3   1  145.84    8.20
  -4   3   1  164.04    8.53
   4  -3   0  105.15    5.69
  -4   3   0  108.07    6.51
  -4   3   0  104.96    6.52
  -4   3  -1  843.46   25.56
   4  -3   1  896.39   23.31
  -4   3  -2  536.46   18.13
  -4   3  -3  482.90   17.38
  -4   3  -4   14.89    2.71
  -4   3  -5   91.20    6.99
  -4   3  -6    2.82    1.88
  -4   3  -7   42.36    2.67
   4  -3   7   38.65    2.59
  -4   3  -8   25.14    2.19
   4  -3   8   26.58    2.21
  -4   3  -9   46.60    2.97
   4  -3  10   -0.77    0.86
  -4   3 -10    0.89    0.61
   4  -3  11    8.82    1.32
   4  -3  11    6.28    1.17
   4  -3  12    6.40    1.07
   4  -3  12    5.74    0.84
  -4   2  12   43.47    2.13
  -4   2  11    8.21    1.10
  -4   2  10    0.40    0.63
  -4   2   9  115.42    5.06
  -4   2   8  445.47   12.05
  -4   2   8  414.56   12.32
  -4   2   7  113.22    4.57
  -4   2   7  104.48    4.73
  -4   2   7  105.25    4.70
  -4   2   6   31.51    4.18
   4  -2  -6   33.92    4.36
  -4   2   6   30.63    2.21
  -4   2   5   50.49    4.78
   4  -2  -5   53.65    5.17
  -4   2   4   93.65    6.00
   4  -2  -4   88.97    6.30
   4  -2  -3  112.28    6.56
  -4   2   3  111.52    7.34
  -4   2   3  107.82    6.89
   4  -2  -2  249.48    9.89
  -4   2   2  239.80   10.96
  -4   2   2  251.15   10.73
  -4   2   2  249.94   10.85
  -4   2   1  189.31    8.93
   4  -2  -1  202.95    7.96
  -4   2   1  205.58    8.04
  -4   2   1  188.19    9.12
  -4   2   1  183.69    9.01
  -4   2   0   53.37    3.60
  -4   2   0   49.74    4.33
  -4   2  -1  271.91   11.23
   4  -2   2   62.82    4.51
  -4   2  -2   63.05    5.08
  -4   2  -3   34.42    3.79
   4  -2   3   39.00    3.84
  -4   2  -4   81.75    6.38
   4  -2   4   82.33    6.12
  -4   2  -5   50.52    5.25
  -4   2  -6   72.40    6.62
  -4   2  -7   11.09    1.39
  -4   2  -8   28.35    2.31
  -4   2  -9   45.54    2.93
   4  -2   9   38.64    2.85
   4  -2  10   36.69    2.69
   4  -2  11   48.62    2.89
   4  -2  12   56.79    2.75
  -4   1  12   41.80    2.26
  -4   1  11   61.30    3.22
  -4   1  10   56.91    3.03
  -4   1  10   51.32    3.14
  -4   1   9   36.19    2.48
  -4   1   9   35.02    2.58
  -4   1   9   36.09    2.67
  -4   1   8   17.35    1.71
  -4   1   8   16.26    1.74
  -4   1   8   13.35    1.50
  -4   1   7   66.84    3.40
  -4   1   7   67.07    3.46
  -4   1   7   65.36    3.45
  -4   1   6   76.42    6.26
   4  -1  -6   84.52    6.78
  -4   1   5    0.68    0.84
   4  -1  -5    1.88    0.97
  -4   1   4  480.15   15.71
   4  -1  -4  448.77   15.96
  -4   1   4  470.48   17.48
   4  -1  -3   72.66    4.86
  -4   1   3   79.88    5.86
  -4   1   3   71.11    5.37
   4  -1  -2  107.54    5.34
  -4   1   2   98.10    5.82
  -4   1   2   93.89    6.27
  -4   1   2   92.87    5.66
  -4   1   2   91.57    6.11
  -4   1   1  471.35   14.81
  -4   1   1  464.99   15.65
  -4   1   1  447.02   15.78
  -4   1   1  457.88   15.31
  -4   1   0   15.76    2.13
  -4   1   0   13.16    2.12
   4  -1   1    6.93    1.38
  -4   1  -1    5.14    1.37
  -4   1  -2   52.62    4.58
   4  -1   2   58.36    4.42
  -4   1  -3   32.56    3.77
   4  -1   3   33.80    3.63
   4  -1   4    7.41    1.95
  -4   1  -4    4.13    1.67
   4  -1   5  148.28    9.24
  -4   1  -5  143.66    9.39
   4  -1   6    5.98    2.43
  -4   1  -6    2.64    1.52
  -4   1  -7    2.27    0.83
  -4   1  -8   21.22    1.97
   4  -1   8   21.69    2.15
   4  -1   9  196.94    7.34
  -4   1  -9  201.03    7.10
   4  -1  10  107.34    4.81
   4  -1  11    8.99    1.19
   4  -1  12   12.52    1.15
  -4   0  13    1.44    0.49
  -4   0  12   11.46    1.12
  -4   0  12   12.60    1.28
  -4   0  11    0.29    0.48
  -4   0  11    0.08    0.54
  -4   0  10    1.29    0.77
  -4   0  10    1.06    0.67
  -4   0  10    1.58    0.60
  -4   0   9    8.92    1.32
  -4   0   9    9.71    1.34
  -4   0   9    9.66    1.43
  -4   0   8  252.44    8.19
  -4   0   8  252.26    8.20
  -4   0   8  251.16    8.25
  -4   0   7  249.52   12.78
   4   0  -7  263.74   13.29
  -4   0   7  261.28    8.18
  -4   0   6   27.44    3.60
   4   0  -6   25.26    3.61
  -4   0   5   98.67    6.37
  -4   0   5   86.18    6.75
   4   0  -5   91.02    6.27
  -4   0   4  206.03    8.84
  -4   0   4  187.50    9.87
   4   0  -4  188.45    8.76
  -4   0   3  236.32   10.83
   4   0  -3  257.62    9.46
  -4   0   3  255.19   10.77
  -4   0   3  236.01   10.57
  -4   0   2    8.91    1.62
  -4   0   2    8.87    1.82
  -4   0   2    8.17    1.91
  -4   0   2    9.18    1.81
  -4   0   1   90.99    5.70
  -4   0   1  110.12    5.96
  -4   0   1   98.86    6.02
   4   0   0   23.33    2.32
  -4   0   0   22.55    2.63
  -4   0  -1   52.41    4.39
   4   0   1   54.59    4.02
   4   0   2   21.95    2.72
  -4   0  -2   20.69    2.84
   4   0   3    5.78    1.45
  -4   0  -3    6.29    1.87
   4   0   4    1.31    0.90
  -4   0  -4   -0.25    0.84
   4   0   5  294.37   13.95
  -4   0  -5  284.37   14.18
  -4   0  -6  108.68    4.68
   4   0   7    1.65    0.89
  -4   0  -7    2.00    0.80
  -4   0  -8   -0.35    0.64
   4   0   8    0.68    0.68
   4   0   9  146.77    5.99
   4   0  10    3.17    1.03
   4   0  11   48.01    2.58
  -4  -1  13   14.96    1.13
  -4  -1  13   16.61    1.25
  -4  -1  12   14.47    1.39
  -4  -1  12   15.09    1.44
  -4  -1  11  143.14    5.49
  -4  -1  11  143.82    5.51
  -4  -1  11  145.03    5.56
  -4  -1  10   82.11    4.00
  -4  -1  10   83.38    4.04
  -4  -1  10   80.55    4.01
  -4  -1   9   -0.59    0.66
  -4  -1   9    0.23    0.66
  -4  -1   8  197.70    6.88
  -4  -1   8  199.40    6.94
  -4  -1   7  207.86   11.32
  -4  -1   7  209.07   11.76
  -4  -1   6    2.02    1.28
  -4  -1   6    1.79    1.25
  -4  -1   5    0.34    0.69
  -4  -1   5   -0.18    0.68
  -4  -1   4   24.24    3.33
  -4  -1   3  158.62    8.48
  -4  -1   3  163.41    8.46
  -4  -1   2    1.14    0.97
  -4  -1   2    1.54    0.87
  -4  -1   2    1.78    0.87
   4   1  -1    2.47    0.84
  -4  -1   1    1.82    0.73
  -4  -1   1    2.85    1.18
   4   1   0   93.69    5.38
  -4  -1   0   94.36    5.58
  -4  -1   0   95.03    5.68
  -4  -1  -1  123.35    7.02
   4   1   1  124.03    6.80
  -4  -1  -1  123.14    6.47
  -4  -1  -2  228.48   10.73
   4   1   2  238.42   10.61
   4   1   3   18.51    2.74
  -4  -1  -3   16.72    2.81
   4   1   4    6.43    2.12
  -4  -1  -4    2.67    1.37
   4   1   5   65.78    6.31
  -4  -1  -5   70.45    3.56
  -4  -1  -5   59.33    6.24
   4   1   6    0.88    0.66
  -4  -1  -6    1.85    0.76
  -4  -1  -7  424.64   12.03
   4   1   7  409.35   12.24
   4   1   8    6.96    1.44
   4   1   9   27.67    2.25
   4   1  10    9.38    1.23
   4   1  11   10.38    1.02
  -4  -2  13    8.78    0.98
  -4  -2  12    6.11    1.02
  -4  -2  12    5.77    0.95
  -4  -2  12    6.25    1.03
  -4  -2  11  149.79    5.78
  -4  -2  11  152.67    5.80
  -4  -2  10   12.02    1.50
  -4  -2  10   10.25    1.41
  -4  -2   9   60.62    3.39
  -4  -2   9   58.47    3.35
  -4  -2   8   95.77    4.31
  -4  -2   7   28.80    3.99
  -4  -2   7   25.73    3.71
  -4  -2   6   10.94    2.44
  -4  -2   6    9.17    2.05
  -4  -2   5    5.43    1.70
  -4  -2   5    4.01    1.53
  -4  -2   4    6.34    1.45
  -4  -2   4    8.52    2.18
  -4  -2   3    2.64    1.16
   4   2  -2  207.00    8.23
  -4  -2   2  190.36    9.45
  -4  -2   1   85.56    5.32
   4   2  -1   89.98    5.39
  -4  -2   0   13.07    2.00
   4   2   0   12.19    2.11
  -4  -2   0   10.35    1.77
  -4  -2  -1   36.40    3.73
   4   2   1   36.36    3.78
   4   2   2  102.96    6.88
  -4  -2  -2  102.35    6.98
   4   2   3  103.40    7.44
  -4  -2  -3  107.63    7.66
   4   2   4  132.17    8.92
  -4  -2  -4  136.86    9.39
  -4  -2  -5    4.51    0.95
   4   2   5    3.48    1.00
  -4  -2  -6   39.84    2.74
   4   2   6   39.89    2.74
  -4  -2  -7  244.76    8.18
   4   2   7  251.97    8.45
   4   2   8   -0.93    0.88
   4   2   9   17.84    1.70
   4   2  10   39.00    2.19
  -4  -2 -10   36.77    1.99
  -4  -3  14    3.63    0.58
  -4  -3  13  280.52    7.99
  -4  -3  13  272.70    7.76
  -4  -3  12   35.18    2.44
  -4  -3  12   36.97    2.36
  -4  -3  11    6.86    1.10
  -4  -3  11    7.82    1.25
  -4  -3  10   37.97    2.68
  -4  -3  10   39.01    2.73
  -4  -3   9   35.92    2.57
  -4  -3   8   16.74    1.65
  -4  -3   7   10.25    2.51
  -4  -3   6  173.81   10.14
  -4  -3   6  180.21    9.70
  -4  -3   5   95.01    6.98
  -4  -3   5   99.63    6.69
  -4  -3   5  101.96    7.44
  -4  -3   4   89.26    6.72
  -4  -3   3  387.78   15.31
   4   3  -2  655.04   19.62
  -4  -3   2  629.63   21.08
   4   3  -1   84.17    5.76
   4   3   0  350.39   13.85
   4   3   1    9.93    2.17
   4   3   2    1.72    0.95
   4   3   3   25.22    3.78
  -4  -3  -3   29.31    4.05
  -4  -3  -4  438.49   12.36
  -4  -3  -5    7.92    1.28
   4   3   5    8.63    1.25
  -4  -3  -6    8.84    1.33
   4   3   6   10.59    1.42
  -4  -3  -7   22.28    1.95
   4   3   7   18.25    1.83
   4   3   8   32.64    2.33
   4   3   9   17.78    1.53
  -4  -3  -9   16.03    1.42
  -4  -4  14   30.72    1.68
  -4  -4  13   27.38    1.90
  -4  -4  13   30.51    1.90
  -4  -4  12    1.03    0.56
  -4  -4  12    0.36    0.67
  -4  -4  12    0.30    0.48
  -4  -4  11    7.84    1.29
  -4  -4  11    9.65    1.28
  -4  -4  10   31.64    2.45
  -4  -4   9   66.94    3.59
  -4  -4   8    1.72    0.59
  -4  -4   8    2.15    0.71
  -4  -4   8    1.51    0.63
  -4  -4   7   69.13    6.50
  -4  -4   6   53.02    5.51
  -4  -4   5  200.10   10.80
  -4  -4   5  191.41   10.69
  -4  -4   4  425.25   16.92
   4   4  -3 1223.25   32.90
  -4  -4   3 1184.19   34.54
   4   4  -2  765.60   23.39
  -4  -4   2  758.40   24.59
   4   4  -1   12.39    2.37
   4   4   0   62.41    5.49
   4   4   1   20.35    3.37
   4   4   2   21.37    3.58
  -4  -4  -3    8.67    1.17
  -4  -4  -4  122.31    5.20
  -4  -4  -5   11.57    1.47
  -4  -4  -6    6.52    1.13
   4   4   6    7.06    1.21
  -4  -4  -7  145.76    5.35
   4   4   7  152.40    5.50
  -4  -4  -7  133.07    5.41
  -4  -4  -8   20.07    1.62
   4   4   8   22.77    1.69
  -4  -4  -8   23.28    1.76
  -4  -5  14    0.19    0.42
  -4  -5  13   43.66    2.44
  -4  -5  13   41.65    2.25
  -4  -5  12    3.51    0.90
  -4  -5  12    2.86    0.71
  -4  -5  11   13.34    1.57
  -4  -5  10    0.78    0.62
  -4  -5   9  105.41    4.53
  -4  -5   9  103.28    4.59
  -4  -5   8    5.68    0.99
  -4  -5   8    6.27    1.04
  -4  -5   7   15.47    1.56
  -4  -5   7   13.44    1.49
  -4  -5   6   15.00    3.04
  -4  -5   5  664.23   23.40
  -4  -5   5  673.59   23.75
   4   5  -4  202.58   10.24
  -4  -5   4  206.97   11.30
   4   5  -3    0.38    0.65
  -4  -5   3   -1.21    1.21
   4   5  -2  144.96    8.70
  -4  -5   2  141.64    9.10
   4   5  -1    1.65    1.37
   4   5   0   54.10    5.54
  -4  -5  -1    1.27    0.51
  -4  -5  -1    0.97    0.57
  -4  -5  -2   49.86    3.06
  -4  -5  -3   71.79    3.81
  -4  -5  -3   67.52    3.72
  -4  -5  -4  101.44    4.71
  -4  -5  -4  101.70    4.76
  -4  -5  -5   40.86    2.79
  -4  -5  -5   39.28    2.81
  -4  -5  -6   42.02    2.66
  -4  -5  -6   45.48    2.86
  -4  -5  -7    8.38    1.13
  -4  -5  -7    6.58    1.03
  -4  -5  -8   17.44    1.24
  -4  -5  -8   20.69    1.39
  -4  -6  14    6.05    0.75
  -4  -6  13   19.67    1.56
  -4  -6  13   18.51    1.47
  -4  -6  12    0.49    0.56
  -4  -6  12    1.52    0.64
  -4  -6  11   32.30    2.32
  -4  -6  10    8.79    1.25
  -4  -6   9  127.53    5.08
  -4  -6   7    6.46    1.02
  -4  -6   7    5.95    1.05
  -4  -6   6  118.66    4.77
  -4  -6   6  112.85    4.81
  -4  -6   5   46.29    2.77
  -4  -6   5   45.39    5.30
   4   6  -4   68.00    6.09
  -4  -6   4   66.17    6.36
   4   6  -3    3.21    1.71
  -4  -6   3    0.74    1.03
  -4  -6   2    4.56    1.69
   4   6  -2    6.20    1.92
  -4  -6   1   21.95    1.84
  -4  -6   1   19.79    1.78
  -4  -6   1   18.48    1.71
  -4  -6   0  157.93    6.00
  -4  -6   0  167.67    6.17
  -4  -6   0  155.99    5.96
  -4  -6  -1   58.17    3.31
  -4  -6  -1   53.20    3.21
  -4  -6  -1   54.65    3.26
  -4  -6  -2   12.47    1.57
  -4  -6  -2   11.27    1.52
  -4  -6  -3    1.20    0.68
  -4  -6  -3    3.36    1.03
  -4  -6  -4   34.17    2.52
  -4  -6  -4   37.04    2.69
  -4  -6  -5   24.88    2.03
  -4  -6  -5   22.56    2.00
  -4  -6  -6   49.98    2.74
  -4  -6  -6   57.13    2.95
  -4  -6  -7   10.73    1.03
  -4  -6  -7   12.25    1.12
  -4  -7  14    1.42    0.38
  -4  -7  13   17.35    1.38
  -4  -7  13   18.71    1.42
  -4  -7  12    0.90    0.48
  -4  -7  11    8.47    1.13
  -4  -7  11   10.77    1.27
  -4  -7  10   34.35    2.39
  -4  -7  10   36.17    2.35
  -4  -7  10   34.48    2.37
  -4  -7   9    2.64    0.79
  -4  -7   8    1.27    0.53
  -4  -7   7   48.83    2.92
  -4  -7   7   45.82    2.95
  -4  -7   7   51.07    2.97
  -4  -7   6   52.69    3.00
  -4  -7   6   52.01    3.15
  -4  -7   5    1.81    0.63
  -4  -7   5    2.07    0.72
  -4  -7   4    4.41    0.93
  -4  -7   3  151.32    5.67
  -4  -7   3  156.52    5.92
  -4  -7   3  150.87    5.76
  -4  -7   3  155.72    5.77
  -4  -7   2   62.15    3.42
  -4  -7   2   72.41    3.71
  -4  -7   2   75.76    3.62
  -4  -7   2   67.29    3.57
  -4  -7   1   26.05    2.21
  -4  -7   1   31.43    2.46
  -4  -7   1   30.45    2.38
  -4  -7   0    0.21    0.52
  -4  -7   0   -0.07    0.51
  -4  -7   0    0.49    0.81
  -4  -7  -1   50.87    3.17
  -4  -7  -1   47.93    3.05
  -4  -7  -1   44.26    3.00
  -4  -7  -2  136.99    5.60
  -4  -7  -2  127.71    5.44
  -4  -7  -2  130.27    5.52
  -4  -7  -3  103.13    4.63
  -4  -7  -3   92.50    4.49
  -4  -7  -3  105.31    4.72
  -4  -7  -4    1.21    0.76
  -4  -7  -4    0.38    0.71
  -4  -7  -5   21.12    1.77
  -4  -7  -5   23.81    1.87
  -4  -7  -6    8.21    0.92
  -4  -7  -6    9.23    0.97
  -4  -8  13   23.21    1.43
  -4  -8  13   23.54    1.54
  -4  -8  12    2.91    0.65
  -4  -8  11   32.96    2.14
  -4  -8  11   32.50    2.14
  -4  -8  10   -0.02    0.51
  -4  -8   9    4.29    0.90
  -4  -8   8   37.42    2.46
  -4  -8   8   41.42    2.68
  -4  -8   7   14.85    1.56
  -4  -8   7   16.21    1.70
  -4  -8   6   46.12    2.84
  -4  -8   6   39.96    2.74
  -4  -8   5    0.43    0.45
  -4  -8   5    1.27    0.65
  -4  -8   4   22.26    1.94
  -4  -8   4   23.80    2.06
  -4  -8   3   -0.05    0.46
  -4  -8   3    0.31    0.55
  -4  -8   3    0.48    0.54
  -4  -8   2  149.73    5.87
  -4  -8   2  142.67    5.75
  -4  -8   1   92.68    4.48
  -4  -8   1   96.02    4.54
  -4  -8   0    0.16    0.59
  -4  -8   0    1.42    0.84
  -4  -8  -1   72.72    3.80
  -4  -8  -1   70.20    3.81
  -4  -8  -2    0.09    0.62
  -4  -8  -2   -0.28    0.63
  -4  -8  -3   58.03    3.13
  -4  -8  -3   62.21    3.31
  -4  -8  -4  105.85    4.13
  -4  -8  -4  111.01    4.29
  -4  -8  -5    4.39    0.70
  -4  -8  -5    5.15    0.75
  -4  -9  13   20.50    1.35
  -4  -9  12    5.24    0.80
  -4  -9  11    8.13    1.07
  -4  -9  11    8.31    1.05
  -4  -9  10    9.39    1.22
  -4  -9   9    4.63    0.96
  -4  -9   8    1.62    0.61
  -4  -9   7    7.34    1.09
  -4  -9   7    6.94    1.08
  -4  -9   6   95.92    4.22
  -4  -9   5  162.71    5.92
  -4  -9   5  153.27    5.74
  -4  -9   4    1.12    0.67
  -4  -9   3   44.38    2.83
  -4  -9   2   25.16    2.13
  -4  -9   2   22.81    2.03
  -4  -9   1    3.37    0.73
  -4  -9   1    5.78    1.15
  -4  -9   0   43.05    2.67
  -4  -9   0   37.89    2.64
  -4  -9  -1   84.93    3.88
  -4  -9  -1   88.47    4.10
  -4  -9  -2   79.99    3.56
  -4  -9  -2   83.70    3.78
  -4  -9  -3   10.29    1.15
  -4  -9  -3    8.84    1.02
  -4  -9  -4    1.92    0.47
  -4  -9  -4    2.21    0.52
  -4 -10  12    4.18    0.60
  -4 -10  12    3.45    0.56
  -4 -10  11    8.88    1.02
  -4 -10  11    8.33    0.99
  -4 -10  10   19.83    1.64
  -4 -10   9  176.86    6.10
  -4 -10   8   26.50    2.05
  -4 -10   7   21.10    1.90
  -4 -10   6   43.57    2.59
  -4 -10   5    0.52    0.43
  -4 -10   5    0.99    0.53
  -4 -10   4    5.22    0.93
  -4 -10   4    6.49    1.02
  -4 -10   3   47.30    2.81
  -4 -10   2   35.38    2.42
  -4 -10   2   36.62    2.49
  -4 -10   1    9.88    1.24
  -4 -10   1    9.98    1.31
  -4 -10   0   17.82    1.50
  -4 -10   0   20.13    1.75
  -4 -10  -1    2.45    0.63
  -4 -10  -1    2.26    0.70
  -4 -10  -2    5.78    0.80
  -4 -11  11   20.48    1.42
  -4 -11  11   20.01    1.34
  -4 -11  10    1.30    0.60
  -4 -11  10   -0.13    0.45
  -4 -11   9   33.78    2.08
  -4 -11   8   16.90    1.57
  -4 -11   7   27.39    2.04
  -4 -11   6   16.87    1.47
  -4 -11   5   59.44    2.96
  -4 -11   4    3.54    0.81
  -4 -11   3    4.57    0.79
  -4 -11   3    2.48    0.73
  -4 -11   2   14.90    1.27
  -4 -11   2   14.58    1.37
  -4 -11   1   20.25    1.51
  -4 -11   0   43.66    2.15
  -4 -12  10    4.27    0.67
  -4 -12   9   16.74    1.32
  -4 -12   9   15.76    1.19
  -4 -12   8   24.99    1.69
  -4 -12   8   26.75    1.68
  -4 -12   7    4.99    0.80
  -4 -12   7    6.11    0.82
  -4 -12   6   21.99    1.50
  -4 -12   6   20.98    1.44
  -4 -12   6   23.50    1.62
  -4 -12   5   41.42    2.14
  -4 -12   4   22.52    1.52
  -4 -12   3    0.28    0.34
  -4 -12   2    3.69    0.58
  -5  13  -1   61.98    2.51
  -5  13  -2   39.39    2.02
   5 -13   2   35.76    1.84
  -5  13  -3   36.09    2.02
   5 -13   3   40.15    2.05
   5 -13   4    3.58    0.68
  -5  13  -4    3.20    0.65
   5 -13   5    2.36    0.62
  -5  13  -5    3.79    0.73
   5 -13   6    4.66    0.75
  -5  13  -6    5.36    0.82
   5 -13   7   39.43    2.10
   5 -13   8   53.41    2.38
  -5  12   1   -0.02    0.37
  -5  12   0   37.45    2.15
   5 -12   0   35.20    1.93
   5 -12   1    1.79    0.64
  -5  12  -1    1.71    0.68
   5 -12   2    7.97    1.08
  -5  12  -2    8.94    1.21
   5 -12   3    5.18    0.93
  -5  12  -3    3.05    0.80
   5 -12   4    0.65    0.60
  -5  12  -4    0.37    0.63
   5 -12   5    0.84    0.65
  -5  12  -5    0.53    0.53
  -5  12  -6   65.83    3.19
   5 -12   6   65.11    3.13
  -5  12  -7  112.72    4.31
   5 -12   7  109.70    4.30
   5 -12   8   19.18    1.56
   5 -12   9    8.00    0.97
  -5  12  -9    8.27    0.98
   5 -12  10   22.65    1.46
  -5  11   3   12.26    1.05
  -5  11   2    5.54    0.84
   5 -11  -1    0.30    0.36
  -5  11   1   -0.07    0.57
  -5  11   0   37.30    2.47
   5 -11   0   34.88    2.25
   5 -11   1    3.87    0.82
  -5  11  -1    3.05    0.82
   5 -11   2    0.20    0.48
  -5  11  -2    0.37    0.62
  -5  11  -3   56.80    3.26
   5 -11   3   58.29    3.19
   5 -11   4    2.69    0.75
  -5  11  -4    1.10    0.83
  -5  11  -5   17.63    1.75
   5 -11   5   19.84    1.83
  -5  11  -6   50.89    3.01
   5 -11   6   54.20    3.05
   5 -11   7    1.71    0.65
  -5  11  -7    1.68    0.67
   5 -11   8   26.75    1.99
   5 -11   9   13.76    1.37
  -5  11 -10   50.44    2.37
   5 -11  10   51.00    2.53
   5 -11  11   39.09    1.97
  -5  10   4    0.87    0.44
  -5  10   3    7.89    1.01
  -5  10   2   92.49    3.91
  -5  10   1   16.60    1.56
   5 -10  -1   16.99    1.60
   5 -10   0    1.83    0.68
  -5  10   0    1.68    0.66
   5 -10   1    1.29    0.48
  -5  10  -1    1.22    0.58
  -5  10  -1    2.21    0.77
  -5  10  -2   15.18    1.59
  -5  10  -2   12.41    1.58
   5 -10   2   16.13    1.70
  -5  10  -3   96.22    4.28
  -5  10  -3   86.87    4.39
   5 -10   3   98.00    4.45
   5 -10   4    1.10    0.61
  -5  10  -4    3.86    1.06
  -5  10  -5  275.81    9.13
   5 -10   5  301.42    9.23
  -5  10  -6   26.89    2.24
   5 -10   6   27.78    2.22
  -5  10  -7   13.81    1.62
   5 -10   7   16.31    1.67
   5 -10   8   11.24    1.40
   5 -10   9    1.33    0.68
  -5  10  -9    2.36    0.75
   5 -10  10    8.92    1.17
  -5  10 -10    8.54    1.05
  -5  10 -11   59.50    2.47
   5 -10  11   54.67    2.59
   5 -10  11   63.13    2.77
  -5   9   5   21.55    1.61
  -5   9   4    1.26    0.57
  -5   9   3    1.32    0.67
  -5   9   2  204.46    7.05
  -5   9   1   16.04    1.68
  -5   9   0   26.69    2.19
   5  -9   0   26.62    2.15
   5  -9   1   14.47    1.58
  -5   9  -1   11.70    1.43
  -5   9  -2  116.52    4.98
   5  -9   2  123.09    5.12
  -5   9  -3   88.29    4.24
  -5   9  -3   84.68    4.28
   5  -9   3   96.38    4.45
  -5   9  -4   63.87    3.60
  -5   9  -4   63.24    3.48
   5  -9   4   64.86    3.55
   5  -9   5   11.23    1.40
  -5   9  -5   12.38    1.44
  -5   9  -5   12.17    1.62
  -5   9  -6   44.92    2.81
  -5   9  -6   38.47    2.82
   5  -9   6   40.81    2.74
   5  -9   7   12.87    1.55
  -5   9  -7   16.44    1.69
  -5   9  -7   13.07    1.61
   5  -9   8   79.53    3.94
   5  -9   9    0.81    0.57
  -5   9  -9   -0.48    0.60
   5  -9  10   -0.82    0.60
  -5   9 -10    0.02    0.47
  -5   9 -11   45.26    2.25
   5  -9  11   42.99    2.41
   5  -9  12   14.27    1.21
  -5   8   7    1.26    0.48
  -5   8   6    2.79    0.69
  -5   8   5    9.38    1.28
  -5   8   4    0.62    0.62
  -5   8   3   87.15    4.23
  -5   8   2   22.34    2.03
  -5   8   1   63.18    3.52
  -5   8   0   -0.09    0.50
  -5   8  -1    0.39    0.55
  -5   8  -2  153.91    6.11
  -5   8  -2  165.12    6.19
  -5   8  -3   83.24    4.11
  -5   8  -3   83.22    4.18
   5  -8   3   89.02    4.16
  -5   8  -4  182.60    6.65
  -5   8  -4  171.66    6.59
   5  -8   4  187.77    6.64
   5  -8   5   -0.52    0.47
  -5   8  -5   -0.05    0.48
  -5   8  -5    0.12    0.68
  -5   8  -6  252.90    8.26
  -5   8  -6  239.02    8.25
   5  -8   6  245.80    8.17
  -5   8  -7   96.32    4.43
  -5   8  -7   92.56    4.45
   5  -8   7   90.77    4.35
   5  -8   8   60.74    3.43
   5  -8   9    0.88    0.66
  -5   8  -9   -0.26    0.58
   5  -8  10    2.91    0.72
  -5   8 -10    3.20    0.76
  -5   8 -11   15.50    1.36
   5  -8  12   55.66    2.69
  -5   7   8   11.57    1.02
  -5   7   7    0.87    0.53
  -5   7   6    6.90    1.20
  -5   7   5   32.30    2.44
  -5   7   4    3.49    0.93
  -5   7   3   25.76    2.26
  -5   7   2   30.15    2.37
  -5   7   1  124.57    5.29
  -5   7   0    4.86    1.05
  -5   7  -1  276.91    8.82
  -5   7  -2   90.82    4.28
  -5   7  -2   89.54    4.20
  -5   7  -3   12.71    1.54
  -5   7  -3   10.84    1.36
  -5   7  -4  364.69   10.69
  -5   7  -4  349.20   10.61
   5  -7   5   -0.37    0.53
  -5   7  -5    0.30    0.49
  -5   7  -5   -0.81    0.71
  -5   7  -6  261.39    8.87
  -5   7  -6  281.51    8.97
   5  -7   6  287.47    8.88
   5  -7   7    5.00    1.04
  -5   7  -7    5.05    1.06
  -5   7  -8   52.10    3.17
   5  -7   8   53.99    3.22
   5  -7   9    7.23    1.21
  -5   7  -9    4.69    1.08
   5  -7  10    3.16    0.83
  -5   7 -10    3.60    0.84
   5  -7  11   21.66    1.76
  -5   7 -11   22.20    1.66
   5  -7  12    4.14    0.75
   5  -7  12    6.43    0.94
  -5   6   9   22.53    1.44
  -5   6   8    7.57    1.08
  -5   6   7   40.72    2.63
  -5   6   6   -0.28    0.63
  -5   6   6   -0.05    0.68
  -5   6   5   13.04    1.63
  -5   6   5   12.83    1.61
  -5   6   4    8.09    1.29
  -5   6   4   10.13    1.45
  -5   6   3  128.45    5.38
  -5   6   2   15.64    1.72
  -5   6   1  268.28    8.64
  -5   6   0  259.55   13.37
  -5   6   0  280.93    8.78
  -5   6  -1    2.68    1.56
  -5   6  -2   12.05    2.75
  -5   6  -3    4.94    1.89
  -5   6  -4  147.66    5.74
  -5   6  -4  145.32    5.66
  -5   6  -5   90.92    4.26
  -5   6  -5   81.11    4.00
  -5   6  -6  210.85    7.34
  -5   6  -6  195.95    7.20
   5  -6   6  210.93    7.15
   5  -6   7    0.22    0.56
  -5   6  -7    2.00    0.73
   5  -6   8    3.74    0.85
  -5   6  -8    3.25    0.87
   5  -6   9    1.28    0.58
  -5   6  -9    1.84    0.82
  -5   6 -10   -0.03    0.51
   5  -6  11    3.05    0.86
  -5   6 -11    2.97    0.65
   5  -6  12   28.73    1.78
   5  -6  12   24.76    1.80
  -5   5   9   46.76    2.49
  -5   5   8    0.85    0.42
  -5   5   8    1.92    0.80
  -5   5   8    0.91    0.71
  -5   5   7   20.28    1.93
  -5   5   7   19.41    1.68
  -5   5   6  101.65    4.75
  -5   5   6  110.93    4.60
  -5   5   5    9.36    1.30
  -5   5   5    7.38    1.28
  -5   5   4   88.81    4.29
  -5   5   4   86.24    4.23
  -5   5   3  302.17    9.50
  -5   5   3  309.46    9.49
   5  -5  -2   31.70    4.05
  -5   5   2   31.49    4.29
  -5   5   2   35.39    2.44
  -5   5   2   31.84    4.20
  -5   5   1  133.84    8.79
  -5   5   1  136.68    8.95
  -5   5   0   50.27    5.35
  -5   5   0   46.21    5.01
  -5   5  -1    0.06    0.92
  -5   5  -2    5.04    1.77
  -5   5  -3   22.40    3.60
  -5   5  -4   49.96    5.52
  -5   5  -5   86.40    4.21
  -5   5  -5   97.01    4.30
  -5   5  -6   22.44    2.09
  -5   5  -7   36.04    2.72
  -5   5  -7   34.23    2.49
   5  -5   7   40.61    2.68
  -5   5  -8   56.80    3.38
   5  -5   8   64.79    3.52
  -5   5  -9    1.79    0.77
  -5   5 -10   49.49    2.91
   5  -5  11   10.50    1.29
  -5   5 -11   10.47    1.19
   5  -5  12    7.49    0.97
   5  -5  12    6.06    0.86
  -5   4  10    0.36    0.43
  -5   4  10    0.04    0.38
  -5   4  10    1.32    0.46
  -5   4   9   55.08    3.01
  -5   4   9   60.92    3.09
  -5   4   9   57.28    2.89
  -5   4   8   -0.06    0.54
  -5   4   7   43.97    2.87
  -5   4   6   32.31    2.45
  -5   4   5   45.19    2.91
  -5   4   4   24.53    2.03
   5  -4  -3  307.63   14.08
  -5   4   3  318.89   15.18
  -5   4   3  323.18    9.67
  -5   4   2    0.47    1.16
  -5   4   2   -1.09    0.82
  -5   4   1    8.17    2.11
  -5   4   1   11.06    2.51
  -5   4   0    1.37    0.73
  -5   4   0    1.52    1.34
  -5   4  -1    4.17    1.48
  -5   4  -2    2.12    1.48
  -5   4  -3  187.24   10.77
  -5   4  -4   10.77    2.58
  -5   4  -5   18.48    3.45
  -5   4  -5   17.68    1.77
  -5   4  -6    3.59    0.87
  -5   4  -6    3.41    0.82
  -5   4  -7  193.34    6.96
  -5   4  -8   26.33    2.19
   5  -4   8   27.95    2.24
  -5   4  -9    7.20    1.23
   5  -4  10  129.75    5.33
  -5   4 -10  124.61    5.02
   5  -4  11    1.14    0.55
   5  -4  11    0.49    0.64
   5  -4  12   27.84    1.68
   5  -4  12   19.75    1.35
  -5   3  11   12.85    1.07
  -5   3  10   11.62    1.26
  -5   3  10   12.72    1.30
  -5   3  10   13.37    1.32
  -5   3   9   17.75    1.70
  -5   3   8    0.21    0.58
  -5   3   7    6.55    1.12
  -5   3   6   -0.38    0.44
  -5   3   5   46.06    2.78
  -5   3   5   41.20    2.66
  -5   3   4    9.31    2.38
   5  -3  -4    8.55    2.14
  -5   3   3  184.14   10.86
  -5   3   2  212.92   11.33
  -5   3   2  214.63   11.17
  -5   3   1  289.30   13.33
  -5   3   1  314.43   13.79
  -5   3   0   39.29    4.29
  -5   3   0   42.55    4.60
  -5   3  -1  118.45    8.06
  -5   3  -2  135.96    8.62
  -5   3  -3  263.02   12.79
  -5   3  -4    2.86    1.48
  -5   3  -5   63.66    6.39
  -5   3  -5   69.15    3.60
  -5   3  -5   69.27    3.52
  -5   3  -6    9.04    1.27
  -5   3  -6    9.89    1.35
  -5   3  -7  140.08    5.68
  -5   3  -8  199.78    7.21
  -5   3  -9  210.88    7.30
   5  -3  10    0.64    0.74
  -5   3 -10    1.14    0.62
   5  -3  11    6.84    1.10
   5  -3  11    5.05    0.85
   5  -3  12    0.58    0.50
  -5   2  11    2.51    0.65
  -5   2  11    3.28    0.58
  -5   2  11    3.63    0.69
  -5   2  10    4.45    0.83
  -5   2  10    5.23    0.93
  -5   2   9    4.91    1.01
  -5   2   8    7.74    1.13
  -5   2   8    8.09    1.13
  -5   2   7   53.92    3.09
  -5   2   7   55.70    3.20
  -5   2   7   47.47    3.04
  -5   2   6    5.70    0.98
  -5   2   6    5.31    0.91
  -5   2   5  127.63    4.83
  -5   2   5  113.70    4.74
  -5   2   4  133.56    9.16
  -5   2   3  450.52   18.15
  -5   2   3  472.08   18.08
  -5   2   2   11.30    2.51
  -5   2   2   11.29    2.39
  -5   2   2    9.93    2.29
  -5   2   1   68.72    5.65
  -5   2   1   75.42    6.04
  -5   2   0    0.73    0.95
  -5   2   0   -0.69    1.43
  -5   2  -1  324.24   13.88
  -5   2  -2  243.37   11.81
  -5   2  -3   89.21    7.07
  -5   2  -4   31.06    4.22
  -5   2  -5  187.02    6.71
  -5   2  -5  184.69    6.54
  -5   2  -6  166.94    6.29
  -5   2  -7  128.13    5.40
  -5   2  -8   81.79    4.10
   5  -2   9    4.05    1.03
  -5   2  -9    4.10    1.05
   5  -2  10    2.02    0.78
   5  -2  11   29.30    1.97
  -5   1  12   65.29    2.72
  -5   1  11   16.04    1.37
  -5   1  11   15.27    1.27
  -5   1  10   52.94    2.94
  -5   1   9   55.37    3.08
  -5   1   9   58.14    3.24
  -5   1   9   52.45    3.22
  -5   1   8    6.98    1.13
  -5   1   8    6.17    1.15
  -5   1   7   41.01    2.68
  -5   1   7   41.25    2.67
  -5   1   6    3.27    0.78
  -5   1   6    2.85    0.75
  -5   1   5  146.60    9.73
  -5   1   4  127.84    8.71
  -5   1   3    2.73    1.48
  -5   1   3    3.23    1.38
  -5   1   2  254.69   11.39
  -5   1   2  252.55   11.16
  -5   1   2  242.31   11.65
  -5   1   1   53.81    4.58
  -5   1   1   56.40    5.10
  -5   1   1   51.76    4.77
  -5   1   0  180.32    8.84
  -5   1   0  177.44    9.49
  -5   1   0  165.24    9.12
  -5   1  -1  183.23    9.70
  -5   1  -2    0.54    1.10
  -5   1  -3  209.05   11.52
   5  -1   3  251.05   11.82
  -5   1  -4    9.31    2.48
   5  -1   4   10.10    2.31
  -5   1  -5    7.72    1.13
  -5   1  -6   51.23    3.14
  -5   1  -7   55.92    3.37
   5  -1   8   11.24    1.53
  -5   1  -8    9.99    1.41
  -5   1  -9   26.40    1.98
   5  -1   9   24.71    2.13
   5  -1  10   12.10    1.36
   5  -1  11    7.26    0.94
  -5   0  12   60.13    2.77
  -5   0  11   49.28    2.67
  -5   0  10    7.01    1.13
  -5   0  10    6.97    1.29
  -5   0   9    4.80    0.95
  -5   0   9    6.62    1.19
  -5   0   8   56.76    3.19
  -5   0   8   52.82    3.26
  -5   0   7   95.35    4.31
  -5   0   7   93.11    4.38
  -5   0   6    6.18    0.98
  -5   0   6    4.63    0.87
  -5   0   5   26.67    3.98
  -5   0   4   86.07    6.89
  -5   0   3  118.24    8.06
  -5   0   3  125.24    7.93
  -5   0   2  142.57    7.76
  -5   0   2  140.42    8.18
  -5   0   2  133.65    8.12
  -5   0   1   24.28    3.23
  -5   0   1   27.33    3.42
  -5   0   1   25.88    3.20
  -5   0   0   -0.56    1.06
  -5   0   0   -0.11    0.72
  -5   0   0   -0.27    0.83
  -5   0  -1  143.81    8.45
  -5   0  -1  157.96    8.73
  -5   0  -2   49.91    5.06
   5   0   2   56.46    5.02
  -5   0  -3  314.82   14.74
   5   0   3  344.75   14.71
   5   0   4    4.58    1.69
  -5   0  -4    4.60    0.93
  -5   0  -4    1.76    1.07
  -5   0  -5   76.72    3.88
  -5   0  -6    6.24    1.12
   5   0   7    1.11    0.80
  -5   0  -7    0.24    0.76
  -5   0  -8    6.19    1.11
   5   0   8    3.87    1.07
   5   0   9   38.80    2.59
   5   0  10    5.88    0.95
  -5  -1  12    3.30    0.72
  -5  -1  11    0.77    0.59
  -5  -1  11    0.71    0.73
  -5  -1  10   27.82    2.17
  -5  -1  10   29.91    2.08
  -5  -1  10   25.69    2.19
  -5  -1   9    1.07    0.73
  -5  -1   9   -0.21    0.73
  -5  -1   8    1.47    0.82
  -5  -1   8    0.93    0.54
  -5  -1   7   17.38    1.66
  -5  -1   7   15.71    1.61
  -5  -1   6  127.13    9.02
  -5  -1   6  116.89    4.77
  -5  -1   5   29.82    4.17
  -5  -1   4  445.20   17.69
  -5  -1   3  202.75   10.71
  -5  -1   2   37.81    4.19
  -5  -1   2   41.96    4.38
  -5  -1   1   15.49    2.71
  -5  -1   1   16.45    2.68
  -5  -1   0   18.99    2.90
  -5  -1   0   18.61    2.74
   5   1   1  322.18   13.12
  -5  -1  -1  334.51   13.21
  -5  -1  -2    4.63    1.83
   5   1   2    1.49    1.27
   5   1   3   24.09    3.67
  -5  -1  -3   22.56    3.70
  -5  -1  -4   25.00    2.06
   5   1   5    2.11    0.77
  -5  -1  -5   -0.22    0.63
  -5  -1  -6   51.20    3.21
   5   1   6   59.36    3.44
  -5  -1  -7   -0.47    0.50
   5   1   7    0.23    0.67
  -5  -1  -8   22.78    1.86
   5   1   8   25.37    2.12
   5   1   9   63.32    3.14
  -5  -1 -10    0.02    0.36
   5   1  10   -0.02    0.43
  -5  -2  13   12.00    1.01
  -5  -2  12   34.91    2.18
  -5  -2  12   36.73    2.20
  -5  -2  11   17.91    1.68
  -5  -2  11   18.66    1.80
  -5  -2  11   17.58    1.68
  -5  -2  10   53.59    3.14
  -5  -2  10   52.50    3.16
  -5  -2   9   41.85    2.75
  -5  -2   9   37.27    2.69
  -5  -2   8   34.11    2.49
  -5  -2   8   39.86    2.50
  -5  -2   8   36.76    2.61
  -5  -2   7   27.78    2.14
  -5  -2   7   26.67    2.17
  -5  -2   7   27.59    2.03
  -5  -2   7   26.01    2.14
  -5  -2   6  189.57   11.08
  -5  -2   6  190.33    6.49
  -5  -2   6  188.20    6.55
  -5  -2   4  223.35   11.85
  -5  -2   3   24.00    3.42
  -5  -2   2   30.71    3.90
  -5  -2   1   -0.38    0.92
  -5  -2   1    0.78    0.92
   5   2   0   11.38    2.21
   5   2   1  100.99    7.10
   5   2   2    4.59    1.53
  -5  -2  -3    2.18    0.66
  -5  -2  -3    2.16    0.68
  -5  -2  -3    1.25    0.45
  -5  -2  -4   53.91    3.06
  -5  -2  -4   52.05    3.11
  -5  -2  -5    1.50    0.80
   5   2   5    1.31    0.67
  -5  -2  -6   25.09    2.14
   5   2   6   28.04    2.23
  -5  -2  -7    0.41    0.62
   5   2   7   -0.99    0.68
  -5  -2  -8   27.63    1.92
   5   2   8   27.36    2.02
   5   2   9   66.24    2.90
  -5  -2  -9   66.14    2.96
  -5  -3  13   20.35    1.43
  -5  -3  13   19.47    1.28
  -5  -3  12   88.43    3.80
  -5  -3  12   91.08    3.84
  -5  -3  12   92.83    3.76
  -5  -3  11   10.92    1.28
  -5  -3  11   11.75    1.47
  -5  -3  11    9.58    1.27
  -5  -3  10    1.46    0.69
  -5  -3  10    0.82    0.71
  -5  -3  10    0.82    0.60
  -5  -3   9   45.72    2.92
  -5  -3   9   44.83    2.94
  -5  -3   9   45.88    2.94
  -5  -3   8   94.93    4.18
  -5  -3   8   83.22    4.10
  -5  -3   8   86.77    4.17
  -5  -3   7  122.90    4.98
  -5  -3   7  119.88    4.93
  -5  -3   7  117.95    4.92
  -5  -3   7  118.21    4.74
  -5  -3   7  124.66    5.05
  -5  -3   6  175.57    6.08
  -5  -3   6  160.88    5.97
  -5  -3   6  163.27    5.90
  -5  -3   6  155.46    5.69
  -5  -3   6  165.42    5.96
  -5  -3   6  169.36    6.03
  -5  -3   5   59.76    6.02
  -5  -3   4  123.97    8.77
  -5  -3   3   44.35    5.05
  -5  -3   2    1.08    0.84
  -5  -3   1   47.22    5.23
   5   3   0    1.09    1.12
   5   3   1   55.05    5.47
  -5  -3  -2   13.05    1.41
  -5  -3  -2   14.89    1.54
  -5  -3  -3   14.01    1.61
  -5  -3  -3   12.85    1.51
  -5  -3  -4    1.46    0.70
  -5  -3  -4    3.18    0.84
  -5  -3  -5   16.38    1.71
  -5  -3  -5   14.77    1.71
  -5  -3  -6   -0.14    0.47
  -5  -3  -6   -0.63    0.64
  -5  -3  -7    1.07    0.53
  -5  -3  -7    1.61    0.69
   5   3   7   -0.37    0.47
   5   3   8   34.37    1.97
  -5  -3  -8   32.02    2.07
  -5  -4  13    3.76    0.68
  -5  -4  13    4.16    0.70
  -5  -4  12   89.61    3.82
  -5  -4  12   89.97    3.83
  -5  -4  11   16.47    1.65
  -5  -4  11   15.54    1.60
  -5  -4  11   18.61    1.61
  -5  -4  10    2.39    0.83
  -5  -4  10    2.01    0.86
  -5  -4  10    3.00    0.82
  -5  -4   9    7.48    1.24
  -5  -4   9    7.10    1.10
  -5  -4   8  195.62    6.88
  -5  -4   8  189.01    6.82
  -5  -4   8  185.18    6.69
  -5  -4   8  205.37    6.89
  -5  -4   7   27.18    2.19
  -5  -4   7   27.50    2.16
  -5  -4   7   28.60    2.15
  -5  -4   6    0.83    0.58
  -5  -4   6    1.74    0.73
  -5  -4   6    1.43    0.74
  -5  -4   6    0.47    0.45
  -5  -4   5    7.74    1.15
  -5  -4   5    8.12    1.15
  -5  -4   5    8.06    1.13
  -5  -4   4   85.38    7.38
  -5  -4   3   13.78    2.96
  -5  -4   2   33.34    4.52
   5   4  -1    8.51    2.18
  -5  -4   1    5.76    1.80
  -5  -4   0    1.86    0.63
   5   4   0    2.04    1.38
  -5  -4   0    2.97    0.73
  -5  -4   0    3.73    0.84
  -5  -4  -1    2.96    0.80
  -5  -4  -1    2.21    0.65
  -5  -4  -2   64.55    3.52
  -5  -4  -2   59.35    3.44
  -5  -4  -3   73.60    3.91
  -5  -4  -3   67.17    3.71
  -5  -4  -4   52.95    3.25
  -5  -4  -4   46.23    3.01
  -5  -4  -5   15.26    1.67
  -5  -4  -5   17.31    1.78
  -5  -4  -6   29.40    2.16
  -5  -4  -6   27.06    1.99
  -5  -4  -6   26.07    2.18
  -5  -4  -7   19.13    1.52
  -5  -4  -7   19.47    1.47
  -5  -4  -7   19.26    1.66
  -5  -4  -8    5.70    0.77
  -5  -5  13   12.16    1.12
  -5  -5  13   13.09    1.14
  -5  -5  12   19.31    1.61
  -5  -5  12   20.01    1.64
  -5  -5  11   63.22    3.22
  -5  -5  11   59.80    3.28
  -5  -5  10   31.98    2.32
  -5  -5   9   44.40    2.78
  -5  -5   9   44.18    2.78
  -5  -5   8    0.60    0.57
  -5  -5   8    1.24    0.66
  -5  -5   8    0.23    0.59
  -5  -5   7   83.87    4.12
  -5  -5   7   89.00    4.17
  -5  -5   7   80.68    4.14
  -5  -5   7   92.25    4.02
  -5  -5   6   -0.51    0.53
  -5  -5   6   -0.29    0.43
  -5  -5   5   41.22    2.72
  -5  -5   5   49.79    2.94
  -5  -5   5   49.40    2.99
  -5  -5   4   31.39    2.26
  -5  -5   4   33.32    2.35
  -5  -5   4   34.52    2.41
  -5  -5   4   35.35    2.01
  -5  -5   3    1.94    0.73
  -5  -5   3    2.51    0.75
  -5  -5   2    3.39    0.64
  -5  -5   2    3.09    0.79
  -5  -5   2    4.21    0.88
  -5  -5   1    0.85    0.61
  -5  -5   1    0.16    0.40
  -5  -5   1    0.33    0.52
  -5  -5   0   36.71    2.56
  -5  -5   0   35.14    2.50
  -5  -5   0   37.27    2.46
  -5  -5   0   34.74    2.46
  -5  -5  -1   71.29    3.83
  -5  -5  -1   72.91    3.84
  -5  -5  -1   74.52    3.86
  -5  -5  -2   10.37    1.45
  -5  -5  -2    8.33    1.24
  -5  -5  -2    9.97    1.40
  -5  -5  -3   62.40    3.59
  -5  -5  -3   56.50    3.38
  -5  -5  -3   60.07    3.49
  -5  -5  -4   -0.11    0.64
  -5  -5  -4   -0.23    0.67
  -5  -5  -4   -1.06    0.71
  -5  -5  -5    0.76    0.73
  -5  -5  -5    0.85    0.64
  -5  -5  -5    0.07    0.53
  -5  -5  -6    2.95    0.75
  -5  -5  -6    2.47    0.70
  -5  -5  -6    3.21    0.77
  -5  -5  -7   12.03    1.01
  -5  -5  -7   14.28    1.20
  -5  -6  13   15.54    1.21
  -5  -6  13   13.66    1.15
  -5  -6  12    8.54    1.08
  -5  -6  12    8.57    1.13
  -5  -6  11    0.38    0.60
  -5  -6  10    2.49    0.74
  -5  -6  10    1.82    0.55
  -5  -6   9   26.40    2.12
  -5  -6   9   25.27    1.95
  -5  -6   8    0.55    0.65
  -5  -6   8   -0.23    0.61
  -5  -6   7   11.60    1.41
  -5  -6   7   12.15    1.43
  -5  -6   7   13.10    1.63
  -5  -6   6   65.63    3.48
  -5  -6   6   59.96    3.45
  -5  -6   5   27.09    2.18
  -5  -6   5   27.75    2.18
  -5  -6   4    6.20    1.08
  -5  -6   4    6.43    1.11
  -5  -6   4    7.09    1.12
  -5  -6   3   55.82    3.16
  -5  -6   3   59.84    3.30
  -5  -6   2    7.86    1.11
  -5  -6   2    8.62    1.32
  -5  -6   2    7.62    1.13
  -5  -6   2    8.85    1.25
  -5  -6   1   31.55    2.43
  -5  -6   1   32.96    2.50
  -5  -6   1   36.83    2.49
  -5  -6   1   37.10    2.53
  -5  -6   0    4.77    1.03
  -5  -6   0    3.68    1.02
  -5  -6   0    4.12    1.02
  -5  -6  -1    9.96    1.39
  -5  -6  -1    8.57    1.37
  -5  -6  -1    8.81    1.39
  -5  -6  -2    0.61    0.76
  -5  -6  -2   -0.35    0.58
  -5  -6  -2   -0.06    0.72
  -5  -6  -3   16.29    1.78
  -5  -6  -3   18.63    1.85
  -5  -6  -3   15.60    1.76
  -5  -6  -4    0.90    0.64
  -5  -6  -4    0.55    0.65
  -5  -6  -4    0.56    0.70
  -5  -6  -5    8.97    1.19
  -5  -6  -5    8.26    1.11
  -5  -6  -6    7.57    0.91
  -5  -6  -6    6.40    0.80
  -5  -7  13   25.72    1.51
  -5  -7  12   10.68    1.02
  -5  -7  12    9.25    1.12
  -5  -7  11    2.06    0.54
  -5  -7  10   74.76    3.56
  -5  -7   9   46.51    2.89
  -5  -7   8    1.16    0.58
  -5  -7   7    0.08    0.61
  -5  -7   7   -0.24    0.66
  -5  -7   7    0.11    0.68
  -5  -7   6   89.64    4.20
  -5  -7   6   83.15    4.21
  -5  -7   5   15.13    1.67
  -5  -7   5   12.68    1.52
  -5  -7   4   23.20    2.02
  -5  -7   4   28.87    2.24
  -5  -7   4   25.06    2.17
  -5  -7   3   13.28    1.48
  -5  -7   3   14.84    1.65
  -5  -7   2    4.64    0.95
  -5  -7   2    4.11    0.91
  -5  -7   2    4.23    1.13
  -5  -7   2    3.92    0.90
  -5  -7   1    0.77    0.65
  -5  -7   1    0.48    0.56
  -5  -7   1    1.63    0.94
  -5  -7   0    4.71    0.99
  -5  -7   0    5.24    1.11
  -5  -7   0    4.20    1.03
  -5  -7  -1    0.82    0.63
  -5  -7  -1    0.69    0.78
  -5  -7  -1   -0.08    0.71
  -5  -7  -2   10.74    1.38
  -5  -7  -2   10.38    1.44
  -5  -7  -2    8.47    1.26
  -5  -7  -3   34.73    2.37
  -5  -7  -3   38.78    2.49
  -5  -7  -4   23.30    1.72
  -5  -7  -4   22.95    1.77
  -5  -7  -5   24.46    1.53
  -5  -7  -5   28.23    1.70
  -5  -8  12   17.77    1.44
  -5  -8  11    0.84    0.44
  -5  -8  10   41.75    2.53
  -5  -8   9   77.20    3.76
  -5  -8   8    3.44    0.90
  -5  -8   7   17.66    1.80
  -5  -8   7   20.31    1.84
  -5  -8   6   95.27    4.33
  -5  -8   6   94.91    4.50
  -5  -8   5    3.24    0.82
  -5  -8   5    3.39    0.89
  -5  -8   5    2.62    0.83
  -5  -8   4   13.70    1.51
  -5  -8   4   13.94    1.58
  -5  -8   4   15.57    1.71
  -5  -8   3   22.34    1.87
  -5  -8   3   22.93    1.99
  -5  -8   2    3.36    0.82
  -5  -8   2    2.13    0.74
  -5  -8   1   11.40    1.44
  -5  -8   1   14.29    1.61
  -5  -8   0   31.21    2.38
  -5  -8   0   31.65    2.35
  -5  -8  -1    1.27    0.66
  -5  -8  -1    0.85    0.63
  -5  -8  -2   15.04    1.50
  -5  -8  -2   17.18    1.60
  -5  -8  -3    1.69    0.62
  -5  -8  -3    1.10    0.56
  -5  -8  -4    0.19    0.34
  -5  -8  -4    0.63    0.37
  -5  -9  12    7.16    0.86
  -5  -9  11    3.10    0.64
  -5  -9  10    5.89    0.96
  -5  -9   9   37.07    2.45
  -5  -9   8    6.16    1.07
  -5  -9   7    1.07    0.75
  -5  -9   7    1.17    0.68
  -5  -9   6   33.12    2.39
  -5  -9   6   38.98    2.48
  -5  -9   5    3.13    0.80
  -5  -9   5    3.59    0.90
  -5  -9   4    7.75    1.08
  -5  -9   4    7.10    1.15
  -5  -9   3    4.73    0.96
  -5  -9   3    4.21    0.80
  -5  -9   2   -0.35    0.54
  -5  -9   1    4.11    0.97
  -5  -9   0    1.48    0.68
  -5  -9   0    0.81    0.64
  -5  -9  -1    3.05    0.76
  -5  -9  -1    2.78    0.76
  -5  -9  -2    0.58    0.49
  -5  -9  -2    0.74    0.48
  -5 -10  11    2.61    0.51
  -5 -10  10   -0.40    0.50
  -5 -10   9    4.58    0.85
  -5 -10   8    3.15    0.69
  -5 -10   7    7.23    1.11
  -5 -10   7    7.37    0.96
  -5 -10   6    0.14    0.46
  -5 -10   6   -0.21    0.48
  -5 -10   5    0.53    0.49
  -5 -10   5    0.56    0.46
  -5 -10   4   12.47    1.27
  -5 -10   4   13.51    1.29
  -5 -10   3   15.69    1.43
  -5 -10   3   17.77    1.47
  -5 -10   2   36.01    2.18
  -5 -10   2   39.26    2.20
  -5 -10   1   -0.95    0.55
  -5 -10   1   -0.18    0.37
  -5 -10   0    1.46    0.52
  -5 -11  10    5.95    0.72
  -5 -11   9    1.75    0.56
  -5 -11   8    6.20    0.88
  -5 -11   7    0.83    0.43
  -5 -11   6    0.30    0.42
  -5 -11   5   19.45    1.33
  -5 -11   4   49.43    2.22
  -5 -11   4   48.85    2.20
  -5 -11   3    2.56    0.52
  -5 -11   3    3.91    0.60
  -5 -11   2    8.11    0.79
  -5 -11   2    8.68    0.84
  -6  13  -4    1.36    0.45
  -6  13  -5   17.33    1.19
  -6  12   0   -0.49    0.37
  -6  12  -1   27.49    1.70
  -6  12  -2    1.12    0.53
  -6  12  -3   64.82    2.96
  -6  12  -4   15.10    1.39
   6 -12   5   -0.05    0.32
  -6  12  -5   -0.34    0.42
   6 -12   6    1.78    0.49
  -6  12  -6    1.84    0.61
   6 -12   7   18.76    1.30
  -6  12  -8    5.73    0.76
  -6  11   2   13.25    1.06
  -6  11   1   19.39    1.31
  -6  11   1   21.77    1.54
  -6  11   0   70.76    2.98
  -6  11   0   75.39    3.30
  -6  11  -1   11.27    1.15
  -6  11  -1   10.80    1.24
  -6  11  -2   12.54    1.24
  -6  11  -2   12.22    1.39
  -6  11  -3   90.23    4.02
  -6  11  -4   19.59    1.79
  -6  11  -5   18.69    1.65
   6 -11   5   21.86    1.67
  -6  11  -6   23.76    1.82
   6 -11   6   22.88    1.71
   6 -11   7   74.76    3.21
   6 -11   8   -0.35    0.48
  -6  11  -8    0.10    0.46
   6 -11   9    0.21    0.29
  -6  11  -9    0.43    0.39
  -6  10   3   11.99    1.08
  -6  10   3   14.04    1.19
  -6  10   2   14.08    1.30
  -6  10   2   14.77    1.36
  -6  10   1   27.76    1.95
  -6  10   1   28.14    2.03
  -6  10   0   76.94    3.62
  -6  10   0   77.70    3.72
  -6  10  -1   45.72    2.71
  -6  10  -1   47.41    2.88
  -6  10  -2    5.94    1.01
  -6  10  -2    6.82    1.14
  -6  10  -3   82.87    3.83
  -6  10  -3   79.43    3.96
  -6  10  -4   30.55    2.16
  -6  10  -4   28.16    2.29
   6 -10   5    0.50    0.64
  -6  10  -5    1.23    0.56
  -6  10  -5    0.96    0.72
  -6  10  -6   48.18    2.70
  -6  10  -6   45.91    2.84
   6 -10   6   48.04    2.71
  -6  10  -7  163.83    5.58
   6 -10   7  164.82    5.68
   6 -10   8    8.21    1.07
  -6  10  -8    7.69    1.10
  -6  10  -9   39.77    2.23
   6 -10   9   37.29    2.08
  -6  10 -10   19.21    1.33
   6 -10  10   17.95    1.24
  -6   9   5   11.00    0.97
  -6   9   4   11.88    1.19
  -6   9   4   13.28    1.16
  -6   9   3    6.31    1.00
  -6   9   3    6.42    0.97
  -6   9   2    7.89    1.14
  -6   9   2    8.89    1.20
  -6   9   1   41.63    2.69
  -6   9   1   44.68    2.79
  -6   9   0   81.79    3.98
  -6   9   0   80.55    4.03
  -6   9  -1    1.81    0.77
  -6   9  -1    1.11    0.63
  -6   9  -2   14.34    1.59
  -6   9  -2   11.19    1.46
  -6   9  -3   63.51    3.45
  -6   9  -3   56.26    3.38
  -6   9  -4    9.75    1.38
  -6   9  -4    9.27    1.45
  -6   9  -5   31.52    2.30
  -6   9  -5   26.37    2.24
  -6   9  -6   23.46    2.02
  -6   9  -6   21.67    2.03
   6  -9   7    1.14    0.57
  -6   9  -7    0.98    0.73
   6  -9   8   -0.56    0.60
  -6   9  -8   -0.15    0.58
  -6   9  -9   15.89    1.51
   6  -9   9   16.15    1.40
  -6   9 -10   -0.24    0.47
   6  -9  11   10.54    1.03
  -6   8   6   36.02    1.94
  -6   8   6   28.67    1.58
  -6   8   5    5.67    0.86
  -6   8   4   32.46    2.28
  -6   8   3    0.48    0.63
  -6   8   2   28.35    2.31
  -6   8   1   42.96    2.89
  -6   8   1   44.31    2.83
  -6   8   0   25.88    2.22
  -6   8   0   23.43    2.12
  -6   8  -1   18.68    1.91
  -6   8  -1   20.91    2.01
  -6   8  -2   63.83    3.60
  -6   8  -2   62.94    3.57
  -6   8  -3  132.82    5.44
  -6   8  -3  120.63    5.28
  -6   8  -4  106.79    4.79
  -6   8  -4  100.25    4.71
  -6   8  -5   10.08    1.34
  -6   8  -5   10.65    1.46
  -6   8  -6    0.06    0.57
  -6   8  -6   -0.21    0.65
  -6   8  -7    2.18    0.74
  -6   8  -8  128.25    5.20
   6  -8   8  130.68    4.96
  -6   8  -9  103.61    4.36
   6  -8   9  111.87    4.29
  -6   8 -10   17.71    1.49
   6  -8  11    2.21    0.52
  -6   8 -11    4.01    0.59
  -6   7   7  105.92    3.84
  -6   7   6   14.37    1.43
  -6   7   5   48.01    2.85
  -6   7   4   77.58    3.93
  -6   7   3   73.09    3.80
  -6   7   2   40.60    2.85
  -6   7   1  134.11    5.64
  -6   7   1  138.75    5.58
  -6   7   0   86.46    4.35
  -6   7   0   88.83    4.32
  -6   7  -1    6.48    1.11
  -6   7  -1    7.34    1.23
  -6   7  -2  167.40    6.31
  -6   7  -2  149.66    6.03
  -6   7  -3   31.37    2.39
  -6   7  -3   30.87    2.43
  -6   7  -4   88.19    4.28
  -6   7  -4   81.05    4.09
  -6   7  -5   -0.25    0.57
  -6   7  -5    1.22    0.66
  -6   7  -6   99.71    4.67
  -6   7  -7  118.10    5.04
  -6   7  -7  111.80    4.94
  -6   7  -8    3.63    0.90
   6  -7   9    9.56    1.13
  -6   7  -9    7.67    1.14
  -6   7 -10    0.91    0.64
   6  -7  11    2.36    0.64
  -6   7 -11    2.27    0.54
  -6   6   8   24.24    1.60
  -6   6   7  126.38    4.74
  -6   6   6   39.67    2.60
  -6   6   5  113.50    4.92
  -6   6   4   40.27    2.81
  -6   6   3   19.17    1.93
  -6   6   2   50.70    3.21
  -6   6   1  159.17    6.32
  -6   6   1  170.97    6.27
  -6   6   0  323.07    9.89
  -6   6   0  306.59    9.63
  -6   6  -1   39.30    2.76
  -6   6  -1   38.59    2.67
  -6   6  -2    7.28    1.17
  -6   6  -2    7.01    1.14
  -6   6  -3    4.09    0.87
  -6   6  -3    3.35    0.88
  -6   6  -4   31.48    2.42
  -6   6  -4   31.27    2.45
  -6   6  -5  107.79    4.88
  -6   6  -5  101.73    4.71
  -6   6  -6    1.73    0.81
  -6   6  -7   10.07    1.42
  -6   6  -7   10.18    1.49
  -6   6  -8    5.95    1.09
  -6   6  -9   24.81    2.02
  -6   6 -10    0.24    0.48
  -6   6 -11   42.81    2.09
   6  -6  11   42.32    2.23
  -6   5   9   30.39    1.67
  -6   5   9   30.41    1.61
  -6   5   8   14.14    1.36
  -6   5   8   14.01    1.18
  -6   5   7   36.25    2.45
  -6   5   7   38.58    2.27
  -6   5   6    1.37    0.80
  -6   5   6    1.21    0.58
  -6   5   5   35.36    2.74
  -6   5   5   44.48    2.70
  -6   5   4   73.18    3.92
  -6   5   4   83.07    3.84
  -6   5   3   24.92    2.17
  -6   5   2  112.57    5.04
  -6   5   1   37.38    2.66
  -6   5   1   40.46    2.50
  -6   5   0    1.42    0.68
  -6   5  -1    5.71    0.98
  -6   5  -1    5.69    1.07
  -6   5  -2    0.68    0.56
  -6   5  -2    1.26    0.62
  -6   5  -3   17.44    1.74
  -6   5  -3   15.96    1.62
  -6   5  -4    4.38    0.97
  -6   5  -4    3.95    0.93
  -6   5  -5  282.34    9.22
  -6   5  -6    8.62    1.31
  -6   5  -6    9.51    1.41
  -6   5  -7    8.38    1.31
  -6   5  -8  161.67    6.16
  -6   5  -9   13.22    1.57
   6  -5  10    8.17    1.27
  -6   5 -10    8.10    1.06
   6  -5  11   25.78    1.67
   6  -5  11   18.76    1.46
  -6   4   9    5.78    0.86
  -6   4   9    5.92    0.84
  -6   4   8    2.96    0.76
  -6   4   8    3.27    0.77
  -6   4   7  132.05    5.35
  -6   4   7  138.91    5.35
  -6   4   6   13.63    1.64
  -6   4   6   16.38    1.65
  -6   4   5   10.47    1.45
  -6   4   5   13.83    1.54
  -6   4   4   -0.05    0.49
  -6   4   4    0.52    0.49
  -6   4   3    5.69    1.20
  -6   4   3    4.75    0.97
  -6   4   2  148.53    5.92
  -6   4   2  163.20    5.85
  -6   4   1    9.76    1.34
  -6   4   1   12.10    1.36
  -6   4   1   10.57    1.22
  -6   4   0    0.23    0.51
  -6   4  -1    4.46    0.92
  -6   4  -2  116.95    5.02
  -6   4  -2  124.20    4.91
  -6   4  -3  137.20    5.69
  -6   4  -3  148.84    5.59
  -6   4  -4  181.82    6.69
  -6   4  -4  169.35    6.42
  -6   4  -5   23.36    2.15
  -6   4  -5   25.62    2.14
  -6   4  -6    1.13    0.72
  -6   4  -6    1.70    0.75
  -6   4  -7   -0.20    0.76
  -6   4  -8   34.70    2.52
  -6   4  -9   20.25    1.85
   6  -4  10    5.77    0.98
  -6   4 -10    6.12    0.91
   6  -4  11    7.94    0.96
  -6   3  10    7.78    0.82
  -6   3  10   10.01    0.98
  -6   3  10    7.67    0.90
  -6   3   9   42.62    2.43
  -6   3   9   39.89    2.38
  -6   3   8   20.39    1.77
  -6   3   8   19.47    1.77
  -6   3   7   12.80    1.55
  -6   3   7   11.49    1.39
  -6   3   6    2.82    0.76
  -6   3   6    3.38    0.92
  -6   3   5   39.14    2.69
  -6   3   5   37.48    2.67
  -6   3   4  269.66    8.67
  -6   3   4  264.30    8.61
  -6   3   3    5.23    1.06
  -6   3   3    5.98    1.00
  -6   3   2  143.85    5.64
  -6   3   2  144.57    5.46
  -6   3   2  149.27    5.57
  -6   3   1    9.02    2.39
  -6   3   1    5.01    0.98
  -6   3   0  125.77    8.86
  -6   3   0  129.78    9.21
  -6   3  -1  322.38   15.30
  -6   3  -1  318.91   15.27
  -6   3  -2   49.09    2.98
  -6   3  -3  225.55    7.84
  -6   3  -3  245.98    7.77
  -6   3  -4    0.59    0.70
  -6   3  -4    1.16    0.56
  -6   3  -5    4.30    1.03
  -6   3  -5    2.26    0.78
  -6   3  -6  114.16    5.04
  -6   3  -7   94.41    4.50
  -6   3  -8   28.58    2.31
   6  -3   9    8.02    1.32
  -6   3  -9   10.18    1.29
   6  -3  10   25.54    1.86
   6  -3  11    5.68    0.76
  -6   2  11   25.19    1.47
  -6   2  10    8.14    1.01
  -6   2  10    9.74    1.15
  -6   2   9  168.77    5.69
  -6   2   9  152.83    5.78
  -6   2   8   44.20    2.70
  -6   2   8   36.99    2.63
  -6   2   7    0.03    0.57
  -6   2   7    0.77    0.48
  -6   2   6   20.11    1.89
  -6   2   6   19.76    1.89
  -6   2   6   18.58    1.86
  -6   2   5   19.15    1.80
  -6   2   5   17.66    1.72
  -6   2   5   16.23    1.70
  -6   2   4  469.45   12.99
  -6   2   4  471.85   12.68
  -6   2   4  460.16   13.02
  -6   2   3  180.73    6.40
  -6   2   3  174.28    6.30
  -6   2   3  182.80    6.47
  -6   2   2  124.63    8.94
  -6   2   2  127.81    5.03
  -6   2   2  136.79    5.23
  -6   2   1   27.84    3.91
  -6   2   1   22.24    3.64
  -6   2   0   20.46    3.45
  -6   2   0   18.32    3.25
  -6   2  -1   28.68    4.15
  -6   2  -1   31.87    4.32
  -6   2  -2    1.10    0.61
  -6   2  -2   -0.75    1.28
  -6   2  -3  130.03    5.30
  -6   2  -3  125.38    5.08
  -6   2  -4   37.13    2.64
  -6   2  -4   36.99    2.58
  -6   2  -5   51.42    3.16
  -6   2  -5   52.52    3.15
  -6   2  -6  156.24    6.12
  -6   2  -7   35.95    2.69
   6  -2   8    6.36    1.23
  -6   2  -8    7.30    1.25
   6  -2   9   27.50    2.14
   6  -2  10   17.88    1.49
  -6   1  11   76.56    2.84
  -6   1  11   83.57    3.26
  -6   1  10   53.01    2.61
  -6   1  10   52.50    2.83
  -6   1   9    4.83    1.06
  -6   1   9    7.21    1.09
  -6   1   8   79.98    3.98
  -6   1   8   74.92    3.92
  -6   1   7  276.73    8.98
  -6   1   7  291.49    9.26
  -6   1   6    6.32    1.17
  -6   1   6    6.86    1.14
  -6   1   5   16.34    1.66
  -6   1   5   16.74    1.71
  -6   1   4  266.14    8.24
  -6   1   4  255.24    8.29
  -6   1   4  262.93    8.12
  -6   1   4  266.84    8.50
  -6   1   3   25.23    1.98
  -6   1   3   26.72    2.02
  -6   1   2   86.24    7.15
  -6   1   1  228.59   11.68
  -6   1   1  229.06   12.27
  -6   1   0   10.90    2.34
  -6   1   0   10.35    2.53
  -6   1  -1   35.96    4.50
  -6   1  -1   42.18    4.94
  -6   1  -2  104.20    7.92
  -6   1  -2  108.21    4.60
  -6   1  -2   98.93    7.82
  -6   1  -3    2.22    0.72
  -6   1  -3    2.94    0.74
  -6   1  -4   51.80    3.18
  -6   1  -4   51.35    3.12
  -6   1  -5    2.74    0.77
  -6   1  -6   38.96    2.78
   6  -1   7    3.27    1.02
  -6   1  -7    2.36    0.87
   6  -1   8    2.99    0.82
  -6   1  -9    5.91    0.89
   6  -1   9    4.46    0.87
   6  -1  10   13.60    1.14
  -6   0  11    0.51    0.50
  -6   0  10  325.27    9.05
  -6   0  10  315.15    9.48
  -6   0   9   48.04    2.69
  -6   0   9   45.14    2.85
  -6   0   9   45.14    2.91
  -6   0   8   15.71    1.75
  -6   0   8   17.44    1.70
  -6   0   8   16.50    1.74
  -6   0   7    9.54    1.30
  -6   0   7   10.21    1.31
  -6   0   7    9.89    1.43
  -6   0   6  261.15    8.11
  -6   0   6  248.91    8.14
  -6   0   6  245.58    8.20
  -6   0   6  246.94    8.30
  -6   0   5  139.33    5.36
  -6   0   5  131.50    5.30
  -6   0   5  133.99    5.26
  -6   0   5  133.07    5.42
  -6   0   4   10.02    1.30
  -6   0   4    8.66    1.16
  -6   0   4   10.62    1.33
  -6   0   3  281.99    8.51
  -6   0   3  268.10    8.40
  -6   0   3  273.23    8.59
  -6   0   2    3.98    1.48
  -6   0   1   49.45    5.24
  -6   0   0  192.97   10.86
  -6   0  -1   90.36    7.06
  -6   0  -1   66.94    2.90
  -6   0  -2   70.26    2.74
  -6   0  -2   30.40    2.32
  -6   0  -3    7.60    1.21
  -6   0  -4   59.47    3.39
  -6   0  -5   23.58    2.10
  -6   0  -6   35.52    2.59
   6   0   6   44.40    2.90
   6   0   7   16.44    1.71
  -6   0  -8   11.84    1.35
   6   0   8   11.28    1.33
  -6   0  -9    0.76    0.40
   6   0   9    1.53    0.57
  -6  -1  12   11.33    1.04
  -6  -1  11   36.30    2.22
  -6  -1  10   23.71    1.70
  -6  -1  10   20.69    1.87
  -6  -1  10   20.37    1.82
  -6  -1   9  104.11    4.54
  -6  -1   9  102.44    4.30
  -6  -1   9   99.36    4.53
  -6  -1   9  104.07    4.60
  -6  -1   8   25.09    2.07
  -6  -1   8   23.55    1.96
  -6  -1   8   22.58    2.01
  -6  -1   8   26.84    2.26
  -6  -1   7    2.06    0.72
  -6  -1   7    0.73    0.61
  -6  -1   7    0.90    0.50
  -6  -1   7    2.11    0.79
  -6  -1   7    1.44    0.52
  -6  -1   6    2.03    0.72
  -6  -1   6    2.08    0.74
  -6  -1   6    2.95    0.95
  -6  -1   5   11.29    1.40
  -6  -1   5    9.43    1.25
  -6  -1   5   11.25    1.31
  -6  -1   5   12.31    1.46
  -6  -1   4   49.30    2.88
  -6  -1   4   45.38    2.81
  -6  -1   4   49.08    2.90
  -6  -1   4   50.17    2.86
  -6  -1   4   48.46    2.94
  -6  -1   3  163.13    5.87
  -6  -1   3  152.82    5.65
  -6  -1   3  161.71    5.88
  -6  -1   3  170.61   10.48
  -6  -1   3  150.67    5.60
  -6  -1   3  161.66    5.97
  -6  -1   2   41.10    2.54
  -6  -1   2   43.49    2.65
  -6  -1   2   40.98    4.93
  -6  -1   2   38.79    2.39
  -6  -1   1    8.46    1.14
  -6  -1   1    9.15    2.41
  -6  -1   1   10.67    2.47
  -6  -1   1    6.86    0.84
  -6  -1   0   66.62    3.28
  -6  -1   0   67.53    6.32
  -6  -1  -1    5.56    1.12
  -6  -1  -1   37.72    2.22
  -6  -1  -2   83.37    3.90
  -6  -1  -3   99.53    4.48
  -6  -1  -4   37.50    2.63
  -6  -1  -4   37.54    2.55
  -6  -1  -5   14.81    1.70
  -6  -1  -6    6.60    1.20
   6   1   6    8.45    1.18
  -6  -1  -7   11.82    1.36
   6   1   7   11.19    1.33
  -6  -1  -8    0.62    0.43
   6   1   8    0.60    0.53
  -6  -1  -9   13.39    1.15
  -6  -2  12   34.78    1.87
  -6  -2  11    7.69    1.09
  -6  -2  11   10.20    1.19
  -6  -2  10   31.52    2.28
  -6  -2  10   31.21    2.29
  -6  -2  10   33.16    2.32
  -6  -2   9   24.80    2.17
  -6  -2   9   29.83    2.04
  -6  -2   9   27.66    2.25
  -6  -2   9   30.37    2.30
  -6  -2   8   40.00    2.61
  -6  -2   8   38.38    2.65
  -6  -2   8   39.94    2.51
  -6  -2   8   32.12    2.53
  -6  -2   8   39.53    2.73
  -6  -2   7   37.71    2.55
  -6  -2   7   36.02    2.48
  -6  -2   7   35.21    2.40
  -6  -2   7   33.18    2.48
  -6  -2   7   34.55    2.51
  -6  -2   6   35.25    2.52
  -6  -2   6   39.15    2.56
  -6  -2   6   35.42    2.44
  -6  -2   6   34.37    2.48
  -6  -2   5   15.41    1.66
  -6  -2   5   14.82    1.57
  -6  -2   5   14.86    1.60
  -6  -2   5   17.73    1.65
  -6  -2   5   14.47    1.68
  -6  -2   4   26.76    2.10
  -6  -2   4   23.36    1.93
  -6  -2   4   23.91    2.03
  -6  -2   4   22.17    1.82
  -6  -2   4   21.10    1.98
  -6  -2   3   89.83    4.00
  -6  -2   3   79.15    3.78
  -6  -2   3   84.84    3.94
  -6  -2   3   73.62    3.52
  -6  -2   2    1.48    0.50
  -6  -2   2    1.59    0.51
  -6  -2   2    2.52    0.67
  -6  -2   2    0.83    0.32
  -6  -2   1   18.08    1.60
  -6  -2   1   19.12    1.79
  -6  -2   1   13.37    1.22
  -6  -2   0   17.55    1.62
  -6  -2   0   20.57    1.89
  -6  -2  -1    3.92    0.82
  -6  -2  -1    2.53    0.67
  -6  -2  -2   19.42    1.80
  -6  -2  -2   21.99    1.88
  -6  -2  -2   21.93    1.98
  -6  -2  -3  109.02    4.70
  -6  -2  -4    8.71    1.34
  -6  -2  -5  135.13    5.56
  -6  -2  -6    1.87    0.75
  -6  -2  -7   14.63    1.37
  -6  -2  -8   38.46    1.96
  -6  -2  -8   39.14    2.18
  -6  -3  12   10.26    1.06
  -6  -3  12   10.76    1.00
  -6  -3  11    3.58    0.82
  -6  -3  11    4.49    0.85
  -6  -3  10   24.15    2.00
  -6  -3  10   19.32    1.84
  -6  -3  10   22.72    1.82
  -6  -3   9   -0.42    0.65
  -6  -3   9   -0.01    0.71
  -6  -3   9    0.45    0.47
  -6  -3   8    7.76    1.19
  -6  -3   8    5.59    1.02
  -6  -3   8    6.37    0.92
  -6  -3   8    6.83    1.12
  -6  -3   8    6.36    1.16
  -6  -3   7   96.82    4.40
  -6  -3   7   97.05    4.41
  -6  -3   7   86.78    3.99
  -6  -3   7   88.85    4.33
  -6  -3   6   31.11    2.29
  -6  -3   6   27.15    2.21
  -6  -3   6   24.86    1.97
  -6  -3   6   27.26    2.21
  -6  -3   5   65.52    3.45
  -6  -3   5   58.55    3.32
  -6  -3   5   62.23    3.40
  -6  -3   5   54.38    2.89
  -6  -3   5   59.52    3.38
  -6  -3   4    4.27    0.96
  -6  -3   4    2.98    0.82
  -6  -3   4    2.86    0.75
  -6  -3   4    2.95    0.72
  -6  -3   3    0.86    0.49
  -6  -3   3   -0.03    0.40
  -6  -3   3    0.32    0.62
  -6  -3   3    0.17    0.40
  -6  -3   2   11.24    1.30
  -6  -3   2   10.69    1.36
  -6  -3   2   11.97    1.42
  -6  -3   2   12.17    1.42
  -6  -3   1   40.99    2.62
  -6  -3   1   41.30    2.78
  -6  -3   0   30.63    2.32
  -6  -3   0   33.88    2.46
  -6  -3   0   33.42    2.42
  -6  -3  -1   93.26    4.43
  -6  -3  -1   95.74    4.34
  -6  -3  -1  100.86    4.49
  -6  -3  -2   -0.84    0.66
  -6  -3  -2    0.08    0.55
  -6  -3  -2    0.20    0.52
  -6  -3  -3   36.74    2.68
  -6  -3  -3   37.41    2.53
  -6  -3  -4    0.12    0.52
  -6  -3  -4    0.41    0.66
  -6  -3  -5  187.99    6.72
  -6  -3  -6    4.29    0.94
  -6  -3  -6    3.94    0.87
  -6  -3  -7    0.54    0.45
  -6  -3  -7    1.29    0.49
  -6  -4  12   42.12    2.21
  -6  -4  11    1.59    0.78
  -6  -4  10   40.76    2.56
  -6  -4  10   37.27    2.56
  -6  -4   9   25.16    1.98
  -6  -4   9   23.99    1.99
  -6  -4   9   24.26    2.07
  -6  -4   9   30.53    2.15
  -6  -4   8    8.72    1.21
  -6  -4   8    9.48    1.30
  -6  -4   8    9.09    1.26
  -6  -4   7   78.26    3.94
  -6  -4   7   74.67    3.86
  -6  -4   7   68.28    3.26
  -6  -4   6   19.42    1.86
  -6  -4   6   19.17    1.85
  -6  -4   6   18.74    1.88
  -6  -4   6   15.97    1.47
  -6  -4   5   74.53    3.75
  -6  -4   5   77.02    3.79
  -6  -4   5   75.24    3.80
  -6  -4   4   34.24    2.44
  -6  -4   4   30.41    2.35
  -6  -4   4   34.22    2.44
  -6  -4   3  153.01    5.63
  -6  -4   3  148.11    5.72
  -6  -4   3  163.45    5.91
  -6  -4   2   15.15    1.76
  -6  -4   2   13.30    1.78
  -6  -4   1    1.70    0.65
  -6  -4   1    1.57    0.65
  -6  -4   1    0.51    0.65
  -6  -4   0   72.13    3.77
  -6  -4   0   66.72    3.70
  -6  -4   0   78.00    3.86
  -6  -4  -1   15.52    1.73
  -6  -4  -1   15.84    1.74
  -6  -4  -1   19.32    1.79
  -6  -4  -1   18.50    1.77
  -6  -4  -2   14.81    1.64
  -6  -4  -2   12.12    1.55
  -6  -4  -2   11.27    1.54
  -6  -4  -3    8.20    1.26
  -6  -4  -3   10.79    1.37
  -6  -4  -3    8.08    1.32
  -6  -4  -4    8.33    1.20
  -6  -4  -4    9.00    1.22
  -6  -4  -4    7.41    1.21
  -6  -4  -5   60.42    3.16
  -6  -4  -5   56.76    2.81
  -6  -4  -5   59.79    3.17
  -6  -4  -6   10.70    1.19
  -6  -4  -6    9.61    1.10
  -6  -4  -7   37.92    1.91
  -6  -5  12   35.59    1.99
  -6  -5  11    0.11    0.50
  -6  -5  10    8.08    1.04
  -6  -5  10    8.34    1.21
  -6  -5   9   55.64    3.08
  -6  -5   8   27.73    2.23
  -6  -5   8   25.96    2.17
  -6  -5   7  201.04    7.10
  -6  -5   7  192.78    7.03
  -6  -5   6   -0.61    0.74
  -6  -5   6   -0.29    0.66
  -6  -5   6   -0.72    0.66
  -6  -5   5  138.76    5.51
  -6  -5   5  137.81    5.53
  -6  -5   5  138.13    5.59
  -6  -5   5  123.72    4.31
  -6  -5   4   42.18    3.00
  -6  -5   4   42.03    3.01
  -6  -5   4   46.48    3.13
  -6  -5   3   97.61    4.38
  -6  -5   3   93.17    4.45
  -6  -5   3  104.30    4.63
  -6  -5   2   25.87    2.03
  -6  -5   2   24.26    2.14
  -6  -5   1   11.53    1.39
  -6  -5   1   10.50    1.44
  -6  -5   0    1.56    0.71
  -6  -5   0    0.67    0.57
  -6  -5   0    2.34    0.75
  -6  -5  -1    2.71    0.82
  -6  -5  -1    3.48    0.91
  -6  -5  -1    3.65    0.91
  -6  -5  -2   36.48    2.58
  -6  -5  -2   36.55    2.66
  -6  -5  -2   36.53    2.55
  -6  -5  -3   29.26    2.30
  -6  -5  -3   31.25    2.21
  -6  -5  -3   31.08    2.31
  -6  -5  -4    0.12    0.53
  -6  -5  -4    0.76    0.71
  -6  -5  -4    0.69    0.48
  -6  -5  -5    1.47    0.68
  -6  -5  -5    2.66    0.73
  -6  -5  -5    1.98    0.59
  -6  -5  -6    2.73    0.60
  -6  -6  12   15.28    1.25
  -6  -6  11    1.02    0.56
  -6  -6  10   15.86    1.43
  -6  -6   9   35.25    2.38
  -6  -6   8   22.10    2.00
  -6  -6   8   21.44    1.97
  -6  -6   7   15.75    1.63
  -6  -6   7   15.42    1.70
  -6  -6   7   15.30    1.75
  -6  -6   6   68.14    3.68
  -6  -6   6   76.08    3.86
  -6  -6   6   72.01    3.84
  -6  -6   5   87.65    4.29
  -6  -6   5   98.89    4.52
  -6  -6   5   94.71    4.49
  -6  -6   4  345.06   10.43
  -6  -6   4  359.06   10.72
  -6  -6   4  363.90   10.77
  -6  -6   3    2.28    0.75
  -6  -6   3    2.27    0.82
  -6  -6   3    1.00    0.69
  -6  -6   2    1.77    0.65
  -6  -6   2    1.08    0.50
  -6  -6   2    2.40    0.77
  -6  -6   1   21.52    1.92
  -6  -6   1   21.67    1.93
  -6  -6   0    6.83    1.10
  -6  -6   0    6.76    1.18
  -6  -6   0    5.50    1.06
  -6  -6  -1    9.45    1.31
  -6  -6  -1    9.46    1.33
  -6  -6  -1    9.06    1.31
  -6  -6  -2    2.15    0.75
  -6  -6  -2    2.25    0.76
  -6  -6  -2    0.77    0.63
  -6  -6  -3   12.14    1.34
  -6  -6  -3   11.41    1.36
  -6  -6  -3   12.69    1.37
  -6  -6  -4    3.13    0.70
  -6  -6  -4    2.06    0.57
  -6  -6  -5   27.32    1.58
  -6  -7  12   11.10    0.98
  -6  -7  11   26.03    1.56
  -6  -7  11   23.84    1.71
  -6  -7  10    1.19    0.51
  -6  -7   9   13.13    1.45
  -6  -7   8   31.76    2.30
  -6  -7   7   81.11    3.94
  -6  -7   7   84.92    3.97
  -6  -7   7   79.37    4.01
  -6  -7   6   58.76    3.33
  -6  -7   6   64.12    3.47
  -6  -7   6   65.08    3.62
  -6  -7   5   30.35    2.30
  -6  -7   5   32.13    2.40
  -6  -7   5   32.03    2.49
  -6  -7   4   44.18    2.73
  -6  -7   4   44.06    2.90
  -6  -7   4   46.94    2.92
  -6  -7   3    0.31    0.53
  -6  -7   3   -1.25    0.89
  -6  -7   3    0.63    0.59
  -6  -7   2    1.94    0.72
  -6  -7   1   11.23    1.35
  -6  -7   0    2.91    0.69
  -6  -7   0    3.20    0.91
  -6  -7  -1   33.86    2.33
  -6  -7  -1   39.79    2.44
  -6  -7  -2    1.54    0.64
  -6  -7  -2    1.25    0.67
  -6  -7  -3   -1.02    0.51
  -6  -8  11    9.08    0.85
  -6  -8  11    9.95    1.02
  -6  -8  10    3.38    0.76
  -6  -8   9    8.18    1.13
  -6  -8   8   48.29    2.80
  -6  -8   7    0.76    0.57
  -6  -8   7    0.83    0.50
  -6  -8   6   17.93    1.73
  -6  -8   6   17.61    1.68
  -6  -8   6   18.46    1.81
  -6  -8   5    1.01    0.55
  -6  -8   5    2.38    0.80
  -6  -8   5    3.31    0.87
  -6  -8   4    0.35    0.56
  -6  -8   4    2.00    0.80
  -6  -8   4    1.67    0.69
  -6  -8   3    0.26    0.59
  -6  -8   3   -0.14    0.45
  -6  -8   2    7.37    1.13
  -6  -8   1    1.46    0.57
  -6  -8   0    0.60    0.52
  -6  -8  -1    0.33    0.43
  -6  -8  -2    3.31    0.66
  -6  -9  11    2.83    0.51
  -6  -9  10   16.29    1.27
  -6  -9   9    1.41    0.53
  -6  -9   8   17.27    1.46
  -6  -9   7   35.99    2.23
  -6  -9   6   11.36    1.27
  -6  -9   6   11.47    1.25
  -6  -9   5   19.70    1.59
  -6  -9   5   18.32    1.57
  -6  -9   4   12.66    1.32
  -6  -9   3    0.33    0.48
  -6  -9   2    0.61    0.54
  -6  -9   1   10.72    1.14
  -6  -9   0   14.92    1.19
  -6 -10   9   -0.04    0.33
  -6 -10   8    7.79    0.90
  -6 -10   7    5.42    0.83
  -6 -10   6    6.55    0.81
  -6 -10   6    7.10    0.81
  -6 -10   5    6.61    0.76
  -6 -10   5    3.94    0.68
  -6 -10   4   13.77    1.18
  -6 -10   3    0.61    0.37
  -6 -10   2    1.76    0.46
  -7  12  -4    1.29    0.39
  -7  11  -1   24.76    1.50
  -7  11  -1   32.12    1.75
  -7  11  -2   23.80    1.49
  -7  11  -2   27.35    1.70
  -7  11  -3   23.25    1.50
  -7  11  -3   25.24    1.69
  -7  11  -4    2.82    0.60
  -7  11  -4    2.44    0.67
  -7  11  -5    5.45    0.87
  -7  11  -6    0.82    0.48
  -7  11  -7   51.38    2.33
  -7  10   2    1.74    0.48
  -7  10   1   53.44    2.48
  -7  10   1   51.75    2.40
  -7  10   0   11.99    1.23
  -7  10   0   10.80    1.18
  -7  10  -1   16.63    1.43
  -7  10  -1   17.52    1.49
  -7  10  -2   52.62    2.77
  -7  10  -2   57.31    2.89
  -7  10  -3   13.88    1.37
  -7  10  -3   12.82    1.37
  -7  10  -4   14.42    1.39
  -7  10  -4   17.33    1.57
  -7  10  -5   51.54    2.65
  -7  10  -5   51.81    2.78
  -7  10  -6   21.73    1.60
  -7  10  -6   22.79    1.71
  -7  10  -7   -0.11    0.45
  -7  10  -8   13.36    1.15
  -7   9   3    9.53    1.06
  -7   9   2    0.66    0.53
  -7   9   2    0.41    0.39
  -7   9   1   98.43    4.17
  -7   9   1  108.56    4.14
  -7   9   0   22.31    1.87
  -7   9   0   24.84    1.86
  -7   9  -1    1.20    0.58
  -7   9  -1    0.23    0.54
  -7   9  -2    3.84    0.92
  -7   9  -2    2.57    0.68
  -7   9  -3   51.51    2.95
  -7   9  -3   53.02    2.99
  -7   9  -4    0.20    0.51
  -7   9  -4   -0.48    0.63
  -7   9  -5   35.35    2.35
  -7   9  -5   32.56    2.29
  -7   9  -6    6.58    1.09
  -7   9  -6    7.25    1.09
  -7   9  -7   40.30    2.38
  -7   9  -8    5.12    0.86
  -7   9  -9   42.86    2.11
  -7   8   5    0.67    0.38
  -7   8   4   30.34    1.93
  -7   8   3   18.87    1.68
  -7   8   2    0.19    0.61
  -7   8   1   54.47    3.13
  -7   8   1   59.57    3.05
  -7   8   0    4.02    0.90
  -7   8   0    5.43    0.95
  -7   8  -1   13.23    1.58
  -7   8  -1   17.36    1.72
  -7   8  -2   21.57    1.95
  -7   8  -2   21.33    1.93
  -7   8  -3  380.54   11.20
  -7   8  -3  384.07   11.08
  -7   8  -4    1.09    0.72
  -7   8  -4    0.54    0.69
  -7   8  -5    1.21    0.65
  -7   8  -5   -0.16    0.63
  -7   8  -6  115.89    4.71
  -7   8  -6  111.85    4.63
  -7   8  -7   88.03    3.87
  -7   8  -8    0.95    0.60
  -7   8  -9   67.73    2.94
  -7   7   6   22.07    1.48
  -7   7   6   18.33    1.21
  -7   7   5    0.25    0.57
  -7   7   5    0.63    0.40
  -7   7   4   21.07    1.81
  -7   7   4   18.85    1.47
  -7   7   3   83.65    3.97
  -7   7   3   81.17    3.49
  -7   7   2    5.50    1.13
  -7   7   1   72.23    3.83
  -7   7   0   62.27    3.55
  -7   7   0   62.38    3.39
  -7   7  -1  114.50    5.10
  -7   7  -1  121.84    5.02
  -7   7  -2  127.24    5.45
  -7   7  -2  137.53    5.43
  -7   7  -3   34.76    2.57
  -7   7  -3   30.96    2.35
  -7   7  -4   51.56    3.19
  -7   7  -4   50.04    3.04
  -7   7  -5   40.10    2.77
  -7   7  -5   38.66    2.66
  -7   7  -6    1.52    0.79
  -7   7  -6    2.33    0.87
  -7   7  -7   73.12    3.58
  -7   7  -8    1.15    0.67
  -7   7  -9   25.86    1.75
   7  -7  10   -0.22    0.39
  -7   7 -10   -0.19    0.30
  -7   6   7   46.27    2.17
  -7   6   7   43.21    2.05
  -7   6   6   63.01    3.02
  -7   6   6   65.14    2.81
  -7   6   5   65.10    3.26
  -7   6   5   63.70    3.08
  -7   6   4    1.93    0.86
  -7   6   4    0.97    0.63
  -7   6   3    2.02    0.88
  -7   6   3    1.24    0.55
  -7   6   2    5.50    1.08
  -7   6   2    7.42    1.05
  -7   6   1  111.00    4.95
  -7   6   0   18.16    1.89
  -7   6  -1   24.91    2.19
  -7   6  -1   28.29    2.21
  -7   6  -2  291.75    9.50
  -7   6  -2  307.67    9.41
  -7   6  -3    4.47    1.05
  -7   6  -3    6.08    1.05
  -7   6  -4   78.84    4.11
  -7   6  -4   80.75    3.96
  -7   6  -5  118.90    5.14
  -7   6  -5  109.96    4.84
  -7   6  -6    2.29    0.85
  -7   6  -6    2.53    0.85
  -7   6  -7   27.32    2.14
  -7   6  -8   -0.32    0.63
  -7   6  -9    1.16    0.56
   7  -6  10    9.00    0.95
  -7   6 -10    9.50    0.92
  -7   5   8   96.07    3.30
  -7   5   7   30.78    1.94
  -7   5   7   28.90    1.79
  -7   5   6    0.74    0.58
  -7   5   6    0.08    0.54
  -7   5   6   -0.03    0.39
  -7   5   5    2.59    0.78
  -7   5   5    2.39    0.75
  -7   5   5    2.82    0.67
  -7   5   4    0.62    0.73
  -7   5   4    1.24    0.70
  -7   5   4    0.85    0.57
  -7   5   3    0.09    0.65
  -7   5   3    0.16    0.57
  -7   5   2   79.95    4.22
  -7   5   2   93.91    4.10
  -7   5   1   68.49    3.82
  -7   5   1   77.59    3.62
  -7   5   0   60.23    3.51
  -7   5  -1   35.40    2.56
  -7   5  -2  121.90    5.40
  -7   5  -2  138.02    5.37
  -7   5  -3   13.41    1.62
  -7   5  -3   13.20    1.57
  -7   5  -3   11.79    1.44
  -7   5  -4    1.97    0.76
  -7   5  -4    0.20    0.58
  -7   5  -5   60.45    3.50
  -7   5  -5   57.55    3.33
  -7   5  -6   19.86    1.97
  -7   5  -6   18.06    1.79
  -7   5  -7  152.05    5.76
  -7   5  -8   11.68    1.40
  -7   5  -9   15.99    1.41
   7  -5   9   14.25    1.40
   7  -5  10   -0.02    0.40
  -7   4   8  167.92    5.22
  -7   4   8  160.98    5.22
  -7   4   8  165.52    5.15
  -7   4   7    1.11    0.60
  -7   4   7    1.02    0.53
  -7   4   7    0.44    0.45
  -7   4   6   62.47    3.28
  -7   4   6   63.70    3.21
  -7   4   6   61.96    3.20
  -7   4   5   95.99    4.42
  -7   4   5   92.66    4.22
  -7   4   5  103.44    4.42
  -7   4   4    3.61    0.87
  -7   4   4    3.99    0.81
  -7   4   4    4.22    0.97
  -7   4   3    0.70    0.73
  -7   4   3    0.44    0.59
  -7   4   3    1.58    0.77
  -7   4   2  270.88    9.01
  -7   4   2  291.13    8.88
  -7   4   1   27.13    2.30
  -7   4   1   31.77    2.22
  -7   4   0   -0.10    0.69
  -7   4   0   -0.03    0.46
  -7   4  -1   12.19    1.50
  -7   4  -2   22.29    2.07
  -7   4  -3   -0.05    0.52
  -7   4  -3    0.44    0.54
  -7   4  -4   12.54    1.56
  -7   4  -4   14.65    1.64
  -7   4  -5   82.27    4.15
  -7   4  -5   80.28    4.01
  -7   4  -6    0.72    0.68
  -7   4  -7   22.43    1.97
  -7   4  -8   70.59    3.40
  -7   4  -9   21.46    1.62
   7  -4   9   21.38    1.68
   7  -4  10    1.04    0.50
  -7   3   9   23.04    1.43
  -7   3   9   18.40    1.35
  -7   3   8  104.87    3.96
  -7   3   8  102.39    4.04
  -7   3   8  104.23    4.09
  -7   3   7    8.27    1.15
  -7   3   7    9.50    1.21
  -7   3   7    7.75    1.15
  -7   3   6   37.56    2.49
  -7   3   6   37.42    2.52
  -7   3   6   37.53    2.55
  -7   3   5   25.08    2.08
  -7   3   5   26.69    2.03
  -7   3   5   22.60    2.11
  -7   3   4   43.57    2.90
  -7   3   4   41.61    2.80
  -7   3   4   45.10    2.93
  -7   3   3   12.14    1.48
  -7   3   3   12.98    1.47
  -7   3   3   11.91    1.56
  -7   3   2  153.82    5.97
  -7   3   2  151.31    5.78
  -7   3   1   32.19    2.25
  -7   3   1   28.43    2.29
  -7   3   1   27.35    2.13
  -7   3   0   18.46    1.87
  -7   3   0   20.52    1.72
  -7   3  -1    0.13    0.49
  -7   3  -2   37.80    2.69
  -7   3  -3   99.39    4.68
  -7   3  -3  110.44    4.67
  -7   3  -4  243.02    8.23
  -7   3  -4  249.36    8.13
  -7   3  -5  227.45    7.80
  -7   3  -5  223.57    7.65
  -7   3  -6   -0.44    0.69
  -7   3  -7   20.40    1.88
  -7   3  -8   29.33    2.05
   7  -3   8   30.06    2.11
  -7   3  -9    9.60    0.98
   7  -3   9    9.75    1.09
  -7   2  10   30.63    1.65
  -7   2   9    5.30    0.84
  -7   2   9    5.47    0.91
  -7   2   8  112.21    4.34
  -7   2   8  104.48    4.38
  -7   2   7   39.17    2.44
  -7   2   7   38.82    2.63
  -7   2   6    6.46    1.08
  -7   2   6    8.14    1.31
  -7   2   5    0.83    0.64
  -7   2   5    4.57    1.05
  -7   2   4   57.97    3.38
  -7   2   4   68.71    3.64
  -7   2   3   15.49    1.63
  -7   2   3   14.61    1.60
  -7   2   3   15.84    1.77
  -7   2   2   49.20    2.93
  -7   2   2   49.10    2.98
  -7   2   2   47.45    2.82
  -7   2   1   86.38    4.08
  -7   2   1   88.90    4.17
  -7   2   1   79.52    3.79
  -7   2   0   84.60    4.08
  -7   2   0   74.39    3.50
  -7   2  -1   49.03    3.00
  -7   2  -1   35.14    2.06
  -7   2  -2   61.52    2.61
  -7   2  -2   49.23    3.14
  -7   2  -3   32.16    2.47
  -7   2  -3   36.63    2.46
  -7   2  -4   37.14    2.55
  -7   2  -4   32.28    2.51
  -7   2  -5   13.18    1.56
  -7   2  -6   -0.08    0.59
   7  -2   7    2.70    0.82
  -7   2  -7    2.49    0.82
   7  -2   8   66.97    3.14
  -7   2  -9   15.10    1.15
   7  -2   9   14.11    1.18
  -7   1  10   40.05    1.91
  -7   1  10   38.48    2.11
  -7   1   9    1.51    0.55
  -7   1   9    1.14    0.62
  -7   1   8   31.56    2.14
  -7   1   8   30.83    2.29
  -7   1   7   27.58    2.13
  -7   1   7   29.51    2.22
  -7   1   7   26.24    2.21
  -7   1   6    1.58    0.72
  -7   1   6    2.05    0.67
  -7   1   6    1.02    0.68
  -7   1   5    0.19    0.70
  -7   1   5    1.25    0.62
  -7   1   5    0.49    0.57
  -7   1   4  111.78    4.76
  -7   1   4  116.09    5.08
  -7   1   3   25.78    2.03
  -7   1   3   19.37    1.82
  -7   1   2  167.28    6.09
  -7   1   2  145.93    5.61
  -7   1   1   22.53    1.99
  -7   1   1   19.46    1.67
  -7   1   0  344.83    9.73
  -7   1   0  278.90    8.61
  -7   1  -1  203.11    6.10
  -7   1  -2   23.90    2.03
  -7   1  -3   20.15    1.79
  -7   1  -3   17.36    1.79
  -7   1  -4   59.08    3.28
  -7   1  -5   -0.40    0.53
  -7   1  -6  198.68    6.85
  -7   1  -6  194.63    6.62
   7  -1   6  208.47    6.87
   7  -1   7  194.44    6.36
  -7   1  -8   50.44    2.55
   7  -1   8   51.84    2.51
  -7   0  10   12.53    1.06
  -7   0  10   15.04    1.32
  -7   0   9   61.97    2.94
  -7   0   9   66.24    3.24
  -7   0   8   -0.22    0.58
  -7   0   8    1.94    0.74
  -7   0   8    0.90    0.76
  -7   0   7   13.78    1.48
  -7   0   7   13.14    1.46
  -7   0   7   12.97    1.56
  -7   0   6   22.84    1.97
  -7   0   6   24.83    1.99
  -7   0   6   21.01    2.04
  -7   0   5    6.00    0.95
  -7   0   5    7.47    1.27
  -7   0   4  378.95   10.75
  -7   0   4  389.08   10.82
  -7   0   4  327.83   10.34
  -7   0   4  349.36   10.82
  -7   0   3  218.07    7.30
  -7   0   3  215.37    7.36
  -7   0   3  201.83    7.02
  -7   0   2   32.62    2.37
  -7   0   2   34.13    2.52
  -7   0   2   27.98    2.05
  -7   0   1    7.57    1.18
  -7   0   1    7.26    0.98
  -7   0   0  144.72    5.44
  -7   0   0  106.65    4.16
  -7   0  -1   19.86    2.21
  -7   0  -1   89.02    3.31
  -7   0  -2    4.72    1.01
  -7   0  -3    7.81    1.22
  -7   0  -3    8.04    1.15
  -7   0  -4  141.86    5.52
  -7   0  -4  140.34    5.58
  -7   0  -5  231.73    7.74
  -7   0  -5  243.81    7.67
  -7   0  -6    3.71    0.88
  -7   0  -7   26.32    1.88
   7   0   7   22.52    1.62
  -7   0  -8    0.09    0.38
  -7  -1  11   19.32    1.32
  -7  -1  10  143.31    4.61
  -7  -1  10  170.18    5.38
  -7  -1   9   63.28    2.92
  -7  -1   9   60.89    3.13
  -7  -1   9   64.32    3.25
  -7  -1   8   69.90    3.36
  -7  -1   8   71.69    3.54
  -7  -1   8   68.98    3.62
  -7  -1   7  187.10    6.58
  -7  -1   7  198.47    6.74
  -7  -1   7  195.61    6.97
  -7  -1   6    3.20    0.87
  -7  -1   6    1.83    0.70
  -7  -1   6    3.31    0.78
  -7  -1   6    2.91    0.77
  -7  -1   5  190.63    6.72
  -7  -1   5  201.69    6.84
  -7  -1   5  172.00    6.34
  -7  -1   5  176.52    6.75
  -7  -1   4   42.63    2.74
  -7  -1   4   39.23    2.69
  -7  -1   4   36.43    2.39
  -7  -1   3   25.62    2.07
  -7  -1   3   25.55    2.09
  -7  -1   3   23.59    2.14
  -7  -1   3   22.23    1.78
  -7  -1   2   60.22    3.22
  -7  -1   2   56.83    3.11
  -7  -1   2   58.58    3.34
  -7  -1   1    5.58    0.99
  -7  -1   1    3.37    0.84
  -7  -1   1    6.66    1.08
  -7  -1   0    7.63    1.47
  -7  -1   0   64.23    2.84
  -7  -1  -1    7.98    1.31
  -7  -1  -2   25.58    2.16
  -7  -1  -3   25.45    2.13
  -7  -1  -4   -0.60    0.68
  -7  -1  -5   20.17    1.88
  -7  -1  -6    4.74    0.89
  -7  -1  -7    0.23    0.48
  -7  -2  10    5.94    0.92
  -7  -2  10    5.58    0.93
  -7  -2   9    2.67    0.60
  -7  -2   9    1.97    0.71
  -7  -2   9    1.86    0.78
  -7  -2   8   13.53    1.31
  -7  -2   8   13.00    1.45
  -7  -2   8   15.51    1.65
  -7  -2   7   24.74    2.05
  -7  -2   7   23.15    1.83
  -7  -2   7   25.00    2.01
  -7  -2   7   21.73    1.97
  -7  -2   6    2.35    0.80
  -7  -2   6    3.37    0.86
  -7  -2   6    1.86    0.62
  -7  -2   6    3.61    0.85
  -7  -2   5   24.07    2.09
  -7  -2   5   24.66    2.05
  -7  -2   5   21.03    1.75
  -7  -2   4   43.17    2.82
  -7  -2   4   44.62    2.85
  -7  -2   4   47.29    2.96
  -7  -2   4   36.86    2.34
  -7  -2   3   31.26    2.27
  -7  -2   3   31.18    2.28
  -7  -2   3   35.11    2.55
  -7  -2   2    7.16    1.13
  -7  -2   2    8.11    1.16
  -7  -2   2    7.85    1.29
  -7  -2   1   22.95    2.03
  -7  -2   1   23.20    2.10
  -7  -2   1   22.66    2.14
  -7  -2   0    2.33    0.73
  -7  -2   0    2.34    0.68
  -7  -2   0    2.07    0.76
  -7  -2   0    0.70    0.63
  -7  -2  -1   23.35    2.00
  -7  -2  -1   22.94    2.02
  -7  -2  -2   10.27    1.42
  -7  -2  -2    9.16    1.33
  -7  -2  -3   62.95    3.51
  -7  -2  -3   67.65    3.46
  -7  -2  -4   33.85    2.48
  -7  -2  -5    7.76    1.19
  -7  -2  -6   29.67    1.96
  -7  -2  -6   30.79    1.99
  -7  -2  -7   28.41    1.61
  -7  -2  -7   30.56    1.72
  -7  -3  11    6.41    0.89
  -7  -3  10   15.56    1.40
  -7  -3   9   24.63    1.55
  -7  -3   9   26.88    2.03
  -7  -3   8   52.68    2.87
  -7  -3   8   45.37    2.39
  -7  -3   8   53.42    2.94
  -7  -3   7    1.75    0.66
  -7  -3   7    1.57    0.65
  -7  -3   7    0.61    0.46
  -7  -3   7    1.00    0.56
  -7  -3   6    6.84    1.24
  -7  -3   6    5.76    1.03
  -7  -3   6    3.84    0.80
  -7  -3   6    4.77    0.91
  -7  -3   5   78.32    3.93
  -7  -3   5   78.48    3.88
  -7  -3   5   80.05    3.91
  -7  -3   4   83.42    4.02
  -7  -3   4   75.87    3.87
  -7  -3   4   85.23    4.08
  -7  -3   3   15.01    1.67
  -7  -3   3   12.84    1.60
  -7  -3   3   11.91    1.58
  -7  -3   2    4.85    1.17
  -7  -3   2    5.47    1.22
  -7  -3   1    0.32    0.42
  -7  -3   1    1.82    0.64
  -7  -3   1    0.09    0.69
  -7  -3   0   56.12    3.12
  -7  -3   0   48.71    2.98
  -7  -3   0   52.58    3.11
  -7  -3  -1   22.73    1.99
  -7  -3  -1   22.72    2.01
  -7  -3  -2  145.42    5.74
  -7  -3  -2  153.90    5.69
  -7  -3  -3    2.19    0.60
  -7  -3  -3    1.88    0.69
  -7  -3  -4    0.59    0.53
  -7  -3  -4   -0.03    0.65
  -7  -3  -5    0.53    0.46
  -7  -3  -5    1.07    0.61
  -7  -3  -6   24.33    1.55
  -7  -3  -6   22.84    1.49
  -7  -4  11   18.77    1.34
  -7  -4  10    3.13    0.76
  -7  -4   9    3.66    0.78
  -7  -4   9    2.31    0.76
  -7  -4   8   31.55    2.19
  -7  -4   8   34.39    2.30
  -7  -4   8   26.64    1.59
  -7  -4   8   30.33    2.19
  -7  -4   7    5.35    1.06
  -7  -4   7    4.16    0.92
  -7  -4   7    3.64    0.71
  -7  -4   7    4.18    0.84
  -7  -4   6    1.99    0.86
  -7  -4   6    4.12    1.01
  -7  -4   5   -0.55    0.60
  -7  -4   5   -0.91    0.62
  -7  -4   5   -0.47    0.74
  -7  -4   4   99.77    4.63
  -7  -4   4  103.01    4.68
  -7  -4   4  104.26    4.76
  -7  -4   3    1.22    0.69
  -7  -4   3    1.07    0.69
  -7  -4   2    9.98    1.28
  -7  -4   2   10.05    1.39
  -7  -4   2   12.30    1.54
  -7  -4   1   55.44    3.27
  -7  -4   1   66.10    3.54
  -7  -4   0    0.79    0.57
  -7  -4   0    0.38    0.51
  -7  -4   0    0.67    0.63
  -7  -4  -1   17.09    1.68
  -7  -4  -1   14.06    1.52
  -7  -4  -2  159.84    6.04
  -7  -4  -2  180.11    6.02
  -7  -4  -3    9.48    1.17
  -7  -4  -3    7.85    1.19
  -7  -4  -4   28.10    1.97
  -7  -4  -4   25.82    1.81
  -7  -4  -5   14.37    1.23
  -7  -4  -5   13.01    1.14
  -7  -5  11   11.56    1.06
  -7  -5  10    0.15    0.35
  -7  -5  10    0.45    0.42
  -7  -5   9   40.93    2.39
  -7  -5   9   44.32    2.47
  -7  -5   8    0.68    0.56
  -7  -5   8    0.41    0.43
  -7  -5   7    6.09    1.44
  -7  -5   7    6.63    1.48
  -7  -5   6   50.53    3.37
  -7  -5   6   51.48    3.48
  -7  -5   6   53.66    3.48
  -7  -5   5   40.51    2.67
  -7  -5   5   38.52    2.68
  -7  -5   5   41.00    2.76
  -7  -5   4    4.64    1.00
  -7  -5   4    4.92    1.14
  -7  -5   4    6.93    1.27
  -7  -5   3    2.98    0.79
  -7  -5   3    2.22    0.77
  -7  -5   3    2.14    0.87
  -7  -5   2   18.92    1.66
  -7  -5   2   15.59    1.72
  -7  -5   2   19.73    1.85
  -7  -5   1    0.70    0.44
  -7  -5   1    2.32    0.77
  -7  -5   1    1.21    0.58
  -7  -5   0   73.61    3.53
  -7  -5   0   70.32    3.44
  -7  -5  -1    0.71    0.52
  -7  -5  -2   13.17    1.40
  -7  -5  -2   15.51    1.43
  -7  -5  -3    6.52    0.92
  -7  -5  -3    7.41    1.06
  -7  -5  -4   43.51    2.18
  -7  -5  -4   44.13    2.08
  -7  -6  11    3.17    0.57
  -7  -6  10    7.14    0.83
  -7  -6  10    8.27    0.97
  -7  -6   9   20.27    1.55
  -7  -6   9   21.31    1.62
  -7  -6   8    2.66    0.79
  -7  -6   7   17.31    1.71
  -7  -6   7   17.93    1.68
  -7  -6   6   21.66    1.97
  -7  -6   6   20.17    1.80
  -7  -6   6   21.82    1.96
  -7  -6   5   13.96    1.47
  -7  -6   5   13.34    1.60
  -7  -6   5   15.48    1.74
  -7  -6   4   28.05    2.08
  -7  -6   4   28.39    2.27
  -7  -6   4   28.79    2.23
  -7  -6   3   11.52    1.31
  -7  -6   3    7.30    1.24
  -7  -6   3   10.19    1.29
  -7  -6   2    0.13    0.75
  -7  -6   2    0.88    0.58
  -7  -6   1    8.90    1.13
  -7  -6   1    8.53    1.21
  -7  -6   1   10.25    1.24
  -7  -6   0   -0.13    0.54
  -7  -6   0   -0.04    0.52
  -7  -6  -1   68.66    3.17
  -7  -6  -1   63.10    3.01
  -7  -6  -2   40.80    2.13
  -7  -6  -2   43.07    2.14
  -7  -7  10   23.36    1.41
  -7  -7  10   23.72    1.47
  -7  -7   9   10.30    1.06
  -7  -7   9    8.97    0.95
  -7  -7   8   25.92    1.80
  -7  -7   7    8.91    1.17
  -7  -7   6    2.27    0.79
  -7  -7   6    4.17    0.90
  -7  -7   6    2.73    0.77
  -7  -7   5   17.99    1.57
  -7  -7   5   15.40    1.57
  -7  -7   5   16.23    1.59
  -7  -7   4    1.64    0.59
  -7  -7   4    0.40    0.57
  -7  -7   4    1.52    0.74
  -7  -7   3    8.09    1.19
  -7  -7   3    8.52    1.22
  -7  -7   2    3.67    0.90
  -7  -7   2    2.50    0.63
  -7  -7   1   12.41    1.34
  -7  -7   0   45.81    2.40
  -7  -7  -1   17.81    1.28
  -7  -8   9    0.85    0.40
  -7  -8   9    0.71    0.34
  -7  -8   8    3.62    0.71
  -7  -8   7    8.42    1.01
  -7  -8   6    1.51    0.55
  -7  -8   6    2.19    0.66
  -7  -8   5   57.77    2.67
  -7  -8   5   56.49    2.80
  -7  -8   4    3.52    0.57
  -7  -8   4    3.03    0.73
  -7  -8   3    5.44    0.89
  -7  -8   2    4.32    0.77
  -7  -8   1    0.41    0.39
  -7  -8   0    3.45    0.61
  -7  -9   8   11.95    0.97
  -7  -9   7    3.38    0.58
  -7  -9   6    2.76    0.51
  -7  -9   5   25.48    1.53
  -7  -9   4   11.59    1.03
  -7  -9   3    6.06    0.71
  -8  10  -1   48.37    2.15
  -8  10  -2   11.48    1.02
  -8  10  -3    5.80    0.78
  -8  10  -4   20.07    1.35
  -8   9   1   27.69    1.69
  -8   9   0    0.01    0.41
  -8   9  -1   32.74    1.99
  -8   9  -1   29.66    1.73
  -8   9  -2   18.21    1.54
  -8   9  -2   18.62    1.38
  -8   9  -3   34.27    2.07
  -8   9  -4   23.87    1.72
  -8   9  -4   27.06    1.64
  -8   9  -5    1.66    0.51
  -8   9  -5    2.31    0.60
  -8   9  -6   61.72    2.60
  -8   9  -7    1.38    0.43
  -8   8   3    6.95    0.84
  -8   8   2    4.34    0.84
  -8   8   1   42.87    2.45
  -8   8   0    3.67    0.83
  -8   8  -1    7.80    1.21
  -8   8  -2   41.63    2.58
  -8   8  -2   46.87    2.48
  -8   8  -3   24.96    1.94
  -8   8  -3   27.19    1.78
  -8   8  -4   13.34    1.39
  -8   8  -4   14.58    1.32
  -8   8  -5    2.52    0.74
  -8   8  -5    2.62    0.68
  -8   8  -6   18.18    1.42
  -8   8  -7    3.34    0.62
  -8   7   4    1.22    0.52
  -8   7   3    8.15    1.05
  -8   7   2   12.74    1.36
  -8   7   1   31.58    2.21
  -8   7   0    0.46    0.74
  -8   7  -1   12.45    1.49
  -8   7  -2   96.36    4.29
  -8   7  -3    4.01    0.94
  -8   7  -3    5.42    0.94
  -8   7  -4   29.56    2.20
  -8   7  -4   28.03    1.96
  -8   7  -5   -0.83    0.63
  -8   7  -5    0.19    0.49
  -8   7  -6   26.47    1.83
  -8   7  -7    2.40    0.58
  -8   7  -8   45.44    2.10
  -8   6   5   26.17    1.65
  -8   6   5   21.39    1.37
  -8   6   4    4.71    0.83
  -8   6   4    4.11    0.63
  -8   6   3   16.19    1.55
  -8   6   3   15.75    1.27
  -8   6   2   32.37    2.26
  -8   6   1   27.60    2.17
  -8   6   0   42.99    2.77
  -8   6  -1    1.19    0.82
  -8   6  -2  141.67    5.57
  -8   6  -3   11.19    1.42
  -8   6  -3   11.76    1.28
  -8   6  -4   23.34    2.01
  -8   6  -4   23.22    1.80
  -8   6  -5    6.38    1.05
  -8   6  -5    5.51    0.93
  -8   6  -6    0.15    0.48
  -8   6  -7   94.91    3.71
  -8   6  -8   85.03    3.18
  -8   5   6   25.71    1.58
  -8   5   6   23.91    1.55
  -8   5   5   46.12    2.46
  -8   5   5   45.92    2.30
  -8   5   4   32.93    2.26
  -8   5   4   34.04    2.10
  -8   5   3    0.48    0.55
  -8   5   3    1.92    0.63
  -8   5   2   38.97    2.64
  -8   5   2   37.35    2.21
  -8   5   1    1.03    0.56
  -8   5   0   16.62    1.74
  -8   5  -1  118.65    4.72
  -8   5  -1  106.54    4.82
  -8   5  -2  122.24    5.10
  -8   5  -3   25.57    2.21
  -8   5  -3   29.99    2.08
  -8   5  -4    3.56    0.85
  -8   5  -4    4.11    0.80
  -8   5  -5   53.99    3.01
  -8   5  -5   49.47    2.78
  -8   5  -6  114.36    4.42
  -8   5  -7   23.99    1.72
  -8   5  -8   18.55    1.32
   8  -5   8   22.40    1.54
  -8   4   7   19.35    1.32
  -8   4   6   -0.10    0.37
  -8   4   6    0.68    0.52
  -8   4   5    0.25    0.42
  -8   4   5    0.54    0.56
  -8   4   4    0.28    0.52
  -8   4   4    0.62    0.63
  -8   4   3    3.71    0.93
  -8   4   3    3.39    0.75
  -8   4   2   48.11    2.95
  -8   4   2   53.19    2.74
  -8   4   1  158.75    5.90
  -8   4   1  146.56    5.18
  -8   4   0    1.93    0.68
  -8   4   0    3.36    0.95
  -8   4  -1  101.76    4.42
  -8   4  -1   96.20    4.46
  -8   4  -2   20.98    1.94
  -8   4  -3  117.61    4.95
  -8   4  -4   21.38    1.76
  -8   4  -4   17.90    1.77
  -8   4  -5   23.69    1.81
  -8   4  -6   16.51    1.51
  -8   4  -7    6.74    0.89
  -8   4  -8    1.69    0.46
   8  -4   8    1.00    0.44
  -8   3   8    0.82    0.37
  -8   3   7    4.55    0.84
  -8   3   6   46.25    2.50
  -8   3   5    4.63    0.96
  -8   3   4   11.10    1.32
  -8   3   4    8.72    1.16
  -8   3   3   46.89    2.81
  -8   3   3   43.07    2.68
  -8   3   2    1.38    0.55
  -8   3   2    0.70    0.65
  -8   3   1   52.89    2.95
  -8   3   1   49.48    2.96
  -8   3   0   -0.46    0.64
  -8   3   0    0.13    0.51
  -8   3   0   -0.97    0.50
  -8   3  -1   93.26    4.30
  -8   3  -1   94.42    4.36
  -8   3  -2   20.93    1.90
  -8   3  -3   15.38    1.62
  -8   3  -4   24.75    1.93
  -8   3  -5    8.18    1.10
  -8   3  -6   19.03    1.57
  -8   3  -6   19.56    1.62
  -8   3  -7   74.56    3.14
  -8   3  -7   67.47    2.95
   8  -3   7   75.17    3.06
  -8   3  -8    0.16    0.31
  -8   2   8    9.13    1.00
  -8   2   7    6.61    1.07
  -8   2   6   38.13    2.28
  -8   2   5    0.19    0.53
  -8   2   4   18.42    1.84
  -8   2   3   76.13    3.54
  -8   2   2   16.50    1.60
  -8   2   2   13.40    1.34
  -8   2   1    0.48    0.48
  -8   2   1    0.38    0.48
  -8   2   0    7.64    1.21
  -8   2   0   10.93    1.14
  -8   2  -1   77.13    4.03
  -8   2  -1   83.07    4.04
  -8   2  -2    0.68    0.74
  -8   2  -2   -0.54    0.51
  -8   2  -3    8.75    1.21
  -8   2  -3   10.10    1.34
  -8   2  -4    5.58    1.07
  -8   2  -4    5.13    0.95
  -8   2  -5    1.23    0.69
  -8   2  -5    1.60    0.56
  -8   2  -6    6.92    0.93
   8  -2   6    6.35    0.79
  -8   2  -7    2.43    0.61
  -8   2  -7    2.90    0.56
   8  -2   7    1.80    0.49
  -8   1   9    0.17    0.28
  -8   1   8   90.49    3.40
  -8   1   7   -0.62    0.63
  -8   1   6  161.11    5.66
  -8   1   5   11.10    1.38
  -8   1   4    1.17    0.65
  -8   1   3   74.39    3.57
  -8   1   3   51.09    2.97
  -8   1   2    5.97    0.99
  -8   1   2    3.50    0.82
  -8   1   1   29.06    2.28
  -8   1   1   18.21    1.52
  -8   1   0    5.99    1.30
  -8   1   0   47.37    2.36
  -8   1  -1   93.38    4.38
  -8   1  -2    1.46    0.70
  -8   1  -3  137.93    5.38
  -8   1  -4   44.62    2.50
  -8   1  -4   37.96    2.49
  -8   1  -5    7.83    1.09
  -8   1  -6   17.12    1.50
  -8   1  -6   14.85    1.23
  -8   1  -7    7.07    0.84
  -8   0   9   28.47    1.48
  -8   0   8   39.26    2.04
  -8   0   7    4.71    0.96
  -8   0   6   55.55    2.81
  -8   0   5   19.52    1.63
  -8   0   4    6.90    1.15
  -8   0   4    4.15    0.89
  -8   0   3   38.59    2.58
  -8   0   3   32.09    2.03
  -8   0   2   77.77    3.81
  -8   0   2   60.45    2.83
  -8   0   1    0.27    0.81
  -8   0   1   39.25    2.24
  -8   0   0   54.93    3.94
  -8   0   0  161.00    4.46
  -8   0  -1    4.72    0.95
  -8   0  -2   58.02    3.27
  -8   0  -3   14.39    1.55
  -8   0  -4    0.47    0.67
  -8   0  -4    0.63    0.54
  -8   0  -5   43.36    2.48
  -8   0  -5   41.81    2.24
  -8   0  -6    1.18    0.41
  -8   0  -6    1.11    0.48
  -8  -1   9    7.10    0.68
  -8  -1   8   96.34    3.50
  -8  -1   7    1.87    0.53
  -8  -1   6   34.25    2.11
  -8  -1   5    2.65    0.82
  -8  -1   5    2.95    0.70
  -8  -1   4    0.94    0.64
  -8  -1   4    0.81    0.56
  -8  -1   3   46.54    2.88
  -8  -1   3   37.95    2.14
  -8  -1   2   74.32    3.96
  -8  -1   2  100.45    3.73
  -8  -1   1   -0.64    1.63
  -8  -1   1  148.85    4.05
  -8  -1   0   99.95    4.55
  -8  -1  -1    6.89    1.07
  -8  -1  -1    9.48    1.32
  -8  -1  -2   11.46    1.38
  -8  -1  -2    9.28    1.23
  -8  -1  -3   14.53    1.52
  -8  -1  -3   13.18    1.44
  -8  -1  -4    2.14    0.76
  -8  -1  -4    0.71    0.48
  -8  -1  -5   11.07    1.16
  -8  -1  -6    5.11    0.75
  -8  -2   9    1.57    0.38
  -8  -2   8   29.98    1.66
  -8  -2   8   37.22    2.01
  -8  -2   7    9.99    0.95
  -8  -2   6    2.00    0.63
  -8  -2   6    1.82    0.57
  -8  -2   5    1.21    0.73
  -8  -2   5    1.96    0.67
  -8  -2   5    2.13    0.66
  -8  -2   4   84.83    3.93
  -8  -2   4   91.38    4.12
  -8  -2   3    1.90    0.83
  -8  -2   3    2.02    0.91
  -8  -2   2  120.76    5.28
  -8  -2   2  122.47    5.63
  -8  -2   1   83.25    4.01
  -8  -2   0   45.38    2.83
  -8  -2  -1   34.51    2.25
  -8  -2  -1   31.18    2.27
  -8  -2  -2    1.70    0.74
  -8  -2  -2    0.63    0.59
  -8  -2  -3    2.55    0.67
  -8  -2  -3    3.18    0.71
  -8  -2  -4    0.30    0.48
  -8  -2  -5   18.23    1.32
  -8  -3   9    0.71    0.39
  -8  -3   8   37.75    1.67
  -8  -3   8   29.41    1.80
  -8  -3   7   20.40    1.60
  -8  -3   7   25.88    1.55
  -8  -3   6    3.22    0.89
  -8  -3   6    2.65    0.82
  -8  -3   5    7.55    1.39
  -8  -3   5    7.97    1.36
  -8  -3   4  134.44    5.46
  -8  -3   4  132.26    5.58
  -8  -3   3    1.80    0.75
  -8  -3   3    0.90    0.56
  -8  -3   3    1.10    0.73
  -8  -3   2    7.94    1.13
  -8  -3   2    7.71    1.30
  -8  -3   1    5.85    0.92
  -8  -3   1    5.31    1.03
  -8  -3   0   25.27    1.79
  -8  -3   0   24.57    1.99
  -8  -3  -1   10.12    1.16
  -8  -3  -1    9.41    1.25
  -8  -3  -2    0.90    0.55
  -8  -3  -2   -0.48    0.42
  -8  -3  -3    4.81    0.85
  -8  -3  -4   12.94    1.12
  -8  -4   9   14.54    1.09
  -8  -4   7   10.97    1.57
  -8  -4   7   12.08    1.57
  -8  -4   6    3.44    1.43
  -8  -4   6    2.24    1.35
  -8  -4   5   13.95    1.43
  -8  -4   5   16.12    1.58
  -8  -4   4   67.00    3.29
  -8  -4   4   68.18    3.31
  -8  -4   4   67.77    3.45
  -8  -4   3   -0.30    0.60
  -8  -4   3    0.55    0.55
  -8  -4   3    0.65    0.72
  -8  -4   2   15.60    1.52
  -8  -4   2   17.71    1.69
  -8  -4   1    0.33    0.45
  -8  -4   1    0.77    0.51
  -8  -4   0    8.57    1.03
  -8  -4   0    8.32    1.03
  -8  -4   0    8.55    1.13
  -8  -4  -1   46.31    2.44
  -8  -4  -1   42.92    2.20
  -8  -4  -1   46.99    2.40
  -8  -4  -2   47.80    2.39
  -8  -4  -3    2.29    0.54
  -8  -5   8   16.56    1.32
  -8  -5   7    2.00    0.67
  -8  -5   7    1.25    0.56
  -8  -5   6   13.17    1.31
  -8  -5   6   14.12    1.40
  -8  -5   5    9.07    1.19
  -8  -5   5    9.40    1.25
  -8  -5   4   11.99    1.29
  -8  -5   4   11.70    1.30
  -8  -5   4   11.98    1.41
  -8  -5   3   63.44    2.94
  -8  -5   3   63.13    3.09
  -8  -5   3   65.33    3.26
  -8  -5   2    0.04    0.44
  -8  -5   2    0.04    0.47
  -8  -5   1    4.61    0.76
  -8  -5   1    5.08    0.87
  -8  -5   0    0.73    0.42
  -8  -5   0    0.21    0.37
  -8  -5   0    0.44    0.45
  -8  -5  -1   -0.13    0.33
  -8  -5  -1   -0.24    0.39
  -8  -6   8    0.42    0.35
  -8  -6   7    2.56    0.65
  -8  -6   6    5.08    0.84
  -8  -6   6    5.75    0.87
  -8  -6   5    2.23    0.61
  -8  -6   5    3.86    0.89
  -8  -6   4   85.24    3.34
  -8  -6   4   85.49    3.54
  -8  -6   4   88.44    3.66
  -8  -6   3    4.01    0.84
  -8  -6   3    2.77    0.69
  -8  -6   2   29.49    1.78
  -8  -6   2   27.62    1.80
  -8  -6   1    0.77    0.40
  -8  -6   1   -0.05    0.32
  -8  -6   0   18.60    1.21
  -8  -7   7   -0.63    0.40
  -8  -7   6  113.55    3.78
  -8  -7   5   16.39    1.17
  -8  -7   4   14.82    1.18
  -8  -7   4   15.35    1.24
  -8  -7   3   -0.42    0.35
  -8  -7   3    0.29    0.35
  -8  -7   2    7.74    0.78
  -9   8   0  144.44    4.44
  -9   8  -1   -0.56    0.46
  -9   8  -2   14.63    1.19
  -9   8  -3   11.42    1.02
  -9   8  -4   48.23    2.14
  -9   7   1    0.25    0.39
  -9   7   0   19.68    1.44
  -9   7  -1   17.95    1.42
  -9   7  -2    2.05    0.65
  -9   7  -3    3.67    0.77
  -9   7  -4   20.28    1.44
  -9   6   3   20.07    1.33
  -9   6   2   14.38    1.22
  -9   6   1    3.11    0.69
  -9   6   0    0.49    0.44
  -9   6  -1   93.80    3.77
  -9   6  -2   77.84    3.33
  -9   6  -3    3.27    0.62
  -9   6  -3    3.84    0.74
  -9   6  -4   11.56    1.08
  -9   6  -5    3.27    0.61
  -9   5   3   12.51    1.11
  -9   5   3    8.04    0.69
  -9   5   2   11.67    1.16
  -9   5   1   58.50    2.84
  -9   5   0   71.92    3.23
  -9   5  -1   60.92    2.96
  -9   5  -2    0.99    0.46
  -9   5  -2    0.75    0.55
  -9   5  -3   10.93    1.12
  -9   5  -3   10.77    1.15
  -9   5  -4    1.48    0.56
  -9   5  -5    0.58    0.42
  -9   5  -6   41.38    1.91
  -9   4   5    4.21    0.52
  -9   4   4    2.00    0.46
  -9   4   3    2.42    0.58
  -9   4   3    1.23    0.37
  -9   4   2  102.91    3.74
  -9   4   2   75.62    2.86
  -9   4   1   47.95    1.96
  -9   4   1   48.25    2.58
  -9   4   0   50.39    2.72
  -9   4  -1   22.71    1.71
  -9   4  -1   20.07    1.64
  -9   4  -2    0.99    0.47
  -9   4  -2    0.48    0.42
  -9   4  -3   41.95    2.38
  -9   4  -4   30.28    1.91
  -9   4  -5    3.68    0.67
  -9   4  -6   24.00    1.39
  -9   3   6    4.64    0.57
  -9   3   5    0.72    0.36
  -9   3   4    3.90    0.62
  -9   3   3   10.98    0.94
  -9   3   2    3.97    0.64
  -9   3   1   40.79    1.88
  -9   3   0    6.47    1.48
  -9   3   0   84.24    2.49
  -9   3  -1    1.06    0.57
  -9   3  -1    0.76    0.47
  -9   3  -2   28.54    1.99
  -9   3  -2   26.99    1.86
  -9   3  -3    9.63    1.18
  -9   3  -4   58.89    2.80
  -9   3  -5    3.54    0.65
  -9   2   6    0.25    0.28
  -9   2   5    1.19    0.44
  -9   2   4   11.41    1.07
  -9   2   3   32.02    1.71
  -9   2   2   34.47    1.82
  -9   2   1    2.87    0.99
  -9   2   1   60.50    2.29
  -9   2   0   30.03    2.09
  -9   2  -1   11.37    1.35
  -9   2  -2    9.21    1.28
  -9   2  -3   18.34    1.55
  -9   2  -4   40.70    2.15
  -9   2  -4   40.61    2.19
  -9   2  -5    8.22    0.86
  -9   2  -5    7.54    0.86
  -9   1   7    6.05    0.61
  -9   1   6    9.68    0.85
  -9   1   5    2.99    0.62
  -9   1   4    1.02    0.46
  -9   1   3   45.63    2.16
  -9   1   2    4.16    1.08
  -9   1   2   57.09    2.20
  -9   1   1    2.04    1.65
  -9   1   1  138.01    3.35
  -9   1   0   11.79    1.36
  -9   1  -1    2.02    0.72
  -9   1  -2   49.56    2.42
  -9   1  -2   47.03    2.64
  -9   1  -3   27.80    1.73
  -9   1  -3   24.05    1.73
  -9   1  -4   11.43    1.04
  -9   1  -4   10.31    1.07
  -9   0   7   27.22    1.33
  -9   0   6   14.32    1.03
  -9   0   5   14.86    1.12
  -9   0   4   28.45    1.64
  -9   0   3    0.24    0.78
  -9   0   3   59.84    2.30
  -9   0   2   17.78    2.46
  -9   0   2  161.93    3.75
  -9   0   1    8.78    1.18
  -9   0   0    0.86    0.64
  -9   0  -1   15.77    1.50
  -9   0  -2    0.82    0.42
  -9   0  -2    1.44    0.60
  -9   0  -3    2.29    0.53
  -9   0  -3    2.19    0.54
  -9   0  -4    1.84    0.50
  -9   0  -4    0.51    0.29
  -9  -1   7   46.69    1.81
  -9  -1   6   45.22    1.92
  -9  -1   5   48.00    2.13
  -9  -1   4    2.06    1.13
  -9  -1   4   98.53    2.72
  -9  -1   3    1.92    1.65
  -9  -1   3  177.90    3.74
  -9  -1   2   15.31    1.52
  -9  -1   1   12.63    1.40
  -9  -1   0    5.29    0.99
  -9  -1  -1   10.64    1.20
  -9  -1  -2   23.09    1.47
  -9  -1  -2   21.87    1.58
  -9  -1  -3    0.26    0.29
  -9  -1  -3    1.01    0.42
  -9  -2   7   83.13    2.51
  -9  -2   6  131.64    3.72
  -9  -2   5   -0.35    1.23
  -9  -2   5  148.98    3.07
  -9  -2   4   24.66    1.76
  -9  -2   3    8.74    1.12
  -9  -2   2   10.80    1.27
  -9  -2   1    2.45    0.74
  -9  -2   0   -0.25    0.54
  -9  -2  -1   35.14    2.03
  -9  -2  -2   29.13    1.62
  -9  -3   6    1.35    0.48
  -9  -3   5    1.88    0.57
  -9  -3   4   -0.39    0.44
  -9  -3   3   34.02    2.04
  -9  -3   2    1.06    0.53
  -9  -3   1    7.79    1.05
  -9  -3   0    2.93    0.63
  -9  -3  -1   41.56    1.94
  -9  -4   6    4.60    0.67
  -9  -4   5    7.94    0.91
  -9  -4   4    0.81    0.46
  -9  -4   3   10.93    1.09
  -9  -4   2    5.28    0.78
  -9  -4   1    1.77    0.48
  -9  -5   5   15.56    1.15
  -9  -5   4    0.57    0.41
  -9  -5   3   16.81    1.21
   0   0   0    0.00    0.00
TITL Mohamed-EB-37 in P-1
REM P-1 (#2 in standard setting)
CELL 1.54184   8.224069  12.216052  12.395168 115.5074  93.5318  96.9141
ZERR    2.00   0.000364   0.000723   0.000812   0.0061   0.0044   0.0042
LATT  1
SFAC C H N O S
UNIT 60.00 40.00 4.00 6.00 2.00
TREF
HKLF 4
END
_computing_structure_solution     'SHELXT 2014/5 (Sheldrick, 2014)'
;
_shelx_hkl_checksum              24634
_shelx_res_file
;
    mohamed-eb-37.res created by SHELXL-2014/7
TITL mohamed-eb-37_a.res in P-1
REM Old TITL Mohamed-EB-37 in P-1 #2
REM SHELXT solution in P-1
REM R1 0.133, Rweak 0.013, Alpha 0.037, Orientation as input
REM Formula found by SHELXT: C25 N4 O4 S
CELL 1.54184 8.224069 12.216052 12.395168 115.5074 93.5318 96.9141
ZERR 2 0.000364 0.000723 0.000812 0.0061 0.0044 0.0042
LATT 1
SFAC C H N O S
UNIT 48 42 10 8 2
EQIV $1 2-X,1-Y,2-Z
EQIV $2 -1+X,1+Y,1+Z
EQIV $3 -1+X,+Y,+Z
EQIV $4 2-X,-Y,1-Z
EQIV $5 1-X,1-Y,1-Z
L.S. 25
PLAN  20
TEMP -100(2)
HTAB N1 N4_$1
HTAB C5 O4_$2
HTAB C7 O2_$1
HTAB C13 N3_$3
HTAB C14 N3_$3
HTAB C19 O3_$4
HTAB C21 O1_$5
HTAB C23 O2
BOND $H
LIST 6
MORE -1
CONF
fmap 2
acta
OMIT -9 -2 7
OMIT -9 -1 5
OMIT -9 -2 6
OMIT -9 -1 6
OMIT -9 3 1
OMIT 7 -1 1
REM <olex2.extras>
REM <HklSrc "%.\\Mohamed-EB-37.hkl">
REM </olex2.extras>
WGHT    0.052500    0.292300
FVAR       0.55030
S1    5    0.856356    0.524311    0.735500    11.00000    0.02982    0.04097 =
         0.02147    0.01517    0.00957    0.02142
O1    4    0.972732    0.310954    0.562909    11.00000    0.02918    0.03117 =
         0.01892    0.00584   -0.00093    0.01214
O2    4    0.453065    0.804415    1.069773    11.00000    0.02136    0.01848 =
         0.02808    0.00467    0.00438    0.00708
O3    4    1.433771   -0.215345    0.470975    11.00000    0.04157    0.02869 =
         0.03987    0.01099    0.00584    0.01695
O4    4    1.308478   -0.227989    0.306510    11.00000    0.05420    0.02790 =
         0.02384    0.00392    0.01356    0.01205
N1    3    1.142949    0.274673    0.693146    11.00000    0.02692    0.02323 =
         0.01522    0.00350    0.00111    0.00883
AFIX  43
H1    2    1.184113    0.306494    0.769552    11.00000   -1.20000
AFIX   0
N2    3    0.609841    0.598793    0.872542    11.00000    0.02088    0.01850 =
         0.01661    0.00489    0.00205    0.00791
N3    3    0.824655    0.574555    0.971758    11.00000    0.02265    0.02469 =
         0.01831    0.00560    0.00189    0.00904
N4    3    0.705520    0.615596    1.049208    11.00000    0.02522    0.02239 =
         0.01690    0.00448    0.00203    0.00873
N5    3    1.348463   -0.175185    0.416308    11.00000    0.02910    0.02153 =
         0.02769    0.00759    0.01050    0.00593
C1    1    1.041246    0.340153    0.663507    11.00000    0.01825    0.02306 =
         0.01967    0.00673    0.00382    0.00586
C2    1    1.025986    0.459890    0.771939    11.00000    0.02244    0.02967 =
         0.02072    0.00540    0.00128    0.01321
AFIX  23
H2A   2    1.129849    0.518999    0.793302    11.00000   -1.20000
H2B   2    1.006420    0.443686    0.842137    11.00000   -1.20000
AFIX   0
C3    1    0.763961    0.565513    0.867437    11.00000    0.02006    0.01785 =
         0.01951    0.00505    0.00296    0.00760
C4    1    0.580706    0.629608    0.988680    11.00000    0.02191    0.01734 =
         0.01672    0.00433    0.00149    0.00465
C5    1    0.428062    0.675411    1.037356    11.00000    0.02396    0.01865 =
         0.01983    0.00510    0.00435    0.00755
AFIX  23
H5A   2    0.330706    0.632415    0.975580    11.00000   -1.20000
H5B   2    0.409783    0.661150    1.108799    11.00000   -1.20000
AFIX   0
C6    1    1.190594    0.162965    0.617545    11.00000    0.02051    0.02018 =
         0.01939    0.00559    0.00311    0.00460
C7    1    1.279778    0.108099    0.674974    11.00000    0.02610    0.02612 =
         0.01617    0.00608    0.00196    0.00654
AFIX  43
H7    2    1.304756    0.147465    0.760255    11.00000   -1.20000
AFIX   0
C8    1    1.331797   -0.002152    0.609546    11.00000    0.02612    0.02548 =
         0.02361    0.01023    0.00423    0.00874
AFIX  43
H8    2    1.392915   -0.038977    0.648670    11.00000   -1.20000
AFIX   0
C9    1    1.292918   -0.058285    0.485116    11.00000    0.02453    0.01917 =
         0.02299    0.00516    0.00820    0.00495
C10   1    1.206727   -0.005463    0.426043    11.00000    0.02954    0.02521 =
         0.01612    0.00385    0.00433    0.00565
AFIX  43
H10   2    1.182799   -0.045262    0.340699    11.00000   -1.20000
AFIX   0
C11   1    1.155320    0.105968    0.491988    11.00000    0.02794    0.02667 =
         0.01859    0.00787    0.00241    0.00863
AFIX  43
H11   2    1.096585    0.143277    0.452141    11.00000   -1.20000
AFIX   0
C12   1    0.316793    0.863178    1.092121    11.00000    0.02400    0.02420 =
         0.01962    0.00810    0.00511    0.01089
C13   1    0.155461    0.805695    1.076409    11.00000    0.02600    0.02627 =
         0.02406    0.00912    0.00443    0.00750
AFIX  43
H13   2    0.130872    0.719233    1.048847    11.00000   -1.20000
AFIX   0
C14   1    0.029647    0.876817    1.101711    11.00000    0.02486    0.03688 =
         0.02945    0.01455    0.00639    0.01118
AFIX  43
H14   2   -0.081236    0.837250    1.089684    11.00000   -1.20000
AFIX   0
C15   1    0.061190    1.003355    1.143835    11.00000    0.03524    0.03457 =
         0.03027    0.01697    0.01103    0.01932
C16   1    0.224380    1.058865    1.159011    11.00000    0.03899    0.02549 =
         0.04480    0.01601    0.01155    0.01442
AFIX  43
H16   2    0.249224    1.145474    1.187726    11.00000   -1.20000
AFIX   0
C17   1    0.351560    0.989836    1.132903    11.00000    0.02705    0.02467 =
         0.03861    0.01232    0.00670    0.00710
AFIX  43
H17   2    0.462149    1.029097    1.142893    11.00000   -1.20000
AFIX   0
C18   1    0.498486    0.591506    0.774340    11.00000    0.01740    0.02397 =
         0.01753    0.00910    0.00315    0.00753
C19   1    0.452842    0.479905    0.673900    11.00000    0.02533    0.02489 =
         0.02073    0.00636    0.00323    0.00728
AFIX  43
H19   2    0.494292    0.408917    0.669305    11.00000   -1.20000
AFIX   0
C20   1    0.345070    0.473415    0.579629    11.00000    0.02659    0.04391 =
         0.01876    0.00639    0.00094    0.00430
AFIX  43
H20   2    0.313435    0.397610    0.509428    11.00000   -1.20000
AFIX   0
C21   1    0.283453    0.577298    0.587650    11.00000    0.03145    0.06565 =
         0.02427    0.02366    0.00250    0.01830
AFIX  43
H21   2    0.209024    0.572257    0.523336    11.00000   -1.20000
AFIX   0
C22   1    0.330236    0.687593    0.688815    11.00000    0.03928    0.04813 =
         0.03527    0.02681    0.01126    0.02586
AFIX  43
H22   2    0.288018    0.758400    0.693660    11.00000   -1.20000
AFIX   0
C23   1    0.438422    0.696453    0.783806    11.00000    0.03084    0.02577 =
         0.02575    0.01246    0.00656    0.01229
AFIX  43
H23   2    0.470644    0.772493    0.853656    11.00000   -1.20000
AFIX   0
C24   1   -0.075534    1.080113    1.175111    11.00000    0.04202    0.04824 =
         0.04729    0.02655    0.01887    0.02846
AFIX 137
H24A  2   -0.181380    1.028096    1.132745    11.00000   -1.50000
H24B  2   -0.054124    1.146278    1.150602    11.00000   -1.50000
H24C  2   -0.079674    1.115693    1.262247    11.00000   -1.50000
AFIX   0
HKLF 4
REM  mohamed-eb-37_a.res in P-1
REM R1 =  0.0382 for    3685 Fo > 4sig(Fo)  and  0.0479 for all    4208 data
REM    308 parameters refined using      0 restraints
END
WGHT      0.0525      0.2920
REM Highest difference peak  0.271,  deepest hole -0.213,  1-sigma level  0.049
Q1    1   0.9519  0.4928  0.7612  11.00000  0.05    0.27
Q2    1   0.8326  0.5773  0.8147  11.00000  0.05    0.25
Q3    1  -0.1278  1.0902  1.1056  11.00000  0.05    0.24
Q4    1   1.0281  0.4007  0.7193  11.00000  0.05    0.24
Q5    1   0.5040  0.6432  1.0140  11.00000  0.05    0.24
Q6    1  -0.1531  1.0584  1.2211  11.00000  0.05    0.23
Q7    1   1.2952 -0.0398  0.5443  11.00000  0.05    0.22
Q8    1   0.4333  0.6390  0.7988  11.00000  0.05    0.22
Q9    1   0.2411  0.8452  1.1125  11.00000  0.05    0.21
Q10   1   0.7614  0.4701  0.6613  11.00000  0.05    0.21
Q11   1   0.1082  0.8548  1.1145  11.00000  0.05    0.20
Q12   1   0.5603  0.5929  0.8245  11.00000  0.05    0.20
Q13   1  -0.0019  1.0390  1.1448  11.00000  0.05    0.20
Q14   1   1.2348 -0.0423  0.4557  11.00000  0.05    0.20
Q15   1   0.8313  0.4410  0.6431  11.00000  0.05    0.19
Q16   1   1.2540  0.1462  0.6405  11.00000  0.05    0.19
Q17   1  -0.0129  1.1719  1.2317  11.00000  0.05    0.19
Q18   1   0.5008  0.5392  0.7185  11.00000  0.05    0.19
Q19   1   1.1612  0.2209  0.6548  11.00000  0.05    0.19
Q20   1   0.1505  1.0301  1.1818  11.00000  0.05    0.18
;
_shelx_res_checksum              50406
loop_
_space_group_symop_operation_xyz
'x, y, z'
'-x, -y, -z'
loop_
_atom_site_type_symbol
_atom_site_label
_atom_site_fract_x
_atom_site_fract_y
_atom_site_fract_z
_atom_site_U_iso_or_equiv
_atom_site_adp_type
_atom_site_calc_flag
_atom_site_occupancy
S S1 0.85636(5) 0.52431(4) 0.73550(4) 0.02853(13) Uani d 1
O O1 0.97273(15) 0.31095(11) 0.56291(10) 0.0278(3) Uani d 1
O O2 0.45307(13) 0.80442(10) 1.06977(10) 0.0243(2) Uani d 1
O O3 1.43377(17) -0.21534(12) 0.47098(13) 0.0371(3) Uani d 1
O O4 1.30848(18) -0.22799(12) 0.30651(11) 0.0371(3) Uani d 1
N N1 1.14295(17) 0.27467(12) 0.69315(12) 0.0232(3) Uani d 1
H H1 1.1841 0.3065 0.7696 0.028 Uiso calc 1
N N2 0.60984(16) 0.59879(11) 0.87254(11) 0.0193(3) Uani d 1
N N3 0.82466(16) 0.57455(12) 0.97176(12) 0.0228(3) Uani d 1
N N4 0.70552(17) 0.61560(12) 1.04921(12) 0.0226(3) Uani d 1
N N5 1.34846(18) -0.17518(13) 0.41631(13) 0.0268(3) Uani d 1
C C1 1.04125(18) 0.34015(14) 0.66351(14) 0.0210(3) Uani d 1
C C2 1.0260(2) 0.45989(15) 0.77194(14) 0.0256(3) Uani d 1
H H2A 1.1298 0.5190 0.7933 0.031 Uiso calc 1
H H2B 1.0064 0.4437 0.8421 0.031 Uiso calc 1
C C3 0.76396(18) 0.56551(13) 0.86744(14) 0.0199(3) Uani d 1
C C4 0.58071(18) 0.62961(13) 0.98868(14) 0.0197(3) Uani d 1
C C5 0.42806(19) 0.67541(14) 1.03736(14) 0.0216(3) Uani d 1
H H5A 0.3307 0.6324 0.9756 0.026 Uiso calc 1
H H5B 0.4098 0.6612 1.1088 0.026 Uiso calc 1
C C6 1.19059(19) 0.16297(14) 0.61755(14) 0.0210(3) Uani d 1
C C7 1.2798(2) 0.10810(15) 0.67497(14) 0.0238(3) Uani d 1
H H7 1.3048 0.1475 0.7603 0.029 Uiso calc 1
C C8 1.3318(2) -0.00215(15) 0.60955(15) 0.0248(3) Uani d 1
H H8 1.3929 -0.0390 0.6487 0.030 Uiso calc 1
C C9 1.29292(19) -0.05829(14) 0.48512(14) 0.0234(3) Uani d 1
C C10 1.2067(2) -0.00546(15) 0.42604(14) 0.0254(3) Uani d 1
H H10 1.1828 -0.0453 0.3407 0.030 Uiso calc 1
C C11 1.1553(2) 0.10597(15) 0.49199(14) 0.0248(3) Uani d 1
H H11 1.0966 0.1433 0.4521 0.030 Uiso calc 1
C C12 0.3168(2) 0.86318(15) 1.09212(14) 0.0224(3) Uani d 1
C C13 0.1555(2) 0.80569(16) 1.07641(15) 0.0258(3) Uani d 1
H H13 0.1309 0.7192 1.0488 0.031 Uiso calc 1
C C14 0.0296(2) 0.87682(17) 1.10171(16) 0.0297(4) Uani d 1
H H14 -0.0812 0.8372 1.0897 0.036 Uiso calc 1
C C15 0.0612(2) 1.00335(17) 1.14384(16) 0.0308(4) Uani d 1
C C16 0.2244(2) 1.05886(17) 1.15901(18) 0.0351(4) Uani d 1
H H16 0.2492 1.1455 1.1877 0.042 Uiso calc 1
C C17 0.3516(2) 0.98984(16) 1.13290(17) 0.0303(4) Uani d 1
H H17 0.4621 1.0291 1.1429 0.036 Uiso calc 1
C C18 0.49849(18) 0.59151(14) 0.77434(13) 0.0192(3) Uani d 1
C C19 0.4528(2) 0.47990(15) 0.67390(15) 0.0247(3) Uani d 1
H H19 0.4943 0.4089 0.6693 0.030 Uiso calc 1
C C20 0.3451(2) 0.47341(18) 0.57963(15) 0.0327(4) Uani d 1
H H20 0.3134 0.3976 0.5094 0.039 Uiso calc 1
C C21 0.2835(2) 0.5773(2) 0.58765(17) 0.0382(4) Uani d 1
H H21 0.2090 0.5723 0.5233 0.046 Uiso calc 1
C C22 0.3302(2) 0.68759(19) 0.68882(18) 0.0359(4) Uani d 1
H H22 0.2880 0.7584 0.6937 0.043 Uiso calc 1
C C23 0.4384(2) 0.69645(15) 0.78381(15) 0.0262(3) Uani d 1
H H23 0.4706 0.7725 0.8537 0.031 Uiso calc 1
C C24 -0.0755(3) 1.0801(2) 1.1751(2) 0.0413(5) Uani d 1
H H24A -0.1814 1.0281 1.1327 0.062 Uiso calc 1
H H24B -0.0541 1.1463 1.1506 0.062 Uiso calc 1
H H24C -0.0797 1.1157 1.2622 0.062 Uiso calc 1
loop_
_atom_site_aniso_label
_atom_site_aniso_U_11
_atom_site_aniso_U_22
_atom_site_aniso_U_33
_atom_site_aniso_U_12
_atom_site_aniso_U_13
_atom_site_aniso_U_23
S1 0.0298(2) 0.0410(2) 0.0215(2) 0.02142(17) 0.00957(15) 0.01517(18)
O1 0.0292(6) 0.0312(6) 0.0189(6) 0.0121(5) -0.0009(4) 0.0058(5)
O2 0.0214(5) 0.0185(5) 0.0281(6) 0.0071(4) 0.0044(4) 0.0047(5)
O3 0.0416(7) 0.0287(7) 0.0399(7) 0.0170(5) 0.0058(6) 0.0110(6)
O4 0.0542(8) 0.0279(6) 0.0238(7) 0.0121(6) 0.0136(6) 0.0039(5)
N1 0.0269(7) 0.0232(7) 0.0152(6) 0.0088(5) 0.0011(5) 0.0035(5)
N2 0.0209(6) 0.0185(6) 0.0166(6) 0.0079(5) 0.0020(5) 0.0049(5)
N3 0.0226(6) 0.0247(7) 0.0183(6) 0.0090(5) 0.0019(5) 0.0056(5)
N4 0.0252(7) 0.0224(6) 0.0169(6) 0.0087(5) 0.0020(5) 0.0045(5)
N5 0.0291(7) 0.0215(7) 0.0277(7) 0.0059(5) 0.0105(6) 0.0076(6)
C1 0.0182(7) 0.0231(8) 0.0197(7) 0.0059(6) 0.0038(5) 0.0067(6)
C2 0.0224(8) 0.0297(8) 0.0207(8) 0.0132(6) 0.0013(6) 0.0054(7)
C3 0.0201(7) 0.0179(7) 0.0195(7) 0.0076(5) 0.0030(5) 0.0051(6)
C4 0.0219(7) 0.0173(7) 0.0167(7) 0.0046(5) 0.0015(5) 0.0043(6)
C5 0.0240(8) 0.0186(7) 0.0198(7) 0.0076(6) 0.0043(6) 0.0051(6)
C6 0.0205(7) 0.0202(7) 0.0194(7) 0.0046(5) 0.0031(5) 0.0056(6)
C7 0.0261(8) 0.0261(8) 0.0162(7) 0.0065(6) 0.0020(6) 0.0061(6)
C8 0.0261(8) 0.0255(8) 0.0236(8) 0.0087(6) 0.0042(6) 0.0102(7)
C9 0.0245(8) 0.0192(7) 0.0230(8) 0.0050(6) 0.0082(6) 0.0052(6)
C10 0.0295(8) 0.0252(8) 0.0161(7) 0.0056(6) 0.0043(6) 0.0038(6)
C11 0.0279(8) 0.0267(8) 0.0186(8) 0.0086(6) 0.0024(6) 0.0079(6)
C12 0.0240(8) 0.0242(8) 0.0196(7) 0.0109(6) 0.0051(6) 0.0081(6)
C13 0.0260(8) 0.0263(8) 0.0241(8) 0.0075(6) 0.0044(6) 0.0091(7)
C14 0.0249(8) 0.0369(9) 0.0295(9) 0.0112(7) 0.0064(6) 0.0146(8)
C15 0.0352(9) 0.0346(9) 0.0303(9) 0.0193(7) 0.0110(7) 0.0170(8)
C16 0.0390(10) 0.0255(9) 0.0448(11) 0.0144(7) 0.0116(8) 0.0160(8)
C17 0.0271(8) 0.0247(8) 0.0386(10) 0.0071(6) 0.0067(7) 0.0123(7)
C18 0.0174(7) 0.0240(7) 0.0175(7) 0.0075(5) 0.0031(5) 0.0091(6)
C19 0.0253(8) 0.0249(8) 0.0207(8) 0.0073(6) 0.0032(6) 0.0064(6)
C20 0.0266(9) 0.0439(10) 0.0188(8) 0.0043(7) 0.0009(6) 0.0064(7)
C21 0.0315(9) 0.0656(13) 0.0243(9) 0.0183(9) 0.0025(7) 0.0237(9)
C22 0.0393(10) 0.0481(11) 0.0353(10) 0.0259(8) 0.0113(8) 0.0268(9)
C23 0.0308(8) 0.0258(8) 0.0258(8) 0.0123(6) 0.0066(6) 0.0125(7)
C24 0.0420(11) 0.0482(12) 0.0473(12) 0.0285(9) 0.0189(9) 0.0265(10)
loop_
_atom_type_symbol
_atom_type_description
_atom_type_scat_dispersion_real
_atom_type_scat_dispersion_imag
_atom_type_scat_source
C C 0.0181 0.0091 'International Tables Vol C Tables 4.2.6.8 and 6.1.1.4'
H H 0.0000 0.0000 'International Tables Vol C Tables 4.2.6.8 and 6.1.1.4'
N N 0.0311 0.0180 'International Tables Vol C Tables 4.2.6.8 and 6.1.1.4'
O O 0.0492 0.0322 'International Tables Vol C Tables 4.2.6.8 and 6.1.1.4'
S S 0.3331 0.5567 'International Tables Vol C Tables 4.2.6.8 and 6.1.1.4'
loop_
_geom_angle_atom_site_label_1
_geom_angle_atom_site_label_2
_geom_angle_atom_site_label_3
_geom_angle
C3 S1 C2 99.82(8)
C12 O2 C5 117.66(12)
C1 N1 H1 115.8
C1 N1 C6 128.31(14)
C6 N1 H1 115.8
C3 N2 C18 127.40(13)
C4 N2 C3 104.43(12)
C4 N2 C18 127.94(13)
C3 N3 N4 106.31(12)
C4 N4 N3 107.88(12)
O3 N5 O4 123.30(14)
O3 N5 C9 118.18(14)
O4 N5 C9 118.52(15)
O1 C1 N1 125.37(14)
O1 C1 C2 122.69(14)
N1 C1 C2 111.91(13)
S1 C2 H2A 109.8
S1 C2 H2B 109.8
C1 C2 S1 109.43(11)
C1 C2 H2A 109.8
C1 C2 H2B 109.8
H2A C2 H2B 108.2
N2 C3 S1 120.49(11)
N3 C3 S1 128.51(12)
N3 C3 N2 110.95(13)
N2 C4 C5 123.61(14)
N4 C4 N2 110.42(13)
N4 C4 C5 125.95(14)
O2 C5 C4 106.51(12)
O2 C5 H5A 110.4
O2 C5 H5B 110.4
C4 C5 H5A 110.4
C4 C5 H5B 110.4
H5A C5 H5B 108.6
C7 C6 N1 115.99(14)
C11 C6 N1 124.33(15)
C11 C6 C7 119.68(15)
C6 C7 H7 119.6
C8 C7 C6 120.89(15)
C8 C7 H7 119.6
C7 C8 H8 120.8
C7 C8 C9 118.50(15)
C9 C8 H8 120.8
C8 C9 N5 118.20(15)
C10 C9 N5 119.99(15)
C10 C9 C8 121.80(15)
C9 C10 H10 120.2
C9 C10 C11 119.64(15)
C11 C10 H10 120.2
C6 C11 H11 120.3
C10 C11 C6 119.48(15)
C10 C11 H11 120.3
O2 C12 C13 125.17(15)
O2 C12 C17 114.73(15)
C13 C12 C17 120.10(15)
C12 C13 H13 120.5
C12 C13 C14 118.91(16)
C14 C13 H13 120.5
C13 C14 H14 118.9
C15 C14 C13 122.12(16)
C15 C14 H14 118.9
C14 C15 C16 117.81(16)
C14 C15 C24 121.68(18)
C16 C15 C24 120.49(17)
C15 C16 H16 119.4
C17 C16 C15 121.14(17)
C17 C16 H16 119.4
C12 C17 H17 120.0
C16 C17 C12 119.90(16)
C16 C17 H17 120.0
C19 C18 N2 119.01(14)
C19 C18 C23 121.77(15)
C23 C18 N2 119.21(14)
C18 C19 H19 120.6
C18 C19 C20 118.73(16)
C20 C19 H19 120.6
C19 C20 H20 119.9
C21 C20 C19 120.28(17)
C21 C20 H20 119.9
C20 C21 H21 120.0
C22 C21 C20 120.01(16)
C22 C21 H21 120.0
C21 C22 H22 119.6
C21 C22 C23 120.73(17)
C23 C22 H22 119.6
C18 C23 H23 120.8
C22 C23 C18 118.46(16)
C22 C23 H23 120.8
C15 C24 H24A 109.5
C15 C24 H24B 109.5
C15 C24 H24C 109.5
H24A C24 H24B 109.5
H24A C24 H24C 109.5
H24B C24 H24C 109.5
loop_
_geom_bond_atom_site_label_1
_geom_bond_atom_site_label_2
_geom_bond_distance
S1 C2 1.8062(16)
S1 C3 1.7440(15)
O1 C1 1.217(2)
O2 C5 1.4331(19)
O2 C12 1.3816(19)
O3 N5 1.226(2)
O4 N5 1.231(2)
N1 H1 0.8800
N1 C1 1.360(2)
N1 C6 1.402(2)
N2 C3 1.3739(19)
N2 C4 1.367(2)
N2 C18 1.4415(19)
N3 N4 1.3973(18)
N3 C3 1.311(2)
N4 C4 1.305(2)
N5 C9 1.460(2)
C1 C2 1.528(2)
C2 H2A 0.9900
C2 H2B 0.9900
C4 C5 1.492(2)
C5 H5A 0.9900
C5 H5B 0.9900
C6 C7 1.400(2)
C6 C11 1.398(2)
C7 H7 0.9500
C7 C8 1.377(2)
C8 H8 0.9500
C8 C9 1.388(2)
C9 C10 1.381(2)
C10 H10 0.9500
C10 C11 1.387(2)
C11 H11 0.9500
C12 C13 1.385(2)
C12 C17 1.390(2)
C13 H13 0.9500
C13 C14 1.395(2)
C14 H14 0.9500
C14 C15 1.386(3)
C15 C16 1.392(3)
C15 C24 1.513(2)
C16 H16 0.9500
C16 C17 1.389(2)
C17 H17 0.9500
C18 C19 1.381(2)
C18 C23 1.390(2)
C19 H19 0.9500
C19 C20 1.390(2)
C20 H20 0.9500
C20 C21 1.389(3)
C21 H21 0.9500
C21 C22 1.377(3)
C22 H22 0.9500
C22 C23 1.388(3)
C23 H23 0.9500
C24 H24A 0.9800
C24 H24B 0.9800
C24 H24C 0.9800
loop_
_geom_hbond_atom_site_label_D
_geom_hbond_atom_site_label_H
_geom_hbond_atom_site_label_A
_geom_hbond_site_symmetry_A
_geom_hbond_distance_DH
_geom_hbond_distance_HA
_geom_hbond_distance_DA
_geom_hbond_angle_DHA
N1 H1 N4 2_767 0.88 2.12 2.9949(19) 177.2
C5 H5B O4 1_466 0.99 2.49 3.2838(19) 137.0
C7 H7 O2 2_767 0.95 2.62 3.413(2) 140.7
C19 H19 O3 2_756 0.95 2.43 3.236(2) 143.0
C23 H23 O2 . 0.95 2.55 3.194(2) 125.1
C2 H2A Cg4 1_655 0.99 2.85 3.6592(19) 140
C5 H5B Cg1 2_667 0.99 2.92 3.433(2) 113
C10 H10 Cg3 1_644 0.95 2.67 3.5536(18) 156
C14 H14 Cg1 1_455 0.95 2.98 3.781(2) 143
loop_
_geom_torsion_atom_site_label_1
_geom_torsion_atom_site_label_2
_geom_torsion_atom_site_label_3
_geom_torsion_atom_site_label_4
_geom_torsion
O1 C1 C2 S1 14.8(2)
O2 C12 C13 C14 -179.47(15)
O2 C12 C17 C16 -179.65(16)
O3 N5 C9 C8 -3.5(2)
O3 N5 C9 C10 175.33(15)
O4 N5 C9 C8 176.98(15)
O4 N5 C9 C10 -4.2(2)
N1 C1 C2 S1 -167.16(11)
N1 C6 C7 C8 179.55(15)
N1 C6 C11 C10 -179.18(15)
N2 C4 C5 O2 -82.51(17)
N2 C18 C19 C20 179.83(14)
N2 C18 C23 C22 -179.48(15)
N3 N4 C4 N2 0.43(17)
N3 N4 C4 C5 -178.18(14)
N4 N3 C3 S1 177.46(12)
N4 N3 C3 N2 0.00(17)
N4 C4 C5 O2 95.93(18)
N5 C9 C10 C11 -179.59(14)
C1 N1 C6 C7 -172.03(15)
C1 N1 C6 C11 8.3(3)
C2 S1 C3 N2 -168.01(12)
C2 S1 C3 N3 14.74(16)
C3 S1 C2 C1 135.78(12)
C3 N2 C4 N4 -0.42(17)
C3 N2 C4 C5 178.23(14)
C3 N2 C18 C19 55.5(2)
C3 N2 C18 C23 -125.25(17)
C3 N3 N4 C4 -0.26(17)
C4 N2 C3 S1 -177.45(11)
C4 N2 C3 N3 0.25(17)
C4 N2 C18 C19 -118.08(17)
C4 N2 C18 C23 61.2(2)
C5 O2 C12 C13 -5.5(2)
C5 O2 C12 C17 174.82(14)
C6 N1 C1 O1 0.1(3)
C6 N1 C1 C2 -177.91(15)
C6 C7 C8 C9 -0.4(2)
C7 C6 C11 C10 1.1(2)
C7 C8 C9 N5 -179.99(15)
C7 C8 C9 C10 1.2(2)
C8 C9 C10 C11 -0.8(3)
C9 C10 C11 C6 -0.4(2)
C11 C6 C7 C8 -0.7(2)
C12 O2 C5 C4 165.95(13)
C12 C13 C14 C15 -1.0(3)
C13 C12 C17 C16 0.6(3)
C13 C14 C15 C16 0.9(3)
C13 C14 C15 C24 -177.84(17)
C14 C15 C16 C17 0.0(3)
C15 C16 C17 C12 -0.7(3)
C17 C12 C13 C14 0.2(2)
C18 N2 C3 S1 7.8(2)
C18 N2 C3 N3 -174.54(14)
C18 N2 C4 N4 174.33(14)
C18 N2 C4 C5 -7.0(2)
C18 C19 C20 C21 -0.8(3)
C19 C18 C23 C22 -0.3(2)
C19 C20 C21 C22 0.6(3)
C20 C21 C22 C23 -0.2(3)
C21 C22 C23 C18 0.1(3)
C23 C18 C19 C20 0.6(2)
C24 C15 C16 C17 178.74(18)

_cod_database_fobs_code 1544252
