#------------------------------------------------------------------------------
#$Date: 2017-02-04 04:17:45 +0200 (Sat, 04 Feb 2017) $
#$Revision: 191361 $
#$URL: file:///home/coder/svn-repositories/cod/cif/1/54/48/1544839.cif $
#------------------------------------------------------------------------------
#
# This file is available in the Crystallography Open Database (COD),
# http://www.crystallography.net/
#
# All data on this site have been placed in the public domain by the
# contributors.
#
data_1544839
loop_
_publ_author_name
'Chen, Changjuan'
'Cui, Yaqin'
'Mao, Xiaoyang'
'Pan, Xiaobo'
'Wu, Jincai'
_publ_section_title
;
 Suppressing Cyclic Polymerization for Isoselective Synthesis of
 High-Molecular-Weight Linear Polylactide Catalyzed by Sodium/Potassium
 Sulfonamidate Complexes
;
_journal_issue                   1
_journal_name_full               Macromolecules
_journal_page_first              83
_journal_paper_doi               10.1021/acs.macromol.6b02271
_journal_volume                  50
_journal_year                    2017
_chemical_formula_moiety         'C30 H36 N Na O9 S, C6 H6'
_chemical_formula_sum            'C36 H42 N Na O9 S'
_chemical_formula_weight         687.75
_space_group_crystal_system      triclinic
_space_group_IT_number           2
_space_group_name_Hall           '-P 1'
_space_group_name_H-M_alt        'P -1'
_symmetry_space_group_name_Hall  '-P 1'
_symmetry_space_group_name_H-M   'P -1'
_atom_sites_solution_hydrogens   geom
_atom_sites_solution_primary     direct
_audit_creation_date             2016-06-16
_audit_creation_method
;
Olex2 1.2
(compiled 2016.02.19 svn.r3266 for OlexSys, GUI svn.r5155)
;
_cell_angle_alpha                94.526(4)
_cell_angle_beta                 92.174(4)
_cell_angle_gamma                117.703(5)
_cell_formula_units_Z            2
_cell_length_a                   9.6525(4)
_cell_length_b                   10.0128(5)
_cell_length_c                   20.1980(10)
_cell_measurement_reflns_used    3582
_cell_measurement_temperature    293.26(10)
_cell_measurement_theta_max      28.2150
_cell_measurement_theta_min      3.7060
_cell_volume                     1716.78(16)
_computing_cell_refinement
;
CrysAlisPro, Agilent Technologies,
Version 1.171.37.33 (release 27-03-2014 CrysAlis171 .NET)
(compiled Mar 27 2014,17:12:48)
;
_computing_data_collection
;
CrysAlisPro, Agilent Technologies,
Version 1.171.37.33 (release 27-03-2014 CrysAlis171 .NET)
(compiled Mar 27 2014,17:12:48)
;
_computing_data_reduction
;
CrysAlisPro, Agilent Technologies,
Version 1.171.37.33 (release 27-03-2014 CrysAlis171 .NET)
(compiled Mar 27 2014,17:12:48)
;
_computing_molecular_graphics    'Olex2 (Dolomanov et al., 2009)'
_computing_publication_material  'Olex2 (Dolomanov et al., 2009)'
_computing_structure_refinement  'ShelXL (Sheldrick, 2015)'
_computing_structure_solution    'ShelXS (Sheldrick, 2008)'
_diffrn_ambient_environment      air
_diffrn_ambient_temperature      293.26(10)
_diffrn_detector                 'CCD plate'
_diffrn_detector_area_resol_mean 16.0733
_diffrn_detector_type            Eos
_diffrn_measured_fraction_theta_full 0.996
_diffrn_measured_fraction_theta_max 0.879
_diffrn_measurement_details
;
#__ type_ start__ end____ width___ exp.time_
  1 omega   35.00   86.45   1.0500   10.0000
omega____ theta____ kappa____ phi______ frames
    -       22.7086  -19.0000   60.0000 49

#__ type_ start__ end____ width___ exp.time_
  2 omega    3.00   66.00   1.0500   10.0000
omega____ theta____ kappa____ phi______ frames
    -       22.7086  -99.0000  -90.0000 60

#__ type_ start__ end____ width___ exp.time_
  3 omega  -19.00   21.95   1.0500   10.0000
omega____ theta____ kappa____ phi______ frames
    -      -19.3492  -99.0000   60.0000 39

#__ type_ start__ end____ width___ exp.time_
  4 omega  -51.00   93.90   1.0500   10.0000
omega____ theta____ kappa____ phi______ frames
    -       22.7086    0.0000 -180.0000 138

#__ type_ start__ end____ width___ exp.time_
  5 omega   -9.00   72.90   1.0500   10.0000
omega____ theta____ kappa____ phi______ frames
    -       22.7086   77.0000   30.0000 78

#__ type_ start__ end____ width___ exp.time_
  6 omega   62.00   88.25   1.0500   10.0000
omega____ theta____ kappa____ phi______ frames
    -       22.7086  178.0000 -180.0000 25

#__ type_ start__ end____ width___ exp.time_
  7 omega -101.00  -55.85   1.0500   10.0000
omega____ theta____ kappa____ phi______ frames
    -      -19.3492  178.0000   60.0000 43
;
_diffrn_measurement_device       'four-circle diffractometer'
_diffrn_measurement_device_type  'SuperNova, Dual, Cu at zero, Eos'
_diffrn_measurement_method       '\w scans'
_diffrn_orient_matrix_UB_11      -0.0136088000
_diffrn_orient_matrix_UB_12      -0.0688166000
_diffrn_orient_matrix_UB_13      -0.0184962000
_diffrn_orient_matrix_UB_21      -0.0411945000
_diffrn_orient_matrix_UB_22      0.0141144000
_diffrn_orient_matrix_UB_23      -0.0260533000
_diffrn_orient_matrix_UB_31      0.0711057000
_diffrn_orient_matrix_UB_32      0.0392933000
_diffrn_orient_matrix_UB_33      -0.0151329000
_diffrn_radiation_monochromator  mirror
_diffrn_radiation_probe          x-ray
_diffrn_radiation_type           MoK\a
_diffrn_radiation_wavelength     0.71073
_diffrn_reflns_av_R_equivalents  0.0285
_diffrn_reflns_av_unetI/netI     0.0528
_diffrn_reflns_Laue_measured_fraction_full 0.996
_diffrn_reflns_Laue_measured_fraction_max 0.879
_diffrn_reflns_limit_h_max       12
_diffrn_reflns_limit_h_min       -11
_diffrn_reflns_limit_k_max       12
_diffrn_reflns_limit_k_min       -12
_diffrn_reflns_limit_l_max       27
_diffrn_reflns_limit_l_min       -27
_diffrn_reflns_number            14094
_diffrn_reflns_point_group_measured_fraction_full 0.996
_diffrn_reflns_point_group_measured_fraction_max 0.879
_diffrn_reflns_theta_full        26.000
_diffrn_reflns_theta_max         28.656
_diffrn_reflns_theta_min         3.266
_diffrn_source                   'SuperNova (Mo) X-ray Source'
_exptl_absorpt_coefficient_mu    0.163
_exptl_absorpt_correction_T_max  1.00000
_exptl_absorpt_correction_T_min  0.69745
_exptl_absorpt_correction_type   multi-scan
_exptl_absorpt_process_details
;
CrysAlisPro, Agilent Technologies,
Version 1.171.37.33 (release 27-03-2014 CrysAlis171 .NET)
(compiled Mar 27 2014,17:12:48)
Empirical absorption correction using spherical harmonics,
 implemented in SCALE3 ABSPACK scaling algorithm.
;
_exptl_crystal_colour            colourless
_exptl_crystal_colour_primary    colourless
_exptl_crystal_density_diffrn    1.330
_exptl_crystal_description       block
_exptl_crystal_F_000             728
_exptl_crystal_size_max          0.28
_exptl_crystal_size_mid          0.22
_exptl_crystal_size_min          0.2
_refine_diff_density_max         0.977
_refine_diff_density_min         -0.663
_refine_diff_density_rms         0.063
_refine_ls_extinction_method     none
_refine_ls_goodness_of_fit_ref   1.020
_refine_ls_hydrogen_treatment    constr
_refine_ls_matrix_type           full
_refine_ls_number_parameters     543
_refine_ls_number_reflns         7762
_refine_ls_number_restraints     220
_refine_ls_restrained_S_all      1.050
_refine_ls_R_factor_all          0.1019
_refine_ls_R_factor_gt           0.0741
_refine_ls_shift/su_max          0.000
_refine_ls_shift/su_mean         0.000
_refine_ls_structure_factor_coef Fsqd
_refine_ls_weighting_details
'w=1/[\s^2^(Fo^2^)+(0.0655P)^2^+2.5662P] where P=(Fo^2^+2Fc^2^)/3'
_refine_ls_weighting_scheme      calc
_refine_ls_wR_factor_gt          0.1714
_refine_ls_wR_factor_ref         0.1929
_reflns_Friedel_coverage         0.000
_reflns_number_gt                5628
_reflns_number_total             7762
_reflns_threshold_expression     'I > 2\s(I)'
_cod_data_source_file            ma6b02271_si_003.cif
_cod_data_source_block           chenchj_0614_2
_cod_depositor_comments
'Adding full bibliography for 1544839--1544842.cif.'
_cod_database_code               1544839
_shelx_space_group_comment
;
The symmetry employed for this shelxl refinement is uniquely defined
by the following loop, which should always be used as a source of
symmetry information in preference to the above space-group names.
They are only intended as comments.
;
_reflns_odcompleteness_completeness 99.76
_reflns_odcompleteness_iscentric 1
_reflns_odcompleteness_theta     26.32
_olex2_refinement_description
;
1. Fixed Uiso
 At 1.2 times of:
  All C(H) groups, All C(H,H) groups, All C(H,H,H,H) groups
 At 1.5 times of:
  All C(H,H,H) groups
2. Rigid bond restraints
 O5', O6', O7', O8', O9', C22, C23', C24', C25', C26', C27', C28, C29', C30, C31
 with sigma for 1-2 distances of 0.01 and sigma for 1-3 distances of 0.01
 O5, O6, O7, O8, O9, C23, C24, C25, C26, C27, C29, C31'
 with sigma for 1-2 distances of 0.01 and sigma for 1-3 distances of 0.01
 O3, C16, C17, C18, C19
 with sigma for 1-2 distances of 0.01 and sigma for 1-3 distances of 0.01
3. Uiso/Uaniso restraints and constraints
O3 \\sim C16 \\sim C17 \\sim C18 \\sim C19: within 2A with sigma of 0.01 and
sigma for terminal atoms of 0.02
O5 \\sim O6 \\sim O7 \\sim O8 \\sim O9 \\sim C23 \\sim C24 \\sim C25 \\sim C26
\\sim C27 \\sim C29 \\sim C31': within 2A with sigma of 0.01 and sigma for
terminal atoms of 0.02
O5' \\sim O6' \\sim O7' \\sim O8' \\sim O9' \\sim C22 \\sim C23' \\sim C24'
\\sim C25' \\sim C26' \\sim C27' \\sim C28 \\sim C29' \\sim C30 \\sim C31:
within 2A with sigma of 0.01 and sigma for terminal atoms of 0.02
4. Others
 Sof(O5')=Sof(O6')=Sof(O7')=Sof(O8')=Sof(O9')=Sof(H22C)=Sof(H22D)=Sof(C23')=
 Sof(H23C)=Sof(H23D)=Sof(C24')=Sof(H24C)=Sof(H24D)=Sof(C25')=Sof(H25C)=
 Sof(H25D)=Sof(C26')=Sof(H26C)=Sof(H26D)=Sof(C27')=Sof(H27C)=Sof(H27D)=
 Sof(H28C)=Sof(H28D)=Sof(C29')=Sof(H29C)=Sof(H29D)=Sof(H30C)=Sof(H30D)=Sof(C31)=
 Sof(H31A)=Sof(H31B)=1-FVAR(1)
 Sof(O5)=Sof(O6)=Sof(O7)=Sof(O8)=Sof(O9)=Sof(H22A)=Sof(H22B)=Sof(C23)=
 Sof(H23A)=Sof(H23B)=Sof(C24)=Sof(H24A)=Sof(H24B)=Sof(C25)=Sof(H25A)=Sof(H25B)=
 Sof(C26)=Sof(H26A)=Sof(H26B)=Sof(C27)=Sof(H27A)=Sof(H27B)=Sof(H28A)=Sof(H28B)=
 Sof(C29)=Sof(H29A)=Sof(H29B)=Sof(H30A)=Sof(H30B)=Sof(C31')=Sof(H31C)=Sof(H31D)=
 FVAR(1)
5.a Ternary CH refined with riding coordinates:
 C9(H9)
5.b Secondary CH2 refined with riding coordinates:
 C22(H22C,H22D), C22(H22A,H22B), C23(H23A,H23B), C23'(H23C,H23D), C24(H24A,
 H24B), C24'(H24C,H24D), C25(H25A,H25B), C25'(H25C,H25D), C26(H26A,H26B),
 C26'(H26C,H26D), C27(H27A,H27B), C27'(H27C,H27D), C28(H28C,H28D), C28(H28A,
 H28B), C29(H29A,H29B), C29'(H29C,H29D), C30(H30C,H30D), C30(H30A,H30B),
 C31(H31A,H31B), C31'(H31C,H31D)
5.c Aromatic/amide H refined with riding coordinates:
 C2(H2), C3(H3), C5(H5), C6(H6), C11(H11), C12(H12), C13(H13), C14(H14),
 C17(H17), C18(H18), C19(H19), C20(H20), C32(H32), C33(H33), C34(H34), C35(H35),
  C36(H36), C37(H37)
5.d Idealised Me refined as rotating group:
 C7(H7A,H7B,H7C)
;
_shelx_res_file
;
    chenchj_0614_2.res created by SHELXL-2014/7

TITL chenchj_0614_2 in P-1 #2
REM reset to P-1 #2
CELL 0.71073 9.652499 10.012804 20.197978 94.5256 92.1735 117.7031
ZERR 2 0.000434 0.00049 0.001031 0.0041 0.0039 0.0048
LATT 1
SFAC C H N Na O S
UNIT 72 84 2 2 18 2
DELU O5' O6' O7' O8' O9' C22 C23' C24' C25' C26' C27' C28 C29' > C31
DELU O5 O6 O7 O8 O9 C23 C24 C25 C26 C27 C29 C31'
DELU O3 C16 > C19
SIMU 0.01 0.02 2 O3 C16 > C19
SIMU 0.01 0.02 2 O5 O6 O7 O8 O9 C23 C24 C25 C26 C27 C29 C31'
SIMU 0.01 0.02 2 O5' O6' O7' O8' O9' C22 C23' C24' C25' C26' C27' C28 C29' > =
 C31

L.S. 20
BOND
MORE -1
BOND $H
CONF
fmap 2
acta 52
OMIT -6 6 6
OMIT -3 6 3
OMIT -7 7 7
OMIT -6 6 9
OMIT -8 8 8
OMIT 0 -6 3
OMIT 0 -3 18
OMIT -3 6 6
OMIT -1 0 9
OMIT -4 8 4
OMIT -5 5 5
OMIT 3 2 1
REM <olex2.extras>
REM <HklSrc "%.\\chenchj_0614_2.hkl">
REM </olex2.extras>

WGHT    0.065500    2.566200
FVAR       5.03286   0.43171
S1    6    0.022963    0.111152    0.201726    11.00000    0.02163    0.02449 =
         0.04329    0.01002    0.00264    0.00765
NA1   4    0.195427   -0.059078    0.147057    11.00000    0.03960    0.02956 =
         0.03513   -0.00137   -0.00284    0.01632
O1    5   -0.046732   -0.028670    0.156444    11.00000    0.03098    0.02656 =
         0.04899    0.00364   -0.00667    0.00290
O2    5   -0.024433    0.224669    0.187592    11.00000    0.02899    0.03784 =
         0.06012    0.02211    0.00798    0.01813
O3    5    0.625714    0.555407    0.268559    11.00000    0.07847    0.04326 =
         0.15939    0.04942   -0.08502   -0.02521
O4    5   -0.202025   -0.069101    0.465910    11.00000    0.05036    0.04488 =
         0.04778    0.01666    0.01505    0.02390
PART 1
O5    5    0.490580    0.058449    0.124349    21.00000    0.03855    0.05066 =
         0.04380   -0.00975   -0.00028    0.02235
PART 0
PART 2
O5'   5    0.414699   -0.037507    0.208153   -21.00000    0.04209    0.07134 =
         0.05123    0.01384    0.00189    0.03065
PART 0
PART 1
O6    5    0.360006   -0.131993    0.220527    21.00000    0.06408    0.06802 =
         0.04043   -0.00109   -0.00826    0.04849
PART 0
PART 2
O6'   5    0.124508   -0.265548    0.225882   -21.00000    0.06056    0.04289 =
         0.06487    0.01613    0.01573    0.03374
PART 0
PART 1
O7    5    0.046364   -0.315292    0.185031    21.00000    0.06254    0.02805 =
         0.09861    0.00858   -0.00727    0.01733
PART 0
PART 2
O7'   5    0.011773   -0.316594    0.093777   -21.00000    0.04929    0.04467 =
         0.07175   -0.00043   -0.00447    0.02175
PART 0
PART 1
O8    5    0.078701   -0.255534    0.053079    21.00000    0.05888    0.05959 =
         0.08405   -0.03238   -0.04857    0.03373
PART 0
PART 2
O8'   5    0.147851   -0.054996    0.028713   -21.00000    0.05306    0.06731 =
         0.03306    0.00028    0.00217    0.03653
PART 0
PART 1
O9    5    0.260122    0.048392    0.039512    21.00000    0.08581    0.07683 =
         0.02903   -0.00193    0.00063    0.06218
PART 0
PART 2
O9'   5    0.450005    0.047834    0.086280   -21.00000    0.04769    0.04005 =
         0.03916    0.00452    0.00430    0.02208
PART 0
N1    3    0.202753    0.166698    0.207443    11.00000    0.02176    0.01884 =
         0.03177    0.00004    0.00200    0.00634
C1    1   -0.050789    0.054447    0.280229    11.00000    0.02132    0.02512 =
         0.04816    0.01159    0.00579    0.00909
C2    1   -0.106739    0.133712    0.319988    11.00000    0.03214    0.02551 =
         0.04421    0.00443   -0.00261    0.01331
AFIX  43
H2    2   -0.110048    0.218111    0.305452    11.00000   -1.20000
AFIX   0
C3    1   -0.157883    0.088814    0.381191    11.00000    0.04169    0.03275 =
         0.04433    0.00097    0.00262    0.02156
AFIX  43
H3    2   -0.196365    0.142589    0.407444    11.00000   -1.20000
AFIX   0
C4    1   -0.152376   -0.035757    0.403860    11.00000    0.02673    0.03118 =
         0.04594    0.00947    0.00548    0.00866
C5    1   -0.096353   -0.115639    0.364351    11.00000    0.04775    0.03480 =
         0.06918    0.02780    0.02770    0.02555
AFIX  43
H5    2   -0.092184   -0.199509    0.379054    11.00000   -1.20000
AFIX   0
C6    1   -0.046609   -0.070778    0.303054    11.00000    0.05086    0.03919 =
         0.06935    0.02622    0.03330    0.03061
AFIX  43
H6    2   -0.009569   -0.125432    0.276510    11.00000   -1.20000
AFIX   0
C7    1   -0.194064   -0.194382    0.491817    11.00000    0.05343    0.05129 =
         0.05769    0.02277    0.00993    0.02259
AFIX 137
H7A   2   -0.255883   -0.285107    0.462234    11.00000   -1.50000
H7B   2   -0.234102   -0.206784    0.534945    11.00000   -1.50000
H7C   2   -0.086860   -0.175390    0.495669    11.00000   -1.50000
AFIX   0
C9    1    0.303759    0.318496    0.240901    11.00000    0.02796    0.01929 =
         0.02793   -0.00036    0.00022    0.01181
AFIX  13
H9    2    0.237135    0.355125    0.262879    11.00000   -1.20000
AFIX   0
C10   1    0.418773    0.316895    0.293694    11.00000    0.03439    0.02965 =
         0.02189   -0.00340   -0.00098    0.01929
C11   1    0.376842    0.202402    0.334510    11.00000    0.04020    0.06445 =
         0.04764    0.02886    0.00245    0.01663
AFIX  43
H11   2    0.276935    0.119583    0.327739    11.00000   -1.20000
AFIX   0
C12   1    0.480398    0.208172    0.385371    11.00000    0.06194    0.08379 =
         0.05372    0.03963    0.00112    0.03031
AFIX  43
H12   2    0.448051    0.130285    0.412697    11.00000   -1.20000
AFIX   0
C13   1    0.627802    0.325121    0.396012    11.00000    0.06505    0.05763 =
         0.03568   -0.00554   -0.01441    0.04316
AFIX  43
H13   2    0.696230    0.328167    0.430480    11.00000   -1.20000
AFIX   0
C14   1    0.674592    0.438236    0.355600    11.00000    0.05848    0.03511 =
         0.07632   -0.00398   -0.03885    0.01801
AFIX  43
H14   2    0.776349    0.518191    0.361616    11.00000   -1.20000
AFIX   0
C15   1    0.569536    0.433862    0.305180    11.00000    0.05001    0.02338 =
         0.06486    0.00243   -0.02880    0.01094
C16   1    0.546795    0.539936    0.207829    11.00000    0.04158    0.04342 =
         0.13293    0.05086   -0.04212   -0.00988
C17   1    0.629878    0.642534    0.162894    11.00000    0.04105    0.08441 =
         0.18345    0.09616   -0.03628   -0.01862
AFIX  43
H17   2    0.734092    0.714384    0.174111    11.00000   -1.20000
AFIX   0
C18   1    0.558200    0.636930    0.103088    11.00000    0.04081    0.11890 =
         0.16189    0.11543   -0.00143    0.00318
AFIX  43
H18   2    0.612339    0.706754    0.073649    11.00000   -1.20000
AFIX   0
C19   1    0.408832    0.530570    0.086164    11.00000    0.04236    0.10860 =
         0.08771    0.07136    0.01449    0.02416
AFIX  43
H19   2    0.359711    0.527638    0.045163    11.00000   -1.20000
AFIX   0
C20   1    0.327652    0.425272    0.129481    11.00000    0.03065    0.04721 =
         0.04329    0.01806    0.00311    0.01053
AFIX  43
H20   2    0.225693    0.350235    0.116314    11.00000   -1.20000
AFIX   0
C21   1    0.394522    0.429113    0.191704    11.00000    0.02633    0.02245 =
         0.04613    0.00956   -0.00473    0.00611
C22   1    0.569090    0.066900    0.189623    11.00000    0.03374    0.08324 =
         0.05641   -0.01229   -0.00738    0.02653
PART 2
AFIX  23
H22C  2    0.630415    0.137466    0.228019   -21.00000   -1.20000
H22D  2    0.623557    0.010851    0.174787   -21.00000   -1.20000
AFIX  23
PART 0
PART 1
H22A  2    0.681657    0.114870    0.186346    21.00000   -1.20000
H22B  2    0.547629    0.130412    0.221951    21.00000   -1.20000
AFIX   0
C23   1    0.524232   -0.065962    0.211127    21.00000    0.05479    0.08676 =
         0.05276   -0.01082   -0.01746    0.05330
AFIX  23
H23A  2    0.583539   -0.054528    0.252931    21.00000   -1.20000
H23B  2    0.543364   -0.131448    0.178949    21.00000   -1.20000
AFIX   0
PART 0
PART 2
C23'  1    0.400123   -0.130753    0.255918   -21.00000    0.06778    0.08920 =
         0.07102    0.03743   -0.00476    0.03165
AFIX  23
H23C  2    0.363768   -0.099101    0.295294   -21.00000   -1.20000
H23D  2    0.501823   -0.123198    0.268256   -21.00000   -1.20000
AFIX   0
PART 0
PART 1
C24   1    0.248464   -0.268646    0.253403    21.00000    0.08369    0.08356 =
         0.08215    0.03319   -0.01652    0.03465
AFIX  23
H24A  2    0.295015   -0.336211    0.251681    21.00000   -1.20000
H24B  2    0.257507   -0.231716    0.300052    21.00000   -1.20000
AFIX   0
PART 0
PART 2
C24'  1    0.295271   -0.279417    0.233117   -21.00000    0.08153    0.06754 =
         0.06188    0.02239   -0.00210    0.05442
AFIX  23
H24C  2    0.290605   -0.348619    0.265016   -21.00000   -1.20000
H24D  2    0.320301   -0.310805    0.190526   -21.00000   -1.20000
AFIX   0
PART 0
PART 1
C25   1    0.126417   -0.340170    0.240943    21.00000    0.08114    0.05153 =
         0.08851    0.01784    0.00334    0.03551
AFIX  23
H25A  2    0.072977   -0.335376    0.280071    21.00000   -1.20000
H25B  2    0.110574   -0.443340    0.233161    21.00000   -1.20000
AFIX   0
PART 0
PART 2
C25'  1    0.019051   -0.407392    0.196745   -21.00000    0.08470    0.04400 =
         0.09569    0.01583   -0.00232    0.02050
AFIX  23
H25C  2   -0.084909   -0.427323    0.208362   -21.00000   -1.20000
H25D  2    0.042759   -0.480782    0.216145   -21.00000   -1.20000
AFIX   0
PART 0
PART 1
C26   1   -0.044442   -0.425667    0.139042    21.00000    0.08690    0.04668 =
         0.10517   -0.00923   -0.01324   -0.00496
AFIX  23
H26A  2   -0.147479   -0.480094    0.155169    21.00000   -1.20000
H26B  2   -0.001834   -0.496096    0.133100    21.00000   -1.20000
AFIX   0
PART 0
PART 2
C26'  1    0.013791   -0.433562    0.125832   -21.00000    0.04793    0.02499 =
         0.10392   -0.00304   -0.00660    0.01615
AFIX  23
H26C  2    0.104656   -0.444927    0.114269   -21.00000   -1.20000
H26D  2   -0.079366   -0.527689    0.110099   -21.00000   -1.20000
AFIX   0
PART 0
PART 1
C27   1   -0.062298   -0.381009    0.077341    21.00000    0.08189    0.06534 =
         0.10194   -0.02238   -0.03164   -0.00180
AFIX  23
H27A  2   -0.144058   -0.350552    0.078868    21.00000   -1.20000
H27B  2   -0.099650   -0.469038    0.044504    21.00000   -1.20000
AFIX   0
PART 0
PART 2
C27'  1    0.007745   -0.320663    0.030049   -21.00000    0.09441    0.07563 =
         0.08755   -0.00317   -0.02884    0.01420
AFIX  23
H27C  2   -0.091701   -0.405189    0.011917   -21.00000   -1.20000
H27D  2    0.089740   -0.343805    0.015742   -21.00000   -1.20000
AFIX   0
PART 0
C28   1    0.024946   -0.191699    0.000196    11.00000    0.07064    0.08162 =
         0.05410   -0.01380   -0.02226    0.04171
PART 2
AFIX  23
H28C  2    0.040416   -0.205566   -0.046512   -21.00000   -1.20000
H28D  2   -0.072083   -0.185371    0.002352   -21.00000   -1.20000
AFIX  23
PART 0
PART 1
H28A  2   -0.028204   -0.266250   -0.038081    21.00000   -1.20000
H28B  2   -0.044146   -0.153016    0.016574    21.00000   -1.20000
AFIX   0
C29   1    0.175375   -0.068342   -0.015895    21.00000    0.10655    0.09463 =
         0.03119   -0.00533   -0.00449    0.06909
AFIX  23
H29A  2    0.241720   -0.111709   -0.030718    21.00000   -1.20000
H29B  2    0.155309   -0.021183   -0.052645    21.00000   -1.20000
AFIX   0
PART 0
PART 2
C29'  1    0.276057   -0.000471   -0.010817   -21.00000    0.05986    0.06428 =
         0.04003    0.00990    0.01275    0.03367
AFIX  23
H29C  2    0.251172    0.036140   -0.050281   -21.00000   -1.20000
H29D  2    0.302143   -0.080475   -0.024670   -21.00000   -1.20000
AFIX   0
PART 0
C30   1    0.416383    0.131823    0.033487    11.00000    0.07454    0.07549 =
         0.05150    0.01970    0.01918    0.03302
PART 2
AFIX  23
H30C  2    0.506365    0.182931    0.008109   -21.00000   -1.20000
H30D  2    0.386762    0.205358    0.053227   -21.00000   -1.20000
AFIX  23
PART 0
PART 1
H30A  2    0.433123    0.214374    0.007279    21.00000   -1.20000
H30B  2    0.453580    0.068366    0.009676    21.00000   -1.20000
AFIX   0
PART 0
PART 2
C31   1    0.554110    0.147257    0.138284   -21.00000    0.03832    0.04690 =
         0.05465   -0.00722    0.00620    0.01638
AFIX  23
H31A  2    0.516437    0.216580    0.155481   -21.00000   -1.20000
H31B  2    0.655995    0.206588    0.121972   -21.00000   -1.20000
AFIX   0
PART 0
PART 1
C31'  1    0.508193    0.194616    0.097994    21.00000    0.06015    0.04564 =
         0.06885   -0.00279    0.02523    0.02190
AFIX  23
H31C  2    0.617346    0.263345    0.092724    21.00000   -1.20000
H31D  2    0.465065    0.246927    0.125973    21.00000   -1.20000
AFIX   0

PART 0
C32   1    0.397267    0.652267    0.409631    11.00000    0.08075    0.14660 =
         0.04994    0.01817    0.00879    0.08486
AFIX  43
H32   2    0.490273    0.652589    0.398921    11.00000   -1.20000
AFIX   0
C33   1    0.396095    0.784613    0.427808    11.00000    0.04342    0.08342 =
         0.05527    0.00640    0.00395    0.00523
AFIX  43
H33   2    0.488695    0.875684    0.430122    11.00000   -1.20000
AFIX   0
C34   1    0.259388    0.785166    0.442803    11.00000    0.07475    0.04169 =
         0.04686    0.01126    0.01112    0.02762
AFIX  43
H34   2    0.258912    0.876485    0.454954    11.00000   -1.20000
AFIX   0
C35   1    0.124039    0.651901    0.439920    11.00000    0.04422    0.06293 =
         0.04115    0.01133    0.00574    0.02732
AFIX  43
H35   2    0.031043    0.651904    0.450389    11.00000   -1.20000
AFIX   0
C36   1    0.125093    0.518968    0.421727    11.00000    0.07940    0.03920 =
         0.04231    0.00408    0.00882    0.00857
AFIX  43
H36   2    0.032279    0.428063    0.419276    11.00000   -1.20000
AFIX   0
C37   1    0.261540    0.517721    0.406983    11.00000    0.15300    0.07954 =
         0.03720    0.01335    0.02220    0.08720
AFIX  43
H37   2    0.262233    0.426343    0.395257    11.00000   -1.20000
AFIX   0
HKLF 4

REM  chenchj_0614_2 in P-1 #2
REM R1 =  0.0741 for    5628 Fo > 4sig(Fo)  and  0.1019 for all    7762 data
REM    543 parameters refined using    220 restraints

END

WGHT      0.0653      2.5736

REM Highest difference peak  0.977,  deepest hole -0.663,  1-sigma level  0.063
Q1    1  -0.0863 -0.2817  0.0459  11.00000  0.05    0.98
Q2    1   0.6014  0.6861  0.2016  11.00000  0.05    0.82
Q3    1   0.5630  0.6967  0.1371  11.00000  0.05    0.65
Q4    1   0.5754  0.5614  0.3000  11.00000  0.05    0.65
Q5    1   0.2543 -0.1997  0.2788  11.00000  0.05    0.45
Q6    1   0.5179  0.5647  0.2397  11.00000  0.05    0.34
Q7    1  -0.0372  0.0633  0.2410  11.00000  0.05    0.31
Q8    1   0.3857 -0.2168  0.2333  11.00000  0.05    0.28
Q9    1  -0.1426 -0.1182  0.3249  11.00000  0.05    0.26
Q10   1   0.2671  0.7886  0.4078  11.00000  0.05    0.24
Q11   1  -0.0003 -0.4885  0.2373  11.00000  0.05    0.24
Q12   1   0.1271  0.5767  0.4473  11.00000  0.05    0.23
Q13   1   0.1353 -0.2301  0.2909  11.00000  0.05    0.23
Q14   1   0.3412  0.3834  0.2185  11.00000  0.05    0.22
Q15   1   0.3015  0.0754  0.2935  11.00000  0.05    0.22
Q16   1   0.3736  0.3182  0.2663  11.00000  0.05    0.22
Q17   1   0.4027  0.4636  0.0834  11.00000  0.05    0.21
Q18   1   0.3384  0.1267  0.0169  11.00000  0.05    0.21
Q19   1   0.0465 -0.3238  0.1490  11.00000  0.05    0.20
Q20   1   0.3583  0.4299  0.1635  11.00000  0.05    0.20
;
_shelx_res_checksum              16610
_shelx_hkl_file
;
   0   0   4 2049.50 118.581   4
   0   0  -4 1760.03 115.513   3
   0   0   4 1990.84 126.647   5
   0   0   5 260553. 4076.93   5
   0   0   5 261857. 4047.15   4
   0   0   6 2209.31 170.307   5
   0   0   6 1685.79 70.7714   7
   0   0   6 2131.81 154.584   4
   0   0   7 6632.44 165.796   7
   0   0   7 7835.81 332.177   5
   0   0   7 7403.54 309.057   4
   0   0   8 18139.0 557.890   5
   0   0   8 17896.2 537.900   4
   0   0   8 15479.9 315.758   7
   0   0   9 2904.66 218.545   4
   0   0   9 3214.28 236.035   5
   0   0   9 2351.92 93.3165   7
   0   0  10 49545.7 1095.27   5
   0   0  10 46191.2 1052.05   4
   0   0  11 4779.15 322.096   5
   0   0  11 5197.20 329.104   4
   0   0  12 15024.9 612.406   5
   0   0  12 14536.2 589.402   4
   0   0  13 479.331 133.337   5
   0   0  13 555.962 126.242   4
   0   0  14 4953.37 362.635   4
   0   0  14 4459.93 355.260   5
   0   0  15 6849.87 461.246   5
   0   0  15 6648.07 441.463   4
   0   0  16 2945.90 307.966   4
   0   0  16 2522.17 296.848   5
   0   0  17 12481.9 675.891   5
   0   0  17 12379.8 658.424   4
   0   0  18 10503.5 631.183   4
   0   0  18 12267.0 690.152   5
   0   0  19 1355.94 251.333   5
   0   0  19 1332.70 239.452   4
   0   0  20 6449.57 530.118   4
   0   0  20 6882.26 550.431   5
   0   0  21 1865.43 308.682   5
   0   0  21 2217.89 322.914   4
   0   0  22 769.948 214.734   5
   0   0  22 470.560 174.725   4
   0   0  23 665.730 202.861   4
   0   0  23 762.802 217.120   5
   0   0  24 307.929 157.267   5
   0   0  24 288.123 135.066   4
   0   0 -25 1275.13 288.864   6
   0   0  25 813.881 229.751   4
   0   0  25 816.749 242.906   5
   0   0 -26 279.685 160.250   6
   0   0  26-188.795 149.200   4
   0   0 -27 322.277 188.122   6
   0  -1  27 301.858 179.815   4
   0  -1  26 421.572 203.039   4
   0   1 -26 1329.13 300.657   6
   0  -1  25 276.641 165.002   5
   0   1 -25 559.364 220.633   6
   0  -1  25 159.830 126.619   4
   0  -1  24-25.7469 132.542   5
   0  -1  24-56.2814 98.6778   4
   0  -1  23 3981.21 458.602   4
   0  -1  23 4750.14 497.041   5
   0  -1  22-323.591 149.383   4
   0  -1  22-72.2730 92.1566   5
   0  -1  21 753.607 190.180   5
   0  -1  21 571.216 177.751   4
   0  -1  20-54.4837 88.0204   4
   0  -1  20-39.6415 117.630   5
   0  -1  19 952.272 197.454   4
   0  -1  19 947.106 209.161   5
   0  -1  18 349.330 125.031   4
   0  -1  18 560.367 171.901   5
   0  -1  17 8692.39 548.607   5
   0  -1  17 8052.01 524.940   4
   0  -1  16 277.863 108.638   4
   0  -1  16-39.8865 102.777   5
   0  -1  15 351.789 114.867   4
   0  -1  15 401.765 124.353   5
   0  -1  14 3362.91 295.997   5
   0  -1  14 3241.09 290.993   4
   0  -1  13 5655.05 369.240   5
   0  -1  13 6003.65 380.134   4
   0  -1  12 12306.9 533.729   5
   0  -1  12 13048.6 550.276   4
   0  -1  11 30472.3 875.221   4
   0  -1  11 30476.6 870.147   5
   0  -1  10 407.622 98.8764   5
   0   1 -10 384.572 49.9275   7
   0  -1  10 331.744 83.4626   3
   0  -1  10 453.220 96.7884   4
   0  -1   9 25420.6 715.602   5
   0   1  -9 25132.9 517.522   7
   0  -1   9 25684.8 720.317   4
   0  -1   8 56.0443 40.7405   4
   0  -1   8 3.24023 37.7511   5
   0   1  -8-11.9264 18.9430   7
   0   1  -7 2491.23 116.617   7
   0  -1   7 2498.37 177.078   5
   0  -1   7 2501.69 176.787   4
   0  -1   6 329423. 5081.06   5
   0   1  -6 328877. 5063.69   4
   0  -1   6 326025. 5095.53   4
   0   1  -6 333988. 4928.59   7
   0   1  -5 19574.4 512.931   3
   0  -1   5 19736.8 497.646   4
   0  -1   5 19357.8 478.150   5
   0   1  -5 19659.8 410.527   7
   0  -1   4 110947. 1809.40   5
   0   1  -4 110710. 1871.71   3
   0  -1   4 113620. 1850.51   4
   0  -1   3 57130.9 1020.33   4
   0  -1   3 57091.1 958.218   5
   0   1   3 27980.4 612.131   1
   0   1   3 28020.8 590.972   5
   0   1   4 648.574 78.5122   1
   0   1   4 867.021 94.2180   5
   0   1   5 218892. 3463.31   4
   0   1   5 214022. 3473.33   5
   0   1   6 23908.3 623.032   4
   0   1   6 24386.2 643.885   5
   0   1   7 8116.32 356.106   5
   0   1   7 8074.61 341.432   4
   0   1   8 61.9909 48.6210   5
   0   1   8 25.7454 35.6322   4
   0   1   9 7454.02 363.452   4
   0   1   9 7224.35 371.264   5
   0   1  10 18.3649 55.6583   5
   0   1  10 22.8269 63.9213   4
   0   1  11 34846.5 934.924   4
   0   1  11 36495.6 985.033   5
   0   1  12 18247.2 689.831   5
   0   1  12 17260.5 645.189   4
   0   1  13 3127.91 296.465   5
   0   1  13 3247.38 285.305   4
   0   1  14 10142.5 538.295   4
   0   1  14 10213.8 555.182   5
   0   1  15 12996.4 653.782   5
   0   1  15 11729.1 602.587   4
   0   1  16 14480.2 721.146   5
   0   1  16 13389.1 678.359   4
   0   1  17 18140.0 840.175   5
   0   1  17 17440.6 803.194   4
   0   1  18 407.000 160.496   4
   0   1  18 332.186 174.694   5
   0   1  19 4210.65 437.002   5
   0   1  19 4115.84 408.561   4
   0   1  20 921.488 212.813   4
   0   1  20 1091.88 241.033   5
   0   1  21 147.424 125.049   5
   0   1  21 162.710 141.800   4
   0   1  22 734.720 206.071   5
   0   1  22 960.339 235.582   4
   0   1  23 505.384 185.582   5
   0   1  23 497.536 180.552   4
   0   1  24 1.80208 113.178   5
   0   1  24 133.085 139.770   4
   0  -1 -24 145.162 103.179   6
   0  -1 -25-633.016 209.674   6
   0   1  25-266.286 182.232   4
   0  -1 -26 202.715 203.683   6
   0  -2  26 1809.69 336.604   5
   0  -2  26 1299.94 297.179   4
   0   2 -25 1042.68 282.091   6
   0  -2  25 608.128 200.381   5
   0  -2  25 474.003 176.623   4
   0  -2  24 219.098 127.531   4
   0  -2  24 265.814 146.526   5
   0  -2  23 1208.66 262.193   5
   0  -2  23 1464.89 281.905   4
   0  -2  22 789.522 231.591   4
   0  -2  22 628.462 189.879   5
   0  -2  21 358.583 133.018   4
   0  -2  21 326.289 112.911   5
   0  -2  20-81.9356 97.9722   5
   0  -2  20 149.693 118.475   4
   0  -2  19 1535.67 240.471   5
   0  -2  19 1730.75 268.240   4
   0  -2  18 23738.1 980.475   4
   0  -2  18 24010.0 972.430   5
   0  -2  17 907.259 184.542   5
   0  -2  17 802.705 174.233   4
   0  -2  16-72.0554 103.267   5
   0  -2  16-78.7573 89.4481   4
   0  -2  15 1331.74 196.685   3
   0  -2  15 1575.75 218.986   4
   0  -2  15 1323.74 198.637   5
   0   2 -14 450.848 68.7465   7
   0  -2  14 611.475 134.446   4
   0  -2  14 445.324 117.093   5
   0  -2  14 531.123 126.717   3
   0  -2  13 1628.72 192.802   5
   0  -2  13 1731.16 204.408   3
   0  -2  13 1919.67 218.882   4
   0   2 -13 1454.62 119.024   7
   0  -2  12 7955.48 432.686   4
   0   2 -12 7994.45 291.579   7
   0  -2  12 8320.10 421.358   5
   0  -2  11 4906.77 304.007   5
   0   2 -11 4867.61 220.827   7
   0  -2  11 5098.46 330.054   4
   0  -2  10 2755.40 231.320   4
   0   2 -10 3066.75 169.796   7
   0  -2  10 2893.18 223.596   5
   0  -2   9 105738. 1992.67   3
   0  -2   9 102755. 1996.53   4
   0  -2   9 104207. 1914.77   5
   0   2  -9 102259. 1776.85   7
   0  -2   8 3508.56 244.567   4
   0   2  -8 4063.35 195.431   7
   0  -2   8 4146.56 259.014   3
   0  -2   8 4197.40 232.054   5
   0   2  -7 36243.8 753.100   7
   0  -2   7 35425.3 787.203   5
   0  -2   7 35594.4 884.070   4
   0   2  -6 103342. 1728.95   7
   0   2  -6 98806.5 1796.12   4
   0   2  -6 99673.1 1752.32   5
   0  -2   6 101027. 1724.88   5
   0  -2   6 103116. 1870.24   4
   0   2  -5 1279.77 99.1727   5
   0  -2   5 1195.46 124.566   4
   0  -2   5 1305.29 93.6606   5
   0   2  -5 1215.44 115.371   4
   0   2  -4 59894.5 1040.21   5
   0  -2   4 60431.8 1017.93   5
   0  -2   4 60162.4 1122.11   2
   0  -2   4 58773.0 1196.83   4
   0   2  -4 62048.5 1186.11   4
   0  -2   3 432.715 36.8131   5
   0   2  -3 285.974 34.8843   5
   0  -2   3 246.422 56.8253   4
   0  -2   3 178.078 36.2702   2
   0  -2   2 63296.3 1090.52   2
   0   2  -2 63925.8 1068.05   2
   0  -2   2 66912.4 1255.85   4
   0   2  -1 207530. 3204.18   2
   0  -2   1 210476. 3408.26   4
   0   2   0 51688.7 864.722   6
   0  -2   0 51821.2 1061.77   4
   0  -2  -1 16757.0 369.758   5
   0   2   1 17285.5 373.987   5
   0   2   1 17491.1 524.818   1
   0   2   2 145111. 2284.10   5
   0  -2  -2 141366. 2285.38   5
   0   2   2 141391. 2449.30   1
   0   2   3 12713.7 369.778   5
   0  -2  -3 12937.3 377.159   5
   0   2   3 13231.0 449.773   1
   0   2   4 19863.3 526.092   5
   0   2   4 19588.0 589.599   1
   0   2   5 7619.23 344.619   1
   0   2   5 7450.01 314.538   5
   0   2   6 22604.6 664.855   1
   0   2   6 22677.0 643.782   5
   0   2   7 10634.9 437.750   5
   0   2   7 10808.5 444.940   1
   0   2   8 9984.72 439.111   5
   0   2   8 9589.77 425.420   4
   0   2   9 12450.0 513.835   4
   0   2   9 12095.7 515.204   5
   0   2  10 1679.62 190.303   4
   0   2  10 1828.00 204.346   5
   0   2  11 11666.1 535.970   4
   0   2  11 11690.3 548.283   5
   0   2  12 24021.7 854.574   5
   0   2  12 24082.5 835.932   4
   0   2  13 55.5644 70.8199   4
   0   2  13 102.564 89.1405   5
   0   2  14 14227.1 687.896   5
   0   2  14 13872.0 662.180   4
   0   2  15 5980.39 437.456   4
   0   2  15 6306.37 464.298   5
   0   2  16 22570.6 948.426   5
   0   2  16 23493.3 931.877   4
   0   2  17 1460.59 249.684   4
   0   2  17 1582.45 269.765   5
   0   2  18 683.629 191.131   5
   0   2  18 452.053 135.824   4
   0   2  19 1079.93 220.730   5
   0   2  19 804.904 196.932   4
   0   2  20 38.6294 89.9509   4
   0   2  20 116.806 134.263   5
   0   2  21 232.975 117.704   5
   0   2  21 668.550 193.775   4
   0   2  22 305.382 159.203   4
   0   2  22 8.63672 115.080   5
   0   2  23 3.05454 101.380   4
   0   2  23-12.3676 125.127   5
   0   2  24 241.339 192.360   5
   0   2  24 182.102 139.344   4
   0   2  25 570.085 205.804   4
   0  -3  26 763.916 224.113   5
   0  -3  25 305.219 167.117   4
   0  -3  25 96.2192 115.882   5
   0   3 -25 466.925 208.883   6
   0  -3  24 2030.75 332.333   5
   0  -3  24 1518.11 306.683   4
   0  -3  23 109.696 119.783   5
   0  -3  23-77.6729 97.2655   4
   0  -3  22 182.291 128.196   4
   0  -3  22 205.330 128.505   5
   0  -3  21-129.133 143.473   5
   0  -3  21 54.1289 118.242   4
   0  -3  20 24.3892 99.7164   4
   0  -3  20-205.014 127.037   5
   0  -3  19-66.6883 118.597   5
   0  -3  19 159.379 151.986   4
   0  -3  18 1301.36 241.023   4
   0  -3  18 1201.23 225.565   5
   0  -3  18 1190.95 226.630   3
   0  -3  17 13077.0 657.566   5
   0  -3  17 11960.7 681.698   4
   0  -3  17 11483.8 638.856   3
   0   3 -17 12069.1 435.984   7
   0  -3  16 4666.56 369.146   5
   0  -3  16 4415.20 392.215   4
   0  -3  16 5137.80 400.191   3
   0   3 -16 4310.27 248.061   7
   0   3 -15 14807.9 489.594   7
   0  -3  15 14499.7 645.553   5
   0  -3  15 15198.1 721.150   4
   0  -3  15 16509.6 714.378   3
   0  -3  14 9998.84 557.677   4
   0  -3  14 9366.13 510.800   3
   0  -3  14 9447.98 483.966   5
   0   3 -14 9402.84 374.114   7
   0  -3  13 2864.17 273.036   3
   0  -3  13 2519.19 268.447   4
   0  -3  13 3059.65 257.036   5
   0   3 -13 3240.40 209.787   7
   0   3 -12 15214.5 493.512   7
   0  -3  12 15859.7 638.136   3
   0  -3  12 14785.6 564.930   5
   0  -3  12 14829.3 659.902   4
   0   3 -11 4360.33 244.239   7
   0  -3  11 4452.06 331.912   4
   0  -3  11 4777.86 287.125   5
   0  -3  10 388.294 102.875   4
   0  -3  10 358.468 78.1923   5
   0   3 -10 371.458 74.8303   7
   0  -3   9 40403.7 1087.02   4
   0  -3   9 39474.1 908.454   5
   0   3  -9 40566.6 911.444   7
   0  -3   8 1535.19 183.034   4
   0  -3   8 1614.39 136.356   5
   0   3  -8 1463.96 136.156   7
   0  -3   8 1109.70 143.717   3
   0  -3   7 42864.2 1094.59   4
   0   3  -7 43979.0 923.043   5
   0  -3   7 42889.1 871.050   5
   0  -3   6 5173.81 265.900   2
   0  -3   6 5432.10 205.297   5
   0   3  -6 4985.92 218.790   5
   0  -3   6 5227.61 314.356   4
   0  -3   5 203.476 33.6701   5
   0  -3   5 169.086 61.3534   4
   0   3  -5 158.045 36.5677   5
   0  -3   5 250.097 55.5021   2
   0  -3   4 156.484 38.6333   2
   0  -3   4 171.451 57.5551   4
   0  -3   4 133.503 20.8398   5
   0  -3   3 17793.5 595.114   4
   0  -3   3 17006.5 441.401   2
   0   3  -3 18094.1 419.632   2
   0   3  -2 21.3901 20.8125   2
   0   3  -2 27.5405 31.0908   6
   0  -3   2-0.61721 41.1010   4
   0   3  -1 12178.5 346.396   2
   0   3  -1 12152.8 337.357   6
   0  -3   1 11624.0 470.687   4
   0   3   0 3039.56 137.817   6
   0  -3   0 2450.05 105.607   5
   0   3   1 38387.0 997.292   1
   0  -3  -1 38018.4 717.223   5
   0   3   1 37116.5 722.591   5
   0   3   2 1322.03 107.458   5
   0  -3  -2 1558.48 112.329   5
   0   3   2 1327.87 157.985   1
   0   3   3 355.333 61.9407   5
   0  -3  -3 443.399 69.5570   5
   0   3   3 401.571 92.9015   1
   0   3   4 10369.7 461.804   1
   0   3   4 10266.3 374.861   5
   0   3   5 23527.3 661.485   5
   0   3   5 24942.5 777.442   1
   0   3   6 48740.6 1118.93   5
   0   3   6 49681.5 1224.95   1
   0   3   7 12600.3 502.166   5
   0   3   7 12494.9 539.346   1
   0   3   8 17938.9 668.165   1
   0   3   8 17263.7 628.891   5
   0   3   9 409.677 107.723   1
   0   3   9 543.349 132.553   5
   0   3  10 14725.0 620.805   5
   0   3  10 14503.5 614.057   4
   0   3  11 6333.32 417.933   5
   0   3  11 6929.56 421.568   4
   0   3  12 4822.04 373.629   5
   0   3  12 4775.51 369.071   4
   0   3  13 19725.7 795.964   4
   0   3  13 19293.4 812.011   5
   0   3  14 70.1385 107.559   4
   0   3  14 183.375 118.091   5
   0   3  15 1031.86 207.857   4
   0   3  15 1057.57 219.897   5
   0   3  16 2939.50 333.311   4
   0   3  16 2992.00 342.814   5
   0   3  17 56.4894 126.361   5
   0   3  17 133.081 94.0010   4
   0   3  18 55.5857 99.0593   4
   0   3  18-4.75582 98.2353   5
   0   3  19 4926.41 499.205   5
   0   3  19 4966.46 475.367   4
   0   3  20 1590.33 280.821   4
   0   3  20 1691.12 308.123   5
   0   3  21 343.112 180.322   5
   0   3  21 235.800 172.923   4
   0   3  22-86.0380 92.1178   4
   0   3  22 55.5224 112.867   5
   0   3  23-199.375 157.001   5
   0   3  23-194.252 136.399   4
   0   3  24-120.340 132.971   4
   0  -4  25 125.304 110.757   5
   0  -4  24 1481.69 289.554   5
   0   4 -24 1517.73 333.759   6
   0  -4  23 166.484 135.148   5
   0   4 -23 260.825 177.113   6
   0  -4  23 114.153 201.778   4
   0  -4  22-155.233 110.205   5
   0  -4  22 86.2829 106.514   4
   0  -4  21 414.959 151.756   5
   0  -4  21 145.392 90.5439   4
   0  -4  20 2916.79 351.371   3
   0  -4  20 3093.46 378.188   4
   0  -4  20 2824.97 340.189   5
   0  -4  19 181.009 96.4026   3
   0  -4  19 264.550 121.574   5
   0  -4  19-106.634 93.6410   4
   0  -4  18 2267.82 289.852   3
   0  -4  18 1990.65 298.881   4
   0  -4  18 2082.05 264.525   5
   0  -4  17 5205.59 426.818   3
   0  -4  17 5174.51 399.848   5
   0   4 -17 5288.88 312.545   7
   0  -4  17 5090.39 463.720   4
   0   4 -16 3455.94 252.876   7
   0  -4  16 3502.00 339.484   3
   0  -4  16 3424.87 370.708   4
   0  -4  16 3653.40 322.910   5
   0  -4  15 1238.61 218.555   4
   0   4 -15 1117.39 146.501   7
   0  -4  15 1051.40 174.289   5
   0  -4  15 928.908 178.179   3
   0  -4  14 155.429 85.7450   3
   0  -4  14 394.554 118.761   4
   0   4 -14 209.034 60.8475   7
   0  -4  14 177.502 80.1729   5
   0  -4  13 897.942 177.994   4
   0  -4  13 887.463 142.577   5
   0  -4  13 764.089 147.903   3
   0   4 -13 908.116 128.036   7
   0  -4  12 40909.5 1028.62   5
   0  -4  12 40822.9 1173.48   3
   0   4 -12 41877.5 1025.39   7
   0  -4  12 40703.9 1244.43   4
   0  -4  11 145.816 77.4791   4
   0  -4  11 194.342 92.1329   3
   0  -4  11 190.065 67.6710   5
   0   4 -11 307.582 79.1608   7
   0  -4  10 9845.93 386.516   5
   0   4 -10 9696.06 424.399   7
   0  -4  10 9720.23 529.089   4
   0  -4   9 14912.9 657.869   4
   0  -4   9 15340.4 467.317   5
   0   4  -9 15331.8 546.897   7
   0   4  -8 923.220 107.435   5
   0  -4   8 1102.67 101.985   5
   0  -4   8 958.781 160.342   4
   0   4  -8 918.206 123.748   7
   0  -4   7 14150.2 377.967   5
   0   4  -7 14101.7 420.436   5
   0  -4   7 13828.5 608.181   4
   0  -4   6 5710.22 286.878   2
   0  -4   6 5739.17 191.642   5
   0  -4   6 5368.90 362.247   4
   0  -4   5 42317.9 1124.83   4
   0  -4   5 39903.7 875.969   2
   0  -4   5 38564.9 665.263   5
   0  -4   4 8266.27 308.856   2
   0  -4   4 7941.31 436.028   4
   0   4  -3 5709.21 274.481   6
   0   4  -3 5352.23 214.697   2
   0  -4   3 5727.85 366.811   4
   0   4  -2 435.654 72.3690   6
   0  -4   2 392.386 96.0502   4
   0   4  -2 413.953 60.4353   2
   0  -4   1 21239.1 734.747   4
   0   4  -1 19277.1 511.139   6
   0   4  -1 20272.0 535.443   2
   0   4   0 6209.12 397.320   1
   0  -4   0 5058.40 179.432   5
   0  -4   0 6836.49 404.506   4
   0   4   1 20934.2 767.906   1
   0  -4  -1 20078.5 476.730   5
   0   4   2 41334.5 865.572   5
   0   4   2 42010.2 1174.15   1
   0  -4  -2 42078.7 867.510   5
   0   4   3 5378.47 262.651   5
   0   4   3 5992.17 383.631   1
   0   4   4 8380.86 462.641   1
   0   4   4 8338.16 356.634   5
   0   4   5 35938.2 1075.46   1
   0   4   5 36127.2 907.261   5
   0   4   6 2132.00 237.622   1
   0   4   6 2676.14 221.502   5
   0   4   7 61106.6 1540.30   1
   0   4   7 62315.8 1416.62   5
   0   4   8-38.6065 82.1164   1
   0   4   8 6.97227 60.6845   5
   0   4   9-53.9946 88.6407   1
   0   4   9-64.0371 84.4002   5
   0   4  10 507.956 128.551   5
   0   4  10 361.226 122.854   1
   0   4  11 1359.86 203.261   5
   0   4  11 1867.11 249.561   1
   0   4  11 1542.46 218.758   4
   0   4  12 1235.17 205.554   5
   0   4  12 704.424 150.096   4
   0   4  13-1.30736 80.2785   4
   0   4  13 1.90393 83.7509   5
   0   4  14-18.7959 105.655   5
   0   4  14 222.588 93.5088   4
   0   4  15-78.1002 110.050   4
   0   4  15 29.1893 109.528   5
   0   4  16 219.268 130.839   4
   0   4  16 128.552 104.241   5
   0   4  17 1779.82 289.565   4
   0   4  17 1567.54 274.259   5
   0   4  18 143.044 137.567   4
   0   4  18 90.3097 149.467   5
   0   4  19 2679.78 362.094   4
   0   4  19 2414.67 370.468   5
   0   4  20 1029.31 244.611   4
   0   4  20 1060.01 259.944   5
   0   4  21-104.744 139.615   4
   0   4  21 141.933 141.891   5
   0   4  22 95.3184 137.777   5
   0   4  22 170.867 143.875   4
   0  -5  23 2989.40 384.335   3
   0   5 -23 3551.04 485.109   6
   0   5 -22 116.314 177.776   6
   0  -5  22 174.233 117.625   3
   0  -5  21 504.219 152.196   3
   0  -5  21 262.535 140.918   4
   0   5 -21 332.849 190.363   6
   0   5 -20 3184.26 421.570   6
   0  -5  20 3116.76 402.167   4
   0  -5  20 2588.90 334.590   3
   0  -5  20 2606.24 319.217   5
   0  -5  19 1001.34 193.773   5
   0  -5  19 911.562 226.888   4
   0  -5  19 728.051 192.219   3
   0  -5  18 15022.3 769.543   3
   0  -5  18 15046.0 711.375   5
   0  -5  18 13766.2 810.385   4
   0  -5  17 441.216 134.083   3
   0  -5  17 778.039 162.591   5
   0   5 -17 812.456 143.206   7
   0  -5  17 620.826 191.994   4
   0  -5  16 694.425 168.453   3
   0   5 -16 724.502 133.243   7
   0  -5  16 1009.35 171.137   5
   0  -5  16 986.856 207.550   4
   0  -5  15 6109.49 389.568   5
   0   5 -15 6162.70 374.922   7
   0  -5  15 5913.57 492.098   4
   0  -5  15 6065.59 447.271   3
   0  -5  14-4.15654 98.0672   4
   0  -5  14-38.6027 98.5552   3
   0  -5  14 64.1289 59.0058   5
   0   5 -14 21.1449 59.7928   7
   0  -5  13 101.814 95.7680   3
   0  -5  13 98.9202 103.704   4
   0  -5  13 80.5665 58.3608   5
   0   5 -13-55.0346 73.7277   7
   0  -5  12 42130.8 1257.45   3
   0   5 -12 42711.2 1117.41   7
   0  -5  12 40610.2 1329.12   4
   0  -5  12 40943.2 1010.66   5
   0  -5  11 66.7511 71.8154   4
   0  -5  11-64.0933 94.1546   3
   0   5 -11 124.923 67.5198   7
   0  -5  11 64.6257 38.8370   5
   0  -5  10 13808.8 685.983   4
   0   5 -10 13831.5 569.103   7
   0  -5  10 13262.0 436.943   5
   0  -5   9 1890.93 244.620   4
   0   5  -9 1518.75 183.389   7
   0  -5   9 1784.71 132.714   5
   0  -5   8 403.435 118.785   4
   0  -5   8 224.068 41.8390   5
   0  -5   7 1906.93 239.961   4
   0  -5   7 1801.01 168.149   2
   0  -5   6 11294.6 590.540   4
   0   5  -6 11975.4 502.374   6
   0  -5   6 9737.30 393.445   2
   0  -5   5 18152.0 765.942   4
   0   5  -5 17700.3 612.251   6
   0  -5   4 1549.92 218.877   4
   0   5  -4 1568.80 162.492   6
   0  -5   3 343.055 104.100   4
   0   5  -3 339.333 56.7810   2
   0   5  -3 276.207 74.6441   6
   0   5  -2 5749.07 256.169   2
   0  -5   2 6628.85 434.929   4
   0   5  -2 5375.46 276.729   6
   0  -5   1 15086.6 673.172   4
   0   5  -1 15190.5 475.608   2
   0  -5   0 9938.93 291.564   5
   0  -5   0 11138.9 578.460   4
   0   5   0 10189.3 575.945   1
   0   5   1 23454.7 907.242   1
   0  -5  -1 22325.9 543.217   5
   0   5   2 19389.3 814.264   1
   0   5   3 1953.22 239.704   1
   0   5   4 22557.8 664.245   5
   0   5   4 22999.3 885.670   1
   0   5   5 600.939 103.759   5
   0   5   5 640.626 151.963   1
   0   5   6 3763.26 345.825   1
   0   5   6 3965.80 284.788   5
   0   5   7 6759.33 468.866   1
   0   5   7 6551.78 392.148   5
   0  -5  -8 4366.00 155.439   6
   0   5   8 4740.26 345.698   5
   0   5   8 5681.99 430.853   1
   0   5   9 2022.30 235.743   5
   0   5   9 2075.12 269.380   1
   0   5  10 2239.65 263.540   5
   0   5  10 2291.17 287.810   1
   0   5  11 306.398 122.585   1
   0   5  11 768.770 170.303   5
   0   5  12 2055.98 268.261   5
   0   5  12 1510.82 244.389   1
   0   5  12 2076.49 274.027   4
   0   5  13 132.003 95.8840   4
   0   5  13 140.494 118.949   5
   0   5  14 19.5567 105.197   5
   0   5  14 89.0508 92.7701   4
   0   5  15 735.016 199.163   4
   0   5  15 1236.39 234.945   5
   0   5  16 2633.47 350.017   5
   0   5  16 2376.72 325.080   4
   0   5  17 135.456 130.758   4
   0   5  17 259.405 137.375   5
   0   5  18-25.6868 103.066   4
   0   5  18-7.58087 113.818   5
   0   5  19 1063.51 258.263   5
   0   5  19 1182.40 254.787   4
   0   5  20 265.495 181.816   4
   0   5  20 246.705 203.054   5
   0   5  21 453.824 188.067   5
   0   5  21 202.923 150.458   4
   0  -6  24 3190.73 421.852   3
   0  -6  23-128.242 124.902   3
   0  -6  22 23.5540 121.185   3
   0   6 -22 344.385 215.810   6
   0  -6  21 6035.27 532.864   3
   0   6 -21 6740.48 659.890   6
   0  -6  20-19.8890 93.5482   3
   0   6 -20 339.374 182.529   6
   0  -6  19 2880.47 350.926   3
   0   6 -19 3065.03 423.474   6
   0  -6  19 2609.22 370.934   4
   0  -6  18 6904.75 533.353   3
   0   6 -18 7327.50 453.672   7
   0  -6  18 6727.79 588.109   4
   0   6 -18 8288.74 666.446   6
   0   6 -17 0.81004 56.0878   7
   0  -6  17-77.9584 110.777   4
   0  -6  17-49.4811 108.238   3
   0  -6  16 3298.17 404.410   4
   0   6 -16 3730.64 433.266   6
   0   6 -16 3391.52 302.694   7
   0  -6  16 3105.14 348.896   3
   0   6 -15 4042.79 332.897   7
   0  -6  15 4214.57 398.794   3
   0   6 -15 4143.11 440.940   6
   0  -6  15 3675.79 414.242   4
   0   6 -14 381.748 104.524   7
   0   6 -14 593.402 173.034   6
   0  -6  14 410.718 141.782   4
   0  -6  14 173.415 96.3191   3
   0  -6  13 1499.25 261.750   4
   0   6 -13 1881.68 293.633   6
   0  -6  13 1557.52 236.994   3
   0   6 -13 1416.21 198.083   7
   0  -6  12 32897.9 1214.04   4
   0   6 -12 32003.4 1002.89   7
   0   6 -12 31235.3 1143.58   6
   0  -6  12 32333.5 1136.31   3
   0   6 -11 5001.05 358.588   7
   0  -6  11 4419.71 417.230   4
   0   6 -11 4980.55 411.990   6
   0   6 -10 3677.49 342.298   6
   0   6 -10 3975.73 318.061   7
   0  -6  10 3693.19 379.371   4
   0   6  -9 471.148 133.374   6
   0   6  -9 474.246 113.911   7
   0  -6   9 643.615 169.295   4
   0   6  -8 453.451 116.028   6
   0  -6   8 360.299 122.231   4
   0  -6   7 11941.7 669.261   4
   0   6  -7 11610.5 557.127   6
   0   6  -6 2436.88 243.820   6
   0  -6   6 2673.57 314.310   4
   0   6  -5 5793.85 353.077   6
   0  -6   5 6080.90 465.499   4
   0   6  -4 15921.9 603.118   6
   0  -6   4 17735.6 809.267   4
   0   6  -3 945.092 143.367   6
   0   6  -3 962.371 104.528   2
   0  -6   2 4084.45 375.175   4
   0   6  -2 3765.58 215.926   2
   0  -6   1 7613.52 513.422   4
   0   6  -1 7081.85 341.727   2
   0   6  -1 6480.34 500.724   1
   0  -6   0 5765.39 223.500   5
   0   6   0 6992.67 522.059   1
   0   6   0 7091.28 370.570   2
   0   6   1 798.095 184.066   1
   0  -6  -1 941.570 98.7345   5
   0   6   2 6438.49 489.688   1
   0   6   3 3795.85 371.438   1
   0   6   4 4906.92 422.278   1
   0   6   5 812.853 162.938   1
   0   6   6 8046.11 552.906   1
   0   6   7 13332.5 590.390   5
   0   6   7 14179.4 750.425   1
   0   6   8 2302.44 247.835   5
   0   6   8 2249.07 303.356   1
   0   6   9 72.0010 108.994   1
   0   6   9-16.4393 86.1426   5
   0   6  10 2714.63 297.459   5
   0   6  10 2602.05 335.563   1
   0   6  11 182.450 112.792   1
   0   6  11 115.676 79.3953   5
   0   6  12 683.111 167.517   5
   0   6  12 990.058 228.927   1
   0   6  13 246.785 117.313   5
   0   6  13 186.199 101.916   4
   0   6  13 366.423 163.175   1
   0   6  14 338.000 142.823   4
   0   6  14 122.465 105.635   5
   0   6  15-7.51373 93.9822   4
   0   6  15-92.2624 152.575   5
   0   6  16 232.875 133.077   5
   0   6  16 392.024 192.010   4
   0   6  17 623.934 198.445   4
   0   6  17 740.987 220.277   5
   0   6  18 188.952 127.889   5
   0   6  18 157.779 246.564   4
   0   6  19 1214.73 271.304   4
   0   6  19 969.605 244.445   5
   0  -7  23-154.717 123.443   3
   0  -7  22 417.297 175.101   3
   0   7 -21 3411.81 475.190   6
   0  -7  21 3441.49 408.483   3
   0  -7  20 234.458 134.336   3
   0   7 -20 547.476 226.065   6
   0   7 -19 2643.94 409.404   6
   0  -7  19 2096.87 313.562   3
   0  -7  18 379.356 131.333   3
   0   7 -18 842.352 231.550   6
   0   7 -18 488.786 137.997   7
   0  -7  17-47.1873 121.977   3
   0   7 -17 222.067 134.492   6
   0   7 -17 107.134 88.7599   7
   0   7 -16 1533.47 283.956   6
   0   7 -16 1453.78 218.953   7
   0  -7  16 1072.74 233.741   4
   0  -7  16 988.492 219.053   3
   0  -7  15 19.7587 97.3557   4
   0   7 -15 19.8057 71.1675   7
   0  -7  15-72.6185 88.6471   3
   0   7 -15-62.8437 80.6053   6
   0  -7  14 5025.00 449.744   3
   0   7 -14 4583.50 383.390   7
   0  -7  14 4627.88 471.561   4
   0   7 -14 5573.31 500.809   6
   0  -7  13 990.046 201.719   3
   0   7 -13 873.637 202.735   6
   0  -7  13 1082.08 239.538   4
   0   7 -13 920.079 188.248   7
   0   7 -12 1600.64 258.013   6
   0  -7  12 1601.10 279.188   4
   0   7 -12 1427.46 211.100   7
   0   7 -11 4397.71 362.088   7
   0  -7  11 4228.60 438.899   4
   0   7 -11 4719.47 420.714   6
   0   7 -10 61.9727 88.0458   6
   0   7 -10 99.8492 102.235   7
   0  -7  10 118.224 91.3201   4
   0  -7   9 8670.71 623.249   4
   0   7  -9 9444.88 560.911   6
   0   7  -9 8710.37 519.713   7
   0  -7   8-8.47935 92.2229   4
   0   7  -8-11.6495 61.3181   6
   0   7  -8-53.3331 83.3450   7
   0  -7   7 15931.5 844.330   4
   0   7  -7 15291.1 682.628   6
   0  -7   6 1117.42 222.341   4
   0   7  -6 992.038 174.195   6
   0   7  -5 1094.42 162.321   6
   0  -7   5 853.170 194.588   4
   0  -7   4 34043.2 1236.59   4
   0   7  -4 29876.5 915.294   6
   0  -7   3 1319.91 268.710   4
   0   7  -2 31005.7 1261.98   1
   0  -7   2 32094.4 1217.18   4
   0   7  -1 263.964 212.687   1
   0   7   0 2084.58 210.152   2
   0   7   0 2088.26 316.783   1
   0   7   1 11572.8 732.340   1
   0   7   1 14277.2 617.095   2
   0   7   2 629.132 174.741   1
   0   7   3 2911.27 356.793   1
   0   7   4 8150.08 593.082   1
   0   7   5 1426.86 250.553   1
   0   7   6 2853.93 350.837   1
   0   7   7 1012.68 224.905   1
   0   7   8 630.377 183.252   1
   0   7   9 48.1214 100.458   1
   0   7  10 1023.11 237.595   1
   0   7  11 50.8230 108.728   1
   0   7  12-40.1338 94.0173   1
   0   7  13 185.969 109.590   1
   0   7  13-98.5528 122.341   4
   0   7  14 1237.01 262.579   4
   0   7  14 1462.88 278.139   1
   0   7  15 266.337 155.563   4
   0   7  16 2884.39 403.455   4
   0   7  17 777.897 235.842   4
   0  -8  21 3086.56 402.456   3
   0   8 -20 190.913 142.385   6
   0  -8  20-30.7041 121.826   3
   0  -8  19 3208.51 396.083   3
   0   8 -19 2854.01 432.673   6
   0   8 -18-142.007 140.550   6
   0  -8  18 174.697 125.192   3
   0   8 -18-7.91077 71.1363   7
   0   8 -17 38.1797 73.1954   7
   0   8 -17 198.910 143.536   6
   0   8 -16 430.406 138.344   7
   0   8 -16 272.587 168.026   6
   0  -8  16 552.654 172.448   3
   0   8 -15 117.370 71.2843   7
   0  -8  15 171.499 116.659   3
   0   8 -15 189.792 130.030   6
   0   8 -14 434.399 158.699   6
   0  -8  14 245.798 112.143   3
   0   8 -14 335.321 131.573   7
   0  -8  13 1800.95 310.720   4
   0   8 -13 2087.08 322.452   6
   0   8 -13 1655.60 250.708   7
   0   8 -12 1416.09 253.064   6
   0  -8  12 1424.83 278.510   4
   0   8 -12 1770.47 252.770   7
   0  -8  11 417.558 148.898   4
   0   8 -11 326.206 120.263   7
   0   8 -11 512.331 159.434   6
   0   8 -10 927.031 186.610   7
   0   8 -10 752.273 180.734   6
   0  -8  10 818.682 204.831   4
   0   8  -9 1531.23 239.532   7
   0  -8   9 1572.39 285.163   4
   0   8  -9 1917.59 268.642   6
   0   8  -8 2737.17 307.971   7
   0  -8   8 2893.17 377.996   4
   0   8  -8 3049.47 322.445   6
   0  -8   7 5880.47 530.405   4
   0   8  -7 5893.82 434.636   6
   0   8  -7 6173.78 460.051   7
   0   8  -6 8256.11 507.422   6
   0  -8   6 8422.81 633.530   4
   0  -8   5 19053.4 965.370   4
   0   8  -5 17716.6 723.582   6
   0  -8   4 3871.48 439.086   4
   0   8  -4 3279.22 445.943   1
   0   8  -3 1953.02 325.879   1
   0  -8   3 2084.57 324.169   4
   0   8  -2 440.932 192.858   1
   0   8  -1 1458.91 301.661   1
   0   8   0 17997.2 990.031   1
   0   8   1 972.454 236.105   1
   0   8   2 3179.48 402.885   1
   0   8   3 124.760 118.780   1
   0   8   4 387.873 168.269   1
   0   8   5 552.043 172.879   1
   0   8   6 1681.35 295.950   1
   0   8   7 4236.06 467.595   1
   0   8   8 1290.03 269.727   1
   0   8   9 344.667 162.379   1
   0   8  10 154.746 110.780   1
   0   8  11 300.257 139.392   1
   0   8  12 63.4752 93.1067   1
   0   8  13 143.969 162.508   4
   0   8  13 213.112 154.025   1
   0   8  14 194.692 141.664   1
   0   8  14-49.8583 111.452   4
   0   8  15 170.030 143.729   4
   0   9 -19 164.313 151.846   6
   0  -9  19 2.20954 101.886   3
   0   9 -18 347.275 139.698   7
   0  -9  18 572.497 199.220   3
   0   9 -18 508.309 207.429   6
   0   9 -17-127.529 102.006   6
   0   9 -17-11.6480 95.7903   7
   0  -9  17-136.881 137.147   3
   0  -9  16 3726.31 449.338   3
   0   9 -16 3393.82 449.124   6
   0   9 -16 3693.50 387.988   7
   0   9 -15 98.6724 116.617   6
   0   9 -15-35.5310 95.7972   7
   0  -9  15 29.0963 95.3913   3
   0   9 -14 126.180 87.2368   6
   0  -9  14 258.941 127.696   3
   0   9 -14 419.600 132.525   7
   0   9 -13 3073.98 394.556   6
   0   9 -13 2867.40 341.240   7
   0   9 -12 768.282 197.855   6
   0   9 -12 914.867 209.698   7
   0  -9  11 3770.86 461.281   4
   0   9 -11 3617.23 377.416   7
   0   9 -11 4213.30 438.716   6
   0   9 -10 1630.30 254.677   7
   0  -9  10 1545.94 296.064   4
   0   9 -10 2054.86 297.873   6
   0   9  -9 1180.70 224.061   7
   0  -9   9 983.331 247.068   4
   0  -9   8 2007.33 325.717   4
   0   9  -8 2257.10 300.325   7
   0   9  -7 51.5753 85.0781   7
   0  -9   7 105.516 128.387   4
   0   9  -6 246.762 91.4495   7
   0  -9   6 472.314 192.484   4
   0  -9   5 5541.46 542.074   4
   0   9  -5 4336.90 409.296   7
   0   9  -5 4760.47 553.022   1
   0   9  -4 2625.14 414.234   1
   0   9  -3 123.720 147.811   1
   0   9  -2 2113.01 366.851   1
   0   9  -1 4717.78 548.555   1
   0   9   0 3685.40 474.704   1
   0   9   1 292.201 169.602   1
   0   9   2 4115.33 493.491   1
   0   9   3 280.509 158.818   1
   0   9   4 1.70114 145.734   1
   0   9   5 1959.56 330.951   1
   0   9   6 1435.80 311.380   1
   0   9   7 2696.02 392.894   1
   0   9   8 49.2574 119.545   1
   0   9   9 136.719 129.140   1
   0   9  10 1164.89 277.747   1
   0   9  11 640.032 222.562   1
   0   9  12 748.371 216.198   1
   0   9  13 813.061 214.815   4
   0  10 -16 1452.18 263.929   7
   0 -10  16 1807.96 330.681   3
   0 -10  15 64.9111 137.288   3
   0  10 -15-101.152 106.621   7
   0 -10  14 180.460 165.238   3
   0  10 -14 23.9814 82.1744   7
   0  10 -13-5.03380 98.0655   7
   0  10 -12 792.929 192.584   7
   0  10 -11 2184.82 322.668   7
   0  10 -10 2625.88 345.963   7
   0  10  -9 360.373 153.834   7
   0  10  -8 1048.50 230.132   7
   0 -10   8 826.373 231.116   4
   0 -10   7-10.5950 111.519   4
   0  10  -7 329.640 138.544   7
   0  10  -7 323.959 220.638   1
   0  10  -6-113.099 212.111   1
   0  10  -6 59.8793 96.1396   7
   0  10  -5 2219.71 311.222   7
   0  10  -5 2898.39 459.129   1
   0  10  -4-69.4402 105.846   7
   0  10  -4-87.9612 162.416   1
   0  10  -3 1038.89 232.196   7
   0  10  -3 1099.58 304.639   1
   0  10  -2 237.498 132.814   7
   0  10  -2 612.810 223.284   1
   0  10  -1 1427.80 316.948   1
   0  10   0 652.813 226.982   1
   0  10   1 3703.75 492.546   1
   0  10   2 331.112 200.920   1
   0  10   3 826.347 324.666   1
   0  10   4 288.332 164.817   1
   0  10   5 643.912 214.197   1
   0  10   6 214.484 145.123   1
   0  10   7 2860.86 432.100   1
   0  10   8-65.2238 116.751   1
   0  10   8-47.8724 115.414   7
   0  10   9 534.391 170.233   7
   0  11 -10 30.2654 186.204   1
   0  11  -9 534.350 260.767   1
   0  11  -8 102.841 159.184   1
   0  11  -7 174.760 202.137   1
   0  11  -6 49.3196 201.325   1
   0  11  -5 409.348 176.637   7
   0  11  -5 370.909 213.913   1
   0  11  -4-74.7423 107.131   7
   0  11  -4 52.9717 132.087   1
   0  11  -3 542.587 173.669   7
   0  11  -3 243.167 163.978   1
   0  11  -2 1224.77 242.241   7
   0  11  -2 1177.73 317.458   1
   0  11  -1 108.551 150.123   1
   0  11  -1 192.540 121.608   7
   0  11   0 1945.64 371.803   1
   0  11   0 1524.95 278.267   7
   0  11   1 392.294 187.990   1
   0  11   1 80.8754 127.468   7
   0  11   2-72.9906 171.179   1
   0  11   2 142.662 100.557   7
   0  11   3 436.863 172.506   1
   0  11   3 543.119 177.972   7
   0  11   4 342.860 154.238   7
   0  11   5-26.3637 114.221   7
   0  11   6 68.5326 104.552   7
   0  11   7 1188.15 248.440   7
  -1  11   5-10.3288 113.097   1
  -1  11   4 173.326 163.570   1
  -1  11   3 733.921 254.270   1
  -1  11   2 1537.70 353.207   1
  -1  11   1 3903.97 530.619   1
  -1  11   0 198.684 178.979   1
  -1  11  -1 3893.26 549.439   1
  -1  11  -2 2501.55 453.146   1
  -1  11  -3 11.9847 137.071   1
  -1  11  -4 3214.81 515.244   1
  -1  11  -5-55.3618 151.792   1
   1 -11   6 301.934 182.690   4
  -1  11  -6 213.122 153.685   1
  -1  11  -7 479.160 220.084   1
  -1  11  -7 300.783 134.250   7
   1 -11   7 281.167 175.024   4
   1 -11   8 124.948 155.038   4
  -1  11  -8 197.200 115.277   7
   1 -11   9 628.318 222.215   4
  -1  11  -9 820.272 211.703   7
  -1  11 -10 220.470 153.724   7
  -1  11 -11 186.183 128.001   7
  -1  10  10 135.883 139.458   1
  -1  10   9-113.817 152.718   1
  -1  10   8 1016.28 261.214   1
  -1  10   7 1744.94 348.336   1
  -1  10   6 741.317 226.331   1
  -1  10   5 1887.89 349.514   1
  -1  10   4 689.374 227.790   1
  -1  10   3 179.322 144.598   1
  -1  10   2 5260.53 576.007   1
  -1  10   1 2071.29 375.069   1
  -1  10   0 2085.55 387.797   1
  -1  10  -1 787.492 253.078   1
  -1  10  -2-6.39612 144.190   1
  -1  10  -3 3087.03 471.817   1
   1 -10   4 1977.66 356.932   4
  -1  10  -4 2032.99 399.821   1
   1 -10   5 4861.17 548.856   4
  -1  10  -5 4844.68 595.708   1
   1 -10   6 771.299 213.254   4
   1 -10   7 232.152 151.856   4
   1 -10   8 226.070 172.100   4
   1 -10   9 260.708 126.572   4
  -1  10  -9 474.837 174.838   7
   1 -10  10 2634.79 419.686   4
  -1  10 -10 2895.35 348.080   7
   1 -10  11 1119.62 283.959   4
  -1  10 -11 702.297 177.729   7
  -1  10 -12 347.713 167.745   7
   1 -10  12 177.345 141.604   4
  -1  10 -13 2485.66 321.471   7
  -1  10 -14 173.274 137.506   6
   1 -10  14-135.311 141.715   3
  -1  10 -14 134.852 83.8058   7
  -1  10 -15 236.158 133.815   7
  -1  10 -15 171.948 134.203   6
  -1  10 -16 1058.15 224.469   7
  -1  10 -16 813.780 234.890   6
  -1  10 -17 641.758 223.881   6
  -1  10 -17 339.134 128.660   7
  -1  10 -18 4647.88 555.402   6
  -1   9  14 130.606 162.758   1
  -1   9  13 383.421 178.469   1
  -1   9  12-122.646 111.327   1
  -1   9  11 37.3972 119.204   1
  -1   9  10-4.01129 93.3325   1
  -1   9   9 401.994 169.616   1
  -1   9   8-134.963 151.893   1
  -1   9   7 3811.73 470.844   1
  -1   9   6 99.0542 136.299   1
  -1   9   5 11739.5 821.257   1
  -1   9   4 5706.97 573.056   1
  -1   9   3 285.539 165.249   1
  -1   9   2 313.742 142.277   1
  -1   9   1 750.681 214.636   1
  -1   9   0 800.676 261.300   1
  -1   9  -1 17551.4 1048.53   1
   1  -9   2 1164.48 290.415   4
  -1   9  -2 1147.28 286.833   1
  -1   9  -3 7402.91 681.672   1
   1  -9   3 7560.41 644.415   4
   1  -9   4 1545.49 306.921   4
   1  -9   5 668.613 209.796   4
   1  -9   6 2139.62 350.887   4
   1  -9   7 2478.01 393.231   4
   1  -9   8 1600.63 305.725   4
  -1   9  -8 1453.58 224.160   6
  -1   9  -9 110.103 89.1709   6
   1  -9   9-30.5208 126.844   4
   1  -9  10 528.279 184.056   4
  -1   9 -10 480.530 132.068   6
  -1   9 -11 9454.33 623.050   6
  -1   9 -11 8783.40 570.101   7
   1  -9  11 8770.37 730.249   4
  -1   9 -12 1225.37 245.046   6
   1  -9  12 1807.78 326.852   4
  -1   9 -12 1019.93 201.233   7
  -1   9 -13 857.548 204.060   6
  -1   9 -13 727.827 171.162   7
   1  -9  13 573.048 178.243   3
   1  -9  13 652.136 218.410   4
   1  -9  14-71.9322 90.2529   3
   1  -9  14 116.831 112.256   4
  -1   9 -14 206.177 114.628   7
  -1   9 -14-49.0455 111.522   6
   1  -9  15 638.570 174.132   3
   1  -9  15 376.728 154.975   4
  -1   9 -15 618.803 159.532   7
  -1   9 -15 566.616 180.933   6
  -1   9 -16 1176.58 212.934   7
  -1   9 -16 1372.87 278.215   6
   1  -9  16 1161.97 234.068   3
  -1   9 -17 701.331 165.267   7
   1  -9  17 910.845 212.410   3
  -1   9 -17 1143.11 269.999   6
  -1   9 -18 1586.96 328.454   6
   1  -9  18 1390.39 261.287   3
  -1   9 -19 103.683 135.158   6
  -1   8  18-151.495 136.250   5
  -1   8  17-119.949 162.376   5
  -1   8  16 426.479 153.423   5
  -1   8  16 470.640 183.575   4
  -1   8  15 40.6689 120.566   4
  -1   8  15 331.247 151.821   1
  -1   8  15 158.558 119.306   5
  -1   8  14 1110.76 221.959   5
  -1   8  14 1293.35 275.428   1
  -1   8  13 1039.55 218.705   5
  -1   8  13 1167.76 256.430   1
  -1   8  12 107.470 90.5542   5
  -1   8  12 140.823 124.509   1
  -1   8  11 1374.90 227.596   5
  -1   8  11 1477.03 279.722   1
  -1   8  10 542.269 145.530   5
  -1   8  10 779.263 224.511   1
  -1   8   9 758.995 173.769   5
  -1   8   9 521.861 197.522   1
  -1   8   8 9188.64 690.120   1
  -1   8   7 817.505 226.843   1
  -1   8   6 63.9044 118.259   1
  -1   8   5 9241.09 680.177   1
  -1   8   4 8727.37 658.885   1
  -1   8   3 299.754 120.199   1
  -1   8   2 1066.24 250.433   1
  -1   8   1-19.6750 125.369   1
  -1   8   0 12893.2 832.065   1
   1  -8   1 8281.55 645.213   4
  -1   8  -1 8445.90 683.398   1
  -1   8  -2 4408.80 482.843   1
   1  -8   2 4321.05 456.456   4
   1  -8   3 54.2899 110.401   4
  -1   8  -3 44.3287 38.2260   6
  -1   8  -4 1064.98 151.928   6
   1  -8   4 1203.77 248.876   4
  -1   8  -5 3831.74 301.513   6
   1  -8   5 3860.61 439.221   4
   1  -8   6 9880.22 706.090   4
  -1   8  -6 8945.66 497.353   6
   1  -8   7 4812.12 485.143   4
  -1   8  -7 3954.60 340.573   6
   1  -8   8 3554.18 435.144   4
  -1   8  -8 4265.59 363.136   6
  -1   8  -9 7784.69 506.150   6
   1  -8   9 7886.96 641.996   4
   1  -8  10 14095.0 871.258   4
  -1   8 -10 14511.8 731.687   6
  -1   8 -11 2628.64 312.978   6
   1  -8  11 2213.70 347.170   4
   1  -8  12 4738.15 508.505   4
  -1   8 -12 4199.18 364.758   7
  -1   8 -12 4764.95 438.567   6
  -1   8 -13 2496.80 280.892   7
  -1   8 -13 2754.61 343.828   6
   1  -8  13 2514.17 378.860   4
   1  -8  13 2065.88 289.659   3
  -1   8 -14 6042.81 515.572   6
   1  -8  14 5240.77 547.314   4
  -1   8 -14 5467.80 416.862   7
   1  -8  14 5345.86 461.145   3
  -1   8 -15 720.354 157.826   7
   1  -8  15 510.373 170.268   4
  -1   8 -15 1054.75 242.088   6
   1  -8  15 734.243 184.501   3
  -1   8 -16 141.076 83.0549   7
   1  -8  16 85.4184 91.8665   4
   1  -8  16 304.658 119.096   3
   1  -8  17 556.295 162.927   3
   1  -8  17 1086.35 260.876   4
  -1   8 -17 867.755 174.821   7
  -1   8 -17 849.301 226.646   6
  -1   8 -18 490.680 176.035   6
   1  -8  18 315.209 133.079   3
  -1   8 -19 457.928 202.286   6
   1  -8  19 370.115 138.676   3
  -1   8 -20 131.993 147.586   6
   1  -8  20-41.7390 88.6816   3
  -1   8 -21 457.118 216.740   6
  -1   7  20-240.593 170.252   5
  -1   7  19 35.8186 134.331   5
  -1   7  18 139.673 128.010   4
  -1   7  18 184.141 156.267   5
  -1   7  17-81.6388 124.190   5
  -1   7  17 12.8078 111.838   4
  -1   7  16 395.259 153.372   5
  -1   7  16 322.261 166.080   4
  -1   7  15 79.2823 94.6334   5
  -1   7  15 72.1193 136.205   4
  -1   7  15 291.463 149.110   1
  -1   7  14 913.661 212.196   5
  -1   7  14 1713.18 293.085   1
  -1   7  13 78.7359 82.6649   5
  -1   7  13 35.5377 98.7615   1
  -1   7  12 90.4290 85.4129   1
  -1   7  12-68.2751 95.5321   5
  -1   7  11 3282.47 391.738   1
  -1   7  11 3509.32 351.780   5
  -1   7  10 114.899 105.392   5
  -1   7  10 415.642 178.922   1
  -1   7   9 853.960 206.698   1
  -1   7   9 717.715 152.559   5
  -1   7   8 2506.65 262.694   5
  -1   7   8 2405.73 333.694   1
  -1   7   7 6256.90 391.606   5
  -1   7   7 6498.37 541.196   1
  -1   7   6 124.234 60.4604   5
  -1   7   6 54.6188 97.5897   1
  -1   7   5 38.4888 46.6384   5
  -1   7   5 3.07717 100.036   1
  -1   7   4 3905.29 261.402   5
  -1   7   4 4476.30 429.892   1
  -1   7   3 2932.22 358.368   1
  -1   7   3 2922.80 206.620   5
  -1   7   2 4117.11 426.779   1
  -1   7   1 9542.69 655.872   1
  -1   7   0 461.557 72.3496   2
  -1   7   0 395.745 163.183   1
   1  -7   0 521.881 190.381   4
  -1   7  -1 7981.53 598.175   1
  -1   7  -1 7090.66 306.941   6
   1  -7   1 7760.39 566.455   4
   1  -7   2 9796.53 641.056   4
  -1   7  -2 8783.93 377.635   6
  -1   7  -3 58.0740 49.8294   6
   1  -7   3 115.668 118.805   4
  -1   7  -4 8209.98 403.386   6
   1  -7   4 8689.35 613.139   4
  -1   7  -5 110.275 77.5194   6
   1  -7   5 113.650 89.6713   4
   1  -7   6 9163.48 638.507   4
   1  -7   7 17547.8 899.305   4
   1  -7   8 5897.59 508.578   4
   1  -7   9 9111.05 639.644   4
   1  -7  10 2862.47 367.489   4
   1  -7  11 17178.5 914.945   4
   1  -7  12 1817.09 252.049   3
   1  -7  12 1910.66 308.712   4
  -1   7 -12 1912.08 235.307   7
   1  -7  13 222.176 117.890   4
   1  -7  13 524.933 137.409   3
  -1   7 -13 327.597 110.036   7
  -1   7 -14 44.1159 67.0193   7
   1  -7  14 7.80963 83.1172   4
   1  -7  14 193.725 98.9625   3
   1  -7  15 1743.16 253.067   3
   1  -7  15 1236.77 258.605   4
  -1   7 -15 1591.05 210.659   7
   1  -7  16 291.893 111.874   3
  -1   7 -16 442.360 117.155   7
   1  -7  16 141.757 105.637   4
   1  -7  17 1232.13 217.194   3
   1  -7  17 870.251 214.959   4
  -1   7 -17 1058.24 172.835   7
   1  -7  18 2385.18 372.719   4
   1  -7  18 2393.90 311.346   3
   1  -7  19 2321.89 376.419   4
   1  -7  19 2180.10 299.866   3
   1  -7  20 145.441 98.5902   3
   1  -7  20 29.6826 125.702   4
   1  -7  21 1466.16 265.362   3
  -1   7 -22 1520.21 325.292   6
   1  -7  22 1508.13 277.156   3
  -1   6  21 80.7018 117.065   5
  -1   6  20 28.5660 108.771   5
  -1   6  20-153.186 125.225   4
  -1   6  19 47.0404 104.595   5
  -1   6  19 105.048 115.180   4
  -1   6  18-107.311 126.389   5
  -1   6  18 97.1930 115.734   4
  -1   6  17 624.776 176.117   4
  -1   6  17 1168.74 243.026   5
  -1   6  16 309.862 132.153   4
  -1   6  16 455.201 163.683   5
  -1   6  15 298.522 158.605   4
  -1   6  15 515.851 176.485   5
  -1   6  14 1548.07 250.800   4
  -1   6  14 1501.82 274.322   1
  -1   6  14 1673.20 257.537   5
  -1   6  13 41.6317 109.128   1
  -1   6  13-81.4053 82.7826   5
  -1   6  12 5663.39 446.339   5
  -1   6  12 5765.65 486.965   1
  -1   6  11 638.904 149.041   5
  -1   6  11 632.035 175.499   1
  -1   6  10 233.731 121.782   1
  -1   6  10 24.7263 95.5863   5
  -1   6   9 636.004 145.089   5
  -1   6   9 304.990 115.130   1
  -1   6   8 7688.73 548.986   1
  -1   6   8 9066.10 477.863   5
  -1   6   7 970.322 194.621   1
  -1   6   7 1260.33 172.130   5
  -1   6   6 801.028 182.471   1
  -1   6   6 919.004 138.210   5
  -1   6   5 15.5122 45.3028   5
  -1   6   5 83.7937 94.6585   1
  -1   6   4 4184.97 387.794   1
  -1   6   4 3958.62 249.269   5
  -1   6   3 100.846 79.4040   1
  -1   6   3 66.5684 37.3433   5
  -1   6   2 1006.32 200.647   1
  -1   6   2 963.111 105.203   5
   1  -6  -1 1720.77 248.832   4
  -1   6   1 2152.06 283.951   1
  -1   6   1 1999.26 131.372   5
  -1   6   0 2435.83 144.769   6
  -1   6   0 2794.17 340.117   1
   1  -6   0 2808.55 322.235   4
  -1   6  -1 30891.8 696.887   6
   1  -6   1 32469.8 1131.76   4
  -1   6  -2 21241.6 591.635   6
   1  -6   2 20906.3 904.097   4
   1  -6   3 7544.69 528.866   4
   1  -6   4 377.811 133.337   4
   1  -6   5 20614.7 902.746   4
   1  -6   6 4128.92 389.972   4
   1  -6   7 1589.93 121.219   2
   1  -6   7 1849.70 264.571   4
   1  -6   8 13340.9 441.420   2
   1  -6   8 14108.6 741.603   4
   1  -6   9 7098.16 523.846   4
   1  -6  10 963.896 211.741   4
   1  -6  11 5484.29 481.060   4
   1  -6  11 4790.39 373.754   3
  -1   6 -12 19454.5 711.125   7
   1  -6  12 19528.5 796.013   3
   1  -6  12 18624.6 918.127   4
   1  -6  13 91.9192 103.941   3
   1  -6  13-137.994 138.642   4
  -1   6 -13 128.888 89.9710   7
   1  -6  14 1507.26 267.659   4
  -1   6 -14 1464.32 187.435   7
   1  -6  14 1484.74 218.598   3
  -1   6 -15 832.873 146.162   7
   1  -6  15 839.862 213.243   4
   1  -6  15 718.135 149.986   3
  -1   6 -16 9080.87 469.225   7
   1  -6  16 8056.71 636.836   4
   1  -6  16 8298.21 528.710   3
   1  -6  17 1662.02 305.533   4
   1  -6  17 1947.39 259.931   3
  -1   6 -17 1278.95 177.781   7
   1  -6  18 5569.91 538.110   4
   1  -6  18 5280.40 439.570   3
   1  -6  19 1927.61 332.423   4
   1  -6  19 2206.93 293.566   3
   1  -6  20 2381.42 314.393   3
   1  -6  20 2265.96 372.503   4
   1  -6  21 3117.43 364.829   3
   1  -6  21 2921.02 423.924   4
   1  -6  22 774.230 212.629   3
   1  -6  22 640.812 237.700   4
  -1   5  22 348.788 170.892   4
  -1   5  22-16.6208 109.727   5
  -1   5  21 1125.26 272.937   5
  -1   5  21 968.384 251.133   4
  -1   5  20 78.8167 133.533   5
  -1   5  20 9.57212 107.711   4
  -1   5  19 765.687 214.711   5
  -1   5  19 1011.85 234.797   4
  -1   5  18 324.640 158.711   4
  -1   5  18 164.959 144.394   5
  -1   5  17 5660.15 515.670   5
  -1   5  17 4822.41 459.929   4
  -1   5  16 3291.41 380.011   5
  -1   5  16 2826.58 340.792   4
  -1   5  15 439.099 154.348   5
  -1   5  15 268.725 116.258   4
  -1   5  14 8898.58 570.490   4
  -1   5  14 8341.11 557.424   5
  -1   5  13 12.0682 80.2946   1
  -1   5  13-48.9615 78.2029   5
  -1   5  12 693.813 169.966   1
  -1   5  12 719.388 156.559   5
  -1   5  11 970.475 176.050   5
  -1   5  11 937.425 181.267   1
  -1   5  10 67.5246 71.1061   1
   1  -5 -10 160.900 41.5372   6
  -1   5  10 0.08802 66.3078   5
  -1   5   9 4046.07 366.402   1
  -1   5   9 3360.02 290.612   5
  -1   5   8 59.6993 74.1018   1
  -1   5   8 367.677 100.705   5
  -1   5   7 26206.3 960.122   1
  -1   5   7 25344.5 790.451   5
  -1   5   6 1555.53 171.866   5
  -1   5   6 1547.13 224.083   1
  -1   5   5 33358.3 1095.06   1
  -1   5   5 34573.0 875.463   5
  -1   5   4 484.549 146.642   1
  -1   5   4 595.216 91.9758   5
  -1   5   3 13543.6 666.045   1
  -1   5   3 13534.1 436.757   5
  -1   5   2 15158.9 433.246   5
   1  -5  -2 16344.9 721.870   4
   1  -5  -2 13914.9 461.010   5
  -1   5   2 14994.9 702.311   1
   1  -5  -1 108.789 31.6007   5
  -1   5   1 83.5409 20.1198   6
  -1   5   1 60.7006 72.3529   1
   1  -5  -1 189.374 81.8281   4
  -1   5   1 230.589 50.2362   5
  -1   5   0 38171.2 737.925   6
  -1   5   0 37691.7 706.658   5
   1  -5   0 39369.1 1183.26   4
   1  -5   1 8333.36 506.430   4
   1  -5   2 9980.77 557.438   4
   1  -5   3 24030.3 898.733   4
   1  -5   4 16368.1 728.336   4
   1  -5   5 10664.8 287.865   2
   1  -5   5 12317.9 622.644   4
  -1   5  -6 6.09663 14.4648   5
   1  -5   6 12.8211 18.2421   2
   1  -5   6 36.6399 73.7403   4
   1  -5   7-20.4865 22.9142   2
  -1   5  -7 16.7465 17.8082   5
   1  -5   7-78.0126 86.0438   4
   1  -5   8 6911.56 314.243   2
  -1   5  -8 6844.89 268.764   5
   1  -5   8 7733.79 502.319   4
   1  -5   9 3157.27 325.950   4
   1  -5  10 3376.11 341.757   4
   1  -5  11 792.607 140.581   3
   1  -5  11 1024.79 188.510   4
   1  -5  12 11521.5 557.435   3
   1  -5  12 11481.9 665.102   4
  -1   5 -12 11163.1 480.930   7
  -1   5 -13 2353.85 212.919   7
   1  -5  13 2105.27 297.988   4
   1  -5  13 2063.44 237.084   3
  -1   5 -14 3436.11 257.967   7
   1  -5  14 3581.30 379.840   4
   1  -5  14 3471.98 309.055   3
   1  -5  15 6917.51 456.649   3
  -1   5 -15 7461.50 387.454   7
   1  -5  15 6334.18 527.879   4
   1  -5  16 1682.12 280.647   4
  -1   5 -16 1699.60 184.861   7
   1  -5  16 1816.23 239.437   3
   1  -5  17 6175.69 547.418   4
  -1   5 -17 7100.95 374.813   7
   1  -5  17 6063.80 447.797   3
   1  -5  18 2609.50 360.704   4
   1  -5  18 2964.07 320.659   3
   1  -5  19 982.758 200.840   3
   1  -5  19 1193.70 253.111   4
   1  -5  20 3222.44 423.694   4
   1  -5  20 2927.74 340.977   3
   1  -5  21 458.518 183.657   4
   1  -5  21 633.266 178.980   3
   1  -5  22 1923.57 346.603   4
   1  -5  23 3216.17 458.362   4
   1  -5  24-142.914 141.115   4
  -1   4  23 434.880 203.211   5
  -1   4  23 103.790 124.194   4
  -1   4  22 1329.39 277.989   4
  -1   4  22 1664.78 323.122   5
  -1   4  21 238.889 139.195   4
  -1   4  21 65.5726 137.543   5
  -1   4  20 1689.89 293.461   4
  -1   4  20 2159.55 340.200   5
  -1   4  19 606.370 185.280   5
  -1   4  19 1139.08 243.540   4
  -1   4  18 540.495 183.683   5
  -1   4  18 600.415 180.233   4
  -1   4  17 11778.6 700.812   4
  -1   4  17 13858.9 772.794   5
   1  -4 -16 4605.52 348.932   6
  -1   4  16 4696.57 437.209   5
  -1   4  16 4287.92 402.785   4
   1  -4 -15 6283.06 385.714   6
  -1   4  15 6801.55 499.351   5
  -1   4  14 343.445 123.360   4
  -1   4  14 503.206 149.664   5
   1  -4 -14 381.092 99.5528   6
   1  -4 -13 5375.73 323.842   6
  -1   4  13 4540.68 379.582   4
  -1   4  13 4485.28 376.430   5
   1  -4 -12 541.617 100.675   6
  -1   4  12 389.756 112.584   5
   1  -4 -11 7991.65 355.896   6
  -1   4  11 7479.85 471.979   1
  -1   4  11 7515.26 458.571   5
  -1   4  10 12285.7 568.088   5
   1  -4 -10 12080.8 422.143   6
  -1   4  10 11595.7 581.195   1
  -1   4   9 4177.38 338.470   1
  -1   4   9 4377.26 321.373   5
   1  -4  -9 4526.39 227.766   6
  -1   4   8 1164.59 154.694   5
   1  -4  -8 1081.05 99.7927   6
  -1   4   8 1080.91 168.951   1
  -1   4   7 17649.5 619.656   5
  -1   4   7 18170.9 717.180   1
   1  -4  -7 18201.3 437.603   6
  -1   4   6 21475.9 773.965   1
  -1   4   6 20253.2 639.418   5
  -1   4   5 395.374 86.5075   5
  -1   4   5 443.199 113.102   1
  -1   4   4 643.501 97.9308   5
  -1   4   4 567.797 120.754   1
  -1   4   3 45993.9 964.078   5
  -1   4   3 47645.7 1252.04   1
   1  -4  -2 21673.3 771.114   4
  -1   4   2 21228.2 520.043   5
   1  -4  -2 19894.7 546.156   5
  -1   4   2 21250.4 769.134   1
   1  -4  -1 3656.70 296.667   4
  -1   4   1 3910.12 169.815   5
   1  -4  -1 3636.07 185.173   5
  -1   4   0 16945.5 372.825   5
   1  -4   0 16023.8 653.904   4
   1  -4   1 20055.2 738.929   4
  -1   4  -1 20046.8 381.643   5
   1  -4   2 29294.2 917.548   4
   1  -4   3 6194.27 383.066   4
   1  -4   4 1818.55 92.1950   2
  -1   4  -4 1819.03 79.5289   5
   1  -4   4 1823.88 209.973   4
   1  -4   5 33453.9 690.151   2
   1  -4   5 34779.6 1025.50   4
  -1   4  -5 34424.5 640.287   5
  -1   4  -6 34.1940 30.5048   5
   1  -4   6-45.5618 63.0322   4
  -1   4  -7 27337.4 630.294   5
   1  -4   7 27659.6 928.554   4
   1  -4   8 7274.93 445.927   4
   1  -4   8 7252.71 368.309   3
   1  -4   9 185.443 84.5491   4
   1  -4   9 343.504 100.137   3
   1  -4  10 5670.00 410.795   4
   1  -4  11 7958.07 386.848   5
   1  -4  11 8210.36 513.222   4
  -1   4 -12 15381.2 517.905   7
   1  -4  12 16048.3 747.680   4
   1  -4  12 16153.7 600.337   5
   1  -4  13 161.119 68.2928   3
  -1   4 -13 261.608 70.1365   7
   1  -4  13 580.816 170.476   4
   1  -4  13 430.296 120.652   5
  -1   4 -14 41302.5 972.771   7
   1  -4  14 42181.4 1180.58   3
   1  -4  14 39704.4 1333.22   4
   1  -4  14 40966.1 1150.77   5
   1  -4  15 14688.2 779.489   4
   1  -4  15 15835.2 681.572   3
   1  -4  15 15453.5 676.130   5
  -1   4 -15 15496.7 519.462   7
   1  -4  16 80.3061 123.748   4
   1  -4  16 58.3425 97.2807   3
   1  -4  16-34.7019 77.7424   5
  -1   4 -16 86.6502 57.9082   7
   1  -4  17 31837.7 1083.90   5
   1  -4  17 31912.1 1082.05   3
   1  -4  18-95.7211 92.7505   5
   1  -4  18 84.8256 107.881   4
   1  -4  18-3.47412 81.0690   3
   1  -4  19 478.722 163.035   4
   1  -4  19 244.996 97.4554   5
   1  -4  20-25.5674 110.871   5
   1  -4  20-40.9088 96.4570   4
   1  -4  21-9.65341 99.9715   4
   1  -4  22 2156.30 352.357   4
   1  -4  23 213.950 152.906   4
   1  -4  24-60.4531 104.086   4
   1  -4  25 216.049 202.923   4
   1  -4  26 673.780 244.517   4
  -1   3  24 620.633 215.377   4
  -1   3  23 883.572 235.022   5
  -1   3  23 1315.75 277.802   4
  -1   3  22 192.521 143.712   5
  -1   3  22 247.797 145.955   4
  -1   3  21 2097.90 341.934   5
  -1   3  21 1281.37 264.057   4
   1  -3 -20 5900.75 476.884   6
  -1   3  20 5545.19 521.670   5
  -1   3  20 4261.49 443.218   4
   1  -3 -19 1487.90 234.211   6
  -1   3  19 1712.64 266.519   4
  -1   3  19 1370.37 260.617   5
  -1   3  18 2500.75 333.704   5
  -1   3  18 2011.90 286.861   4
   1  -3 -18 2197.98 270.635   6
   1  -3 -17 7222.17 470.994   6
  -1   3  17 6767.57 528.759   5
   1  -3 -16 11050.1 571.874   6
  -1   3  16 9964.01 599.915   4
  -1   3  16 10580.8 636.235   5
  -1   3  15 5756.20 434.955   4
   1  -3 -15 6337.20 404.916   6
  -1   3  15 6902.85 492.738   5
  -1   3  14-148.288 106.957   4
  -1   3  14-49.1296 87.6856   5
   1  -3 -14 139.121 75.4306   6
  -1   3  13-18.4392 92.5594   5
   1  -3 -13-11.6089 50.1234   6
  -1   3  13 20.4381 70.5993   4
  -1   3  12 486.223 139.314   5
  -1   3  12 230.959 86.1822   4
  -1   3  11 2308.25 245.726   5
  -1   3  11 2483.39 241.505   4
   1  -3 -10 19674.6 598.995   6
  -1   3  10 19718.2 720.794   5
  -1   3  10 20634.9 736.897   1
   1  -3  -9 27947.0 705.867   6
  -1   3   9 26534.1 835.102   5
  -1   3   9 27092.2 847.319   1
  -1   3   8 1396.85 169.285   5
  -1   3   8 1051.18 150.652   1
   1  -3  -8 1429.56 126.040   6
  -1   3   7 13393.1 548.943   1
  -1   3   7 14181.5 529.496   5
   1  -3  -7 14841.3 416.027   6
   1  -3  -6 122687. 1995.08   6
  -1   3   6 118496. 2196.54   5
  -1   3   6 122142. 2320.73   1
   1  -3  -5 66635.9 1144.90   6
  -1   3   5 67489.4 1340.62   5
  -1   3   5 67000.4 1460.54   1
  -1   3   4 27005.1 787.724   1
  -1   3   4 27303.3 670.730   5
   1  -3  -3 4006.77 215.119   5
  -1   3   3 3867.13 202.114   5
  -1   3   3 4347.10 281.240   1
   1  -3  -2 34516.9 747.809   5
   1  -3  -2 34947.6 931.061   4
  -1   3   2 34668.6 920.682   1
  -1   3   2 34176.2 715.728   5
  -1   3   1 6402.98 218.392   5
   1  -3  -1 7114.91 364.437   4
   1  -3  -1 6510.06 238.403   5
  -1   3   0 12449.7 300.861   5
   1  -3   0 12040.8 491.027   4
  -1   3  -1 3171.97 120.821   5
   1  -3   1 3023.98 233.657   4
   1  -3   2 2950.62 232.863   4
   1  -3   3 5662.46 323.201   4
  -1   3  -3 5723.16 165.298   5
  -1   3  -4 92.1959 25.7130   5
   1  -3   4 49.9520 41.4676   4
  -1   3  -5 11603.2 323.241   5
   1  -3   5 11436.4 487.761   4
  -1   3  -6 1128.51 101.071   5
   1  -3   6 891.849 110.521   3
   1  -3   6 963.282 140.271   4
  -1   3  -7 2123.33 155.527   5
   1  -3   7 1716.78 155.229   3
   1  -3   7 2100.59 212.969   4
   1  -3   8 15759.7 622.391   4
   1  -3   8 15051.4 494.270   5
   1  -3   8 16449.1 532.026   3
   1  -3   9 30987.7 813.272   5
   1  -3   9 32559.8 976.211   4
   1  -3   9 32462.4 842.448   3
   1  -3  10 29085.0 946.313   4
   1  -3  10 29856.3 825.941   5
   1  -3  10 31169.3 842.614   3
   1  -3  11 22115.9 719.866   5
   1  -3  11 22440.6 826.391   4
  -1   3 -11 22751.5 582.160   7
   1  -3  12 83.1422 59.6753   5
   1  -3  12-0.96523 71.4256   4
  -1   3 -12 113.142 42.1561   7
  -1   3 -13 96.3044 38.7039   7
   1  -3  13 130.202 55.3522   3
   1  -3  13 14.9831 59.8496   4
   1  -3  13 159.146 77.3096   5
   1  -3  14 22320.5 900.133   4
  -1   3 -14 22775.8 575.985   7
   1  -3  14 21708.2 807.724   5
   1  -3  14 21999.6 789.250   3
  -1   3 -15 454.522 72.1780   7
   1  -3  15 309.451 116.067   5
   1  -3  15 237.360 83.9345   3
   1  -3  15 355.657 106.564   4
   1  -3  16 6745.57 467.343   5
   1  -3  16 6693.87 506.365   4
  -1   3 -16 6777.91 271.116   7
   1  -3  17 9971.52 586.976   5
   1  -3  17 9783.57 631.457   4
   1  -3  18 309.399 128.127   4
   1  -3  18 680.824 168.307   5
   1  -3  19 181.053 117.020   5
   1  -3  19 254.290 129.084   4
   1  -3  20 188.162 100.234   5
   1  -3  20 108.770 102.545   4
   1  -3  21 962.842 218.361   5
   1  -3  21 997.393 246.079   4
   1  -3  22 107.187 122.633   5
   1  -3  22 312.664 157.051   4
   1  -3  23-139.971 139.524   5
   1  -3  23-145.434 132.557   4
   1  -3  24-186.939 140.108   4
   1  -3  25 1543.26 317.764   4
   1  -3  26 951.765 291.782   4
  -1   2  25 685.341 255.740   4
  -1   2  24-22.9296 140.593   5
   1  -2 -24 57.5428 107.859   6
  -1   2  24 188.857 143.576   4
  -1   2  23 333.231 172.377   4
  -1   2  23 244.506 136.258   5
   1  -2 -23 184.563 164.863   6
  -1   2  22 2255.86 354.803   5
   1  -2 -22 2375.28 342.080   6
  -1   2  22 2273.08 343.186   4
  -1   2  21 7345.17 600.784   5
   1  -2 -21 6848.25 561.448   6
  -1   2  21 7620.98 596.029   4
   1  -2 -20 69.6525 105.767   6
  -1   2  20 46.7402 102.284   5
  -1   2  20 131.830 147.998   4
   1  -2 -19 47.4727 95.3566   6
  -1   2  19 81.1404 93.9424   4
  -1   2  19 5.26452 104.361   5
  -1   2  18-182.009 115.113   4
   1  -2 -18 92.7801 95.8595   6
  -1   2  18 132.764 105.855   5
  -1   2  17-70.7138 97.8981   5
   1  -2 -17 166.947 107.935   6
  -1   2  17-35.5500 102.490   4
  -1   2  16 12711.4 680.668   5
  -1   2  16 12766.4 646.059   4
  -1   2  15 1933.51 266.198   5
  -1   2  15 1821.38 235.357   4
  -1   2  14-63.0947 85.0941   5
  -1   2  14 88.9936 71.5543   4
  -1   2  13 6818.85 416.610   4
  -1   2  13 7015.72 452.391   5
  -1   2  12 7718.80 422.591   4
  -1   2  12 8782.06 481.740   5
  -1   2  11 22345.7 737.679   4
  -1   2  11 22886.2 795.374   5
  -1   2  10 1589.95 189.506   5
  -1   2  10 1500.48 173.119   4
  -1   2   9 5643.57 338.694   5
  -1   2   9 5437.40 315.141   4
  -1   2   8 53239.4 1230.04   5
  -1   2   8 55212.8 1214.82   1
   1  -2  -7 20.7914 27.6256   6
  -1   2   7-44.5131 55.3279   1
  -1   2   7 0.71857 51.2192   5
  -1   2   6 27780.4 736.745   5
   1  -2  -6 28981.7 650.475   6
  -1   2   6 29445.9 753.545   1
  -1   2   5 55097.4 1140.42   5
   1  -2  -5 56087.1 1028.41   6
  -1   2   5 56278.7 1169.99   1
  -1   2   4 10.0721 34.7674   1
   1  -2  -4 46.8441 25.8203   6
  -1   2   4 32.7791 31.8572   5
  -1   2   3 338572. 5283.74   5
  -1   2   3 352947. 5381.98   1
  -1   2   3 338513. 5126.28   6
  -1   2   2 196828. 3124.87   5
  -1   2   2 199863. 3262.07   1
   1  -2  -2 202438. 3286.33   4
  -1   2   1 869832. 12876.6   5
   1  -2  -1 877485. 13068.7   4
   1  -2   0 1225.10 121.610   4
   1  -2   1 10439.6 377.375   4
   1  -2   2 636.761 97.2717   4
   1  -2   3 96904.9 1780.87   4
   1  -2   4 132076. 2146.35   3
  -1   2  -4 132156. 2133.19   5
   1  -2   4 133317. 2327.99   4
   1  -2   5 99611.5 1697.13   3
   1  -2   5 97855.1 1855.21   4
  -1   2  -5 100329. 1704.75   5
   1  -2   6 5009.60 228.419   3
   1  -2   6 4551.40 275.547   4
   1  -2   6 4611.83 229.072   5
  -1   2  -6 5170.80 239.296   5
   1  -2   7 37966.4 848.134   3
   1  -2   7 37017.8 945.916   4
   1  -2   7 38144.5 876.127   5
   1  -2   8 44425.7 1107.96   4
   1  -2   8 46882.8 1008.59   3
   1  -2   8 45498.7 1036.37   5
   1  -2   9 41182.3 1009.29   5
   1  -2   9 43409.9 987.219   3
   1  -2   9 40920.4 1073.93   4
   1  -2  10 134.925 52.4898   3
   1  -2  10 142.877 69.5447   4
  -1   2 -10 263.455 44.9099   7
   1  -2  10 259.247 77.2306   5
   1  -2  11 766.706 127.637   5
  -1   2 -11 683.454 67.2089   7
   1  -2  11 799.158 143.931   4
   1  -2  12 10159.2 514.376   4
   1  -2  12 9126.45 465.179   5
  -1   2 -12 8709.64 262.285   7
  -1   2 -13 8810.31 258.662   7
   1  -2  13 8270.34 464.975   5
   1  -2  13 9214.43 511.586   4
   1  -2  14 371.055 116.946   4
   1  -2  14 315.430 97.8043   5
  -1   2 -14 330.644 46.0963   7
   1  -2  15 6258.62 451.789   4
   1  -2  15 7170.48 464.064   5
   1  -2  16 3409.94 334.999   5
   1  -2  16 3053.15 325.138   4
   1  -2  17 1793.53 261.036   5
   1  -2  17 1816.08 263.230   4
   1  -2  18 1592.47 251.038   5
   1  -2  18 1857.79 274.993   4
   1  -2  19 2169.82 318.569   4
   1  -2  19 1828.83 279.710   5
   1  -2  20 789.181 219.192   4
   1  -2  20 393.129 151.351   5
   1  -2  21 2561.76 351.992   5
   1  -2  21 2463.61 341.830   4
   1  -2  22 335.648 145.684   5
   1  -2  22 436.556 192.715   4
   1  -2  23 659.135 205.611   5
   1  -2  23 897.254 241.090   4
   1  -2  24 151.736 131.749   5
   1  -2  24 39.9987 115.201   4
   1  -2  25 467.562 176.240   4
   1  -2  26 1125.42 296.665   4
  -1   1  26 669.889 222.174   4
   1  -1 -26 1169.20 276.645   6
  -1   1  25-86.0442 149.425   5
  -1   1  25-121.014 139.709   4
   1  -1 -25-3.88058 124.652   6
  -1   1  24 1752.09 327.171   4
  -1   1  24 1457.54 314.746   5
   1  -1 -24 1978.87 334.262   6
   1  -1 -23 2354.16 365.764   6
  -1   1  23 2218.61 345.130   4
  -1   1  23 1948.78 331.727   5
  -1   1  22 3639.35 422.593   4
  -1   1  22 4076.86 459.712   5
   1  -1 -22 4432.01 475.846   6
  -1   1  21 806.697 210.151   4
  -1   1  21 607.839 173.844   5
   1  -1 -21 883.035 226.051   6
   1  -1 -20 93.3059 116.226   6
  -1   1  20-42.6941 99.6006   5
  -1   1  20 9.05021 81.5123   4
  -1   1  19 30.1226 108.851   5
  -1   1  19 110.679 88.5517   4
   1  -1 -19 234.451 116.454   6
  -1   1  18 8754.74 584.822   5
  -1   1  18 8017.10 533.610   4
  -1   1  17 2544.70 288.428   4
  -1   1  17 3171.17 343.675   5
  -1   1  16 1394.60 213.092   4
  -1   1  16 913.519 185.760   5
  -1   1  15 7533.25 485.676   5
  -1   1  15 6285.12 414.254   4
  -1   1  14 11619.1 593.670   5
  -1   1  14 11326.1 542.319   4
  -1   1  13 2252.67 128.906   7
  -1   1  13 2380.54 263.782   5
  -1   1  13 2298.93 229.496   4
  -1   1  12 14828.1 575.564   4
  -1   1  12 14408.1 379.966   7
  -1   1  12 15778.8 643.134   5
  -1   1  11 415.465 55.8702   7
  -1   1  11 438.616 112.113   5
  -1   1  11 431.056 95.3628   4
  -1   1  10 22730.0 683.161   4
  -1   1  10 23827.0 755.543   5
  -1   1   9 2235.96 203.984   5
  -1   1   9 2574.38 195.150   4
  -1   1   8 2245.13 170.830   4
  -1   1   8 2224.10 191.024   5
  -1   1   7 1074.81 128.435   5
  -1   1   7 942.817 106.024   4
  -1   1   6 85821.2 1645.32   5
   1  -1  -6 87500.9 1581.97   1
   1  -1  -6 90258.5 1586.88   6
  -1   1   5 67656.5 1310.21   5
   1  -1  -5 69173.4 1255.32   6
  -1   1   4 223600. 3424.34   1
  -1   1   4 218875. 3505.31   5
   1  -1  -4 219659. 3445.78   6
  -1   1   3 12370.6 366.626   5
  -1   1   3 13447.5 338.324   1
   1  -1  -3 12688.9 336.119   6
  -1   1  -3 599.388 49.5276   3
   1  -1   3 758.701 80.5924   4
   1  -1   4 98123.4 1684.43   4
  -1   1  -4 94046.5 1553.52   3
   1  -1   5 4038.31 210.045   5
   1  -1   5 3691.03 211.412   4
  -1   1  -5 4313.01 183.415   3
  -1   1  -6 104436. 1770.38   3
   1  -1   6 101607. 1878.89   4
   1  -1   6 103127. 1862.40   5
   1  -1   7 23104.2 662.009   4
   1  -1   7 22834.9 652.221   5
   1  -1   8 1911.81 181.044   5
   1  -1   8 1751.03 174.243   4
  -1   1  -8 1361.28 60.2792   7
   1  -1   9 173369. 2718.49   4
   1  -1   9 176816. 2700.61   5
   1  -1  10 11259.8 487.338   5
   1  -1  10 10564.5 485.831   4
   1  -1  11 9076.04 465.428   4
   1  -1  11 9405.74 461.843   5
   1  -1  12 1006.06 168.936   5
   1  -1  12 1046.07 165.893   4
   1  -1  13 5962.83 401.246   4
   1  -1  13 5712.94 389.813   5
   1  -1  14 9092.99 523.574   4
   1  -1  14 9054.55 516.106   5
   1  -1  15 1022.11 184.194   5
   1  -1  15 761.050 166.876   4
   1  -1  16 1061.73 201.122   4
   1  -1  16 1533.05 238.505   5
   1  -1  17 2063.49 281.394   4
   1  -1  17 2463.78 301.842   5
   1  -1  18 158.440 114.802   4
   1  -1  18 44.7264 118.412   5
   1  -1  19 3023.99 357.075   5
   1  -1  19 2272.92 313.863   4
   1  -1  20 13431.0 794.819   4
   1  -1  20 15246.5 839.366   5
   1  -1  21 562.843 195.795   5
   1  -1  21 434.472 181.259   4
   1  -1  22 95.4096 122.957   5
   1  -1  22-238.030 173.303   4
   1  -1  23 1240.72 268.566   5
   1  -1  23 1782.03 314.490   4
   1  -1  24 705.855 222.519   4
   1  -1  24 308.539 157.130   5
   1  -1  25 1951.65 354.949   4
   1  -1  26 773.582 248.213   4
  -1   0  26-265.899 169.821   4
   1   0 -26 113.169 142.098   6
  -1   0  25 419.197 171.644   4
  -1   0  25 518.843 176.232   5
   1   0 -25 579.270 221.161   6
  -1   0  24 1108.29 255.156   4
  -1   0  24 1270.63 269.930   5
   1   0 -24 1490.07 309.996   6
  -1   0  23 2920.72 390.935   5
  -1   0  23 2946.59 382.563   4
   1   0 -23 3958.05 485.426   6
  -1   0  22 74.0382 110.265   4
   1   0 -22 9.60297 105.229   6
  -1   0  22 37.5686 102.403   5
  -1   0  21 87.0285 96.4751   4
  -1   0  21 40.4154 110.397   5
   1   0 -21 145.536 134.645   6
   1   0 -20 252.579 136.950   6
  -1   0  20 313.213 140.381   4
  -1   0  20 388.197 154.184   5
   1   0 -19 1070.58 218.822   6
  -1   0  19 671.370 162.260   4
  -1   0  19 810.480 197.086   5
  -1   0  18 1008.56 194.433   4
  -1   0  18 1227.20 230.908   5
  -1   0  17 1970.81 251.141   4
  -1   0  17 1827.03 261.132   5
  -1   0  16 603.162 152.158   5
  -1   0  16 1056.84 177.935   4
  -1   0  15 3865.22 341.475   5
  -1   0  15 3795.45 314.683   4
  -1   0  14 1129.32 165.531   4
  -1   0  14 1390.56 199.867   5
  -1   0  13 7016.54 257.901   7
  -1   0  13 7559.45 405.826   4
  -1   0  13 8448.12 465.849   5
  -1   0  12 1155.98 149.953   4
  -1   0  12 920.582 152.303   5
  -1   0  12 930.267 87.8540   7
  -1   0  11 3018.51 256.036   5
  -1   0  11 2885.20 152.257   7
  -1   0  11 2640.87 213.257   4
  -1   0  10 63615.9 1394.11   5
  -1   0  10 61409.2 1113.75   7
  -1   0  10 61655.7 1296.92   4
  -1   0   9 6834.43 309.374   4
  -1   0   9 7101.33 359.940   5
  -1   0   9 7314.99 244.069   7
  -1   0   8 4646.26 186.145   7
  -1   0   8 4755.59 274.202   5
  -1   0   8 4856.57 238.535   4
  -1   0   7 943.077 96.5291   4
  -1   0   7 990.925 78.9834   7
  -1   0   7 946.814 116.078   5
   1   0  -7 992.597 99.4812   4
   1   0  -6 99175.9 1700.93   4
   1   0  -6 104575. 1828.20   6
  -1   0   6 102703. 1821.97   5
  -1   0   6 102394. 1650.19   7
  -1   0   6 97543.6 1689.22   4
  -1   0   5 172525. 2760.64   5
   1   0  -5 166047. 2762.98   6
   1   0  -5 167768. 2747.11   3
  -1   0   5 172254. 2611.54   7
  -1   0   5 164790. 2616.24   4
   1   0  -4 3374.16 182.960   6
  -1   0   4 3609.63 131.888   4
   1   0  -4 3171.81 173.249   3
  -1   0   4 3327.89 183.017   5
  -1   0   4 3604.28 144.445   7
  -1   0   3 17684.3 335.211   4
  -1   0   3 17503.6 384.406   7
   1   0  -3 18275.9 456.589   6
  -1   0   3 17358.9 448.392   5
   1   0  -3 17773.0 439.329   3
   1   0   2 25796.5 527.375   4
   1   0   3 4052.83 181.075   4
   1   0   4 114355. 1946.13   4
   1   0   4 115882. 1979.23   5
   1   0   5 9406.00 360.448   5
   1   0   5 9590.95 347.750   4
   1   0   6 40505.9 940.049   5
   1   0   6 39771.7 907.265   4
   1   0   7 4002.36 254.674   5
   1   0   7 4272.78 256.182   4
   1   0   8 9369.11 417.293   5
   1   0   8 8699.38 394.784   4
   1   0   9 394.586 100.531   4
   1   0   9 684.124 128.110   5
   1   0  10 78651.1 1685.70   4
   1   0  10 78461.1 1697.58   5
   1   0  11 17203.7 668.259   5
   1   0  11 16804.0 648.041   4
   1   0  12 314.334 105.192   4
   1   0  12 171.089 97.5369   5
   1   0  13 6458.86 418.690   4
   1   0  13 6534.29 429.822   5
   1   0  14 1963.71 247.641   5
   1   0  14 2588.92 276.821   4
   1   0  15 280.217 103.463   4
   1   0  15 102.193 91.0285   5
   1   0  16-19.4382 88.7838   5
   1   0  16-102.803 113.026   4
   1   0  17 946.724 200.424   5
   1   0  17 1092.51 204.352   4
   1   0  18 1060.34 216.901   4
   1   0  18 782.699 200.041   5
   1   0  19 8932.46 621.582   4
   1   0  19 9762.19 661.738   5
   1   0  20 5394.72 502.232   5
   1   0  20 4224.02 444.275   4
   1   0  21-146.289 123.601   4
   1   0  21 209.167 149.494   5
   1   0  22-157.120 137.543   5
   1   0  22 294.367 164.695   4
   1   0  23 483.598 150.787   5
   1   0  23 514.691 189.118   4
   1   0  24-0.79998 118.730   5
   1   0  24 205.256 120.089   4
   1   0  25 415.923 169.148   4
   1   1 -26-0.94596 105.939   6
  -1  -1  26-19.2641 126.518   5
  -1  -1  25-104.875 153.911   5
  -1  -1  25 143.744 110.078   4
   1   1 -25 25.3665 137.559   6
  -1  -1  24 2527.04 368.047   4
  -1  -1  24 2372.33 364.210   5
   1   1 -24 2098.04 365.430   6
   1   1 -23 2164.12 357.660   6
  -1  -1  23 1919.73 316.288   5
  -1  -1  23 1261.54 257.956   4
  -1  -1  22-28.7494 100.721   5
  -1  -1  22-21.8227 83.9315   4
   1   1 -22 161.332 141.210   6
  -1  -1  21 249.668 104.083   4
  -1  -1  21 538.952 175.115   5
   1   1 -20 5074.91 492.351   6
  -1  -1  20 4566.48 437.247   5
  -1  -1  20 4612.99 424.722   4
   1   1 -19 935.403 233.095   6
  -1  -1  19 535.455 140.446   4
  -1  -1  19 779.369 203.072   5
  -1  -1  18 15080.3 749.590   5
  -1  -1  18 15128.1 721.921   4
  -1  -1  17 1393.58 228.831   5
  -1  -1  17 1140.18 191.606   4
  -1  -1  16 3247.53 316.613   5
  -1  -1  16 3049.95 288.815   4
  -1  -1  15 2279.09 259.548   3
  -1  -1  15 2174.35 253.281   5
  -1  -1  15 1985.85 230.500   4
  -1  -1  14 717.702 145.268   5
  -1  -1  14 575.626 117.697   4
  -1  -1  14 875.710 163.058   3
  -1  -1  13 99.9882 68.3002   3
  -1  -1  13 201.905 97.1208   5
  -1  -1  13-18.6448 57.6553   4
  -1  -1  12 3068.02 264.357   5
  -1  -1  12 2659.53 228.921   4
  -1  -1  11 1820.56 194.275   5
  -1  -1  11 1620.44 171.090   4
  -1  -1  10 8237.07 395.238   5
  -1  -1  10 8293.15 366.683   4
   1   1 -10 8182.66 300.060   7
  -1  -1   9 28516.5 726.369   4
   1   1  -9 27928.7 641.412   7
  -1  -1   9 28070.5 779.228   5
  -1  -1   8 21239.1 567.337   4
   1   1  -8 21055.7 520.881   7
  -1  -1   8 21616.5 630.367   5
  -1  -1   7 83096.7 1550.12   5
  -1  -1   7 83122.5 1443.87   7
   1   1  -7 81077.3 1431.10   4
   1   1  -7 80877.3 1432.18   7
  -1  -1   7 80489.0 1465.60   4
  -1  -1   6 12034.6 347.952   7
   1   1  -6 11147.5 317.815   4
   1   1  -6 11776.7 433.257   6
   1   1  -6 11357.6 338.481   7
  -1  -1   6 11425.4 391.301   5
  -1  -1   6 11083.0 334.764   4
   1   1  -5 7647.99 320.753   6
   1   1  -5 7458.51 227.794   4
   1   1  -5 7535.43 307.572   5
  -1  -1   5 7664.48 264.692   7
  -1  -1   5 7597.67 291.213   5
  -1  -1   5 7817.65 248.582   4
  -1  -1   4 23901.1 536.282   7
   1   1  -4 22447.1 598.130   6
   1   1  -4 23083.6 462.237   4
  -1  -1   4 22904.9 490.696   4
   1   1  -4 24925.4 619.674   2
  -1  -1   4 24623.9 563.664   5
  -1  -1   3 64121.8 1186.48   5
  -1  -1   3 68679.6 1189.01   7
   1   1  -3 67682.1 1264.70   6
  -1  -1   3 68295.0 1128.13   4
   1   1  -3 65376.3 1258.40   2
   1   1  -3 67578.3 1100.35   4
   1   1  -2 15.2741 16.4517   4
  -1  -1   2 2.63344 21.3254   7
   1   1  -2-3.42966 27.8564   6
  -1  -1   2 23.4298 16.5119   4
   1   1  -2-17.0782 27.3250   2
   1   1  -1 72683.7 1219.84   4
  -1  -1   1 77233.2 1261.30   7
   1   1  -1 72569.2 1349.74   2
   1   1  -1 70765.7 1274.09   1
  -1  -1   0 161313. 2612.61   7
   1   1   0 167360. 2644.78   1
   1   1   1 4726.05 201.531   1
   1   1   2 190026. 3028.92   1
   1   1   3 277239. 4191.02   7
   1   1   3 276382. 4329.93   1
   1   1   4 3580.27 201.640   1
   1   1   4 3612.45 138.989   7
   1   1   4 3356.01 192.249   4
   1   1   5 33798.9 827.104   5
   1   1   5 33226.1 613.915   7
   1   1   5 34147.2 794.982   4
   1   1   6 8399.55 375.782   5
   1   1   6 8132.43 350.727   4
   1   1   6 7925.11 210.568   7
   1   1   7 6380.44 177.671   7
   1   1   7 6739.43 348.588   5
   1   1   7 6841.10 334.930   4
   1   1   8 8.14774 10.4940   7
   1   1   8 28.5836 57.2029   5
   1   1   9 1109.12 56.6722   7
   1   1   9 1524.92 174.843   4
   1   1   9 1321.49 172.710   5
   1   1  10 25.2314 74.7717   4
   1   1  10 64.1667 75.5355   5
   1   1  11 1782.08 208.879   4
   1   1  11 1584.96 206.171   5
   1   1  12 5953.60 413.904   5
   1   1  12 5882.92 395.508   4
   1   1  13 30618.9 1029.03   5
   1   1  13 29639.2 989.078   4
   1   1  14 7518.39 483.098   4
   1   1  14 6788.54 471.529   5
   1   1  15 1630.81 247.320   4
   1   1  15 1319.32 219.062   5
   1   1  16 5891.16 457.249   4
   1   1  16 5456.31 453.475   5
   1   1  17 295.139 139.799   5
   1   1  17 649.515 171.814   4
   1   1  18 8547.53 604.245   4
   1   1  18 8252.09 598.491   5
   1   1  19 2159.10 324.704   5
   1   1  19 2301.77 323.203   4
   1   1  20 314.594 158.974   5
   1   1  20 565.822 183.605   4
   1   1  21 317.849 149.025   4
   1   1  21 310.773 142.880   5
   1   1  22-59.7497 143.368   5
   1   1  22 239.298 161.431   4
   1   1  23-45.9549 132.677   5
   1   1  23 83.4558 116.200   4
   1   1  24 399.682 198.292   4
   1   1  24 160.247 145.397   5
   1   1  25 766.626 257.592   4
  -1  -2  26 812.068 253.756   5
   1   2 -25 420.180 224.057   6
  -1  -2  25 286.604 156.308   5
  -1  -2  24 1097.99 253.632   5
   1   2 -24 1688.09 365.871   6
   1   2 -23 1059.26 286.225   6
  -1  -2  23 1138.55 253.059   5
  -1  -2  23 1208.16 244.950   4
   1   2 -22 1427.86 298.172   6
  -1  -2  22 1370.39 264.204   5
  -1  -2  22 915.348 214.375   4
   1   2 -21 5268.89 536.029   6
  -1  -2  21 3600.77 394.796   4
  -1  -2  21 4532.77 444.304   5
  -1  -2  20 670.388 171.458   4
   1   2 -20 837.247 228.395   6
  -1  -2  20 465.543 161.338   5
  -1  -2  19 1573.52 243.077   4
  -1  -2  19 1348.87 228.012   5
   1   2 -19 1546.76 280.880   6
  -1  -2  18 1048.56 190.937   4
  -1  -2  18 1063.79 204.121   5
   1   2 -18 1301.80 272.017   6
  -1  -2  18 1252.99 221.331   3
  -1  -2  17 504.043 141.880   5
  -1  -2  17 1015.51 197.499   3
  -1  -2  17 640.288 154.415   4
  -1  -2  16 1878.19 250.437   3
  -1  -2  16 2045.72 252.676   5
  -1  -2  16 2017.53 239.866   4
  -1  -2  15 591.335 152.553   3
  -1  -2  15 557.530 135.299   4
  -1  -2  15 293.150 111.429   5
  -1  -2  14 6618.68 432.004   3
  -1  -2  14 6248.25 390.599   4
  -1  -2  14 6677.44 419.065   5
   1   2 -14 6576.53 308.611   7
  -1  -2  13 71.3866 73.4673   3
   1   2 -13-30.2772 39.3351   7
  -1  -2  13 4.79474 59.1953   5
  -1  -2  13 3.47110 44.6480   4
  -1  -2  12 1139.21 159.460   5
  -1  -2  12 1239.79 158.180   4
   1   2 -12 990.866 115.680   7
  -1  -2  12 1208.28 176.453   3
  -1  -2  11 162.717 69.1554   5
   1   2 -11 182.776 48.5062   7
  -1  -2  11 269.637 82.2171   4
  -1  -2  10 10862.0 446.256   5
   1   2 -10 10666.3 385.623   7
  -1  -2  10 9951.73 437.579   4
  -1  -2   9 104800. 1993.03   4
  -1  -2   9 107167. 1980.81   5
   1   2  -9 106659. 1896.01   7
   1   2  -8 20094.3 687.921   6
  -1  -2   8 19716.4 578.077   5
  -1  -2   8 19275.2 587.991   4
   1   2  -8 20430.0 558.630   7
   1   2  -7 227469. 3604.42   7
   1   2  -7 220039. 3545.84   4
  -1  -2   7 224739. 3606.04   5
   1   2  -7 220026. 3769.54   6
  -1  -2   7 223602. 3652.31   4
   1   2  -6 10133.1 361.084   7
  -1  -2   6 10108.8 368.597   4
   1   2  -6 10246.6 330.757   4
  -1  -2   6 10249.4 347.740   5
   1   2  -6 9984.64 427.117   6
   1   2  -6 9942.76 381.133   5
   1   2  -5 16299.1 531.040   6
  -1  -2   5 16427.1 545.741   2
  -1  -2   5 16077.0 437.817   5
   1   2  -5 15781.1 437.805   4
  -1  -2   5 16436.0 481.641   4
  -1  -2   4 140980. 2513.70   2
  -1  -2   4 143704. 2333.67   5
   1   2  -4 145187. 2457.59   2
   1   2  -4 146742. 2381.73   4
   1   2  -4 140324. 2476.34   6
  -1  -2   4 144798. 2412.37   4
  -1  -2   3 4021.16 208.974   4
   1   2  -3 3416.37 187.129   4
  -1  -2   3 3920.64 229.710   2
   1   2  -3 3449.67 208.934   6
   1   2  -3 3645.93 208.910   2
   1   2  -2 10093.9 360.324   6
   1   2  -2 10408.5 376.362   2
   1   2  -2 9891.42 352.721   4
  -1  -2   2 10800.2 360.478   4
  -1  -2   2 11454.1 365.392   6
  -1  -2   2 10594.8 394.677   2
  -1  -2   1 422.417 62.9539   6
   1   2  -1 411.697 79.8557   1
   1   2  -1 204.013 47.8255   2
   1   2  -1 390.751 68.2235   4
   1   2   0 139.380 55.2209   1
   1   2   0 169.809 47.5854   4
   1   2   1 1381.01 135.918   1
  -1  -2  -2 86734.0 1540.77   5
   1   2   2 86977.9 1659.23   1
   1   2   3 2700.98 200.922   1
   1   2   4 4527.28 267.512   1
   1   2   5 178.320 56.0809   5
   1   2   5 180.318 68.0507   1
   1   2   6 8063.67 370.641   4
   1   2   6 7276.20 368.941   5
   1   2   6 6922.99 358.030   1
   1   2   7 76811.1 1645.19   5
   1   2   7 78859.2 1621.94   4
   1   2   8 22871.1 736.363   4
   1   2   8 22193.0 751.573   5
   1   2   9 7003.58 394.847   4
   1   2   9 6984.49 412.912   5
   1   2   9 6664.42 230.010   7
   1   2  10 30357.1 921.428   4
   1   2  10 29189.1 938.971   5
   1   2  10 27618.7 577.891   7
   1   2  11 35052.2 1052.72   4
   1   2  11 35964.0 1089.11   5
   1   2  11 33614.4 656.457   7
   1   2  12 217.630 115.146   5
   1   2  12 223.667 36.3799   7
   1   2  12 42.2736 86.3451   4
   1   2  13 19529.5 786.428   4
   1   2  13 21066.3 842.941   5
   1   2  14 9798.27 570.977   4
   1   2  14 10851.6 619.660   5
   1   2  15 565.677 162.305   5
   1   2  15 773.594 183.450   4
   1   2  16 5407.66 471.510   5
   1   2  16 6265.66 486.323   4
   1   2  17 3729.15 397.351   5
   1   2  17 3735.95 396.035   4
   1   2  18 2396.74 329.624   4
   1   2  18 2183.15 335.614   5
   1   2  19 127.736 124.423   4
   1   2  19 319.137 147.481   5
   1   2  20 77.5104 102.644   4
   1   2  20-444.670 176.218   5
   1   2  21 110.139 114.359   5
   1   2  21 519.673 187.602   4
   1   2  22-91.9078 135.021   5
   1   2  22 392.968 179.853   4
   1   2  23 599.002 226.927   4
   1   2  24 46.3113 138.452   4
  -1  -3  26 553.819 192.887   5
   1   3 -25 188.550 143.457   6
  -1  -3  25 175.707 126.559   5
  -1  -3  24 1717.66 307.098   5
   1   3 -24 2825.51 453.425   6
  -1  -3  23 235.389 140.150   5
   1   3 -23 581.442 234.112   6
   1   3 -22 299.054 172.679   6
  -1  -3  22-123.006 119.211   5
  -1  -3  21 2640.18 343.731   3
  -1  -3  21 2262.33 314.635   4
  -1  -3  21 3002.87 359.259   5
  -1  -3  20 1240.98 238.420   3
   1   3 -20 1041.07 260.690   6
  -1  -3  20 883.531 202.852   4
  -1  -3  20 1307.61 242.078   5
  -1  -3  19 29.9516 82.7430   4
  -1  -3  19 4.60376 88.3239   3
   1   3 -19 209.042 144.313   6
  -1  -3  19-125.946 116.153   5
  -1  -3  18 721.058 167.426   3
   1   3 -18 687.643 198.667   6
  -1  -3  18 290.934 120.504   5
  -1  -3  18 570.912 155.888   4
  -1  -3  17 8334.64 516.858   5
   1   3 -17 9044.77 629.951   6
  -1  -3  17 7787.15 520.200   4
   1   3 -17 7631.67 381.764   7
  -1  -3  17 8845.96 558.635   3
  -1  -3  16 1318.81 214.260   4
  -1  -3  16 1488.11 223.571   3
   1   3 -16 1380.43 246.783   6
  -1  -3  16 1092.12 175.772   5
   1   3 -16 1492.41 163.247   7
   1   3 -15 3155.84 373.958   6
   1   3 -15 3780.41 259.185   7
  -1  -3  15 3504.03 329.614   4
  -1  -3  15 3813.17 349.947   3
  -1  -3  15 3704.43 312.004   5
   1   3 -14 597.833 176.421   6
  -1  -3  14 569.395 134.828   4
  -1  -3  14 459.813 124.927   3
  -1  -3  14 483.328 117.319   5
   1   3 -14 215.559 68.9709   7
  -1  -3  13 837.948 157.022   3
  -1  -3  13 1067.83 152.888   5
   1   3 -13 904.182 128.877   7
   1   3 -13 749.166 180.714   6
  -1  -3  13 588.152 132.145   4
  -1  -3  12 3503.20 291.967   4
   1   3 -12 3348.92 237.854   7
   1   3 -12 3447.72 340.938   6
  -1  -3  12 3005.72 249.398   5
  -1  -3  12 3610.59 313.321   3
  -1  -3  11 492.001 121.189   4
  -1  -3  11 603.344 133.078   3
   1   3 -11 316.829 77.6597   7
   1   3 -11 447.867 125.024   6
  -1  -3  11 439.429 99.0274   5
  -1  -3  10 25402.9 801.996   4
   1   3 -10 24777.3 866.679   6
  -1  -3  10 25860.1 721.912   5
   1   3 -10 25088.1 721.297   7
   1   3  -9 398.198 119.361   6
   1   3  -9 405.350 88.0390   7
  -1  -3   9 564.109 90.9632   5
  -1  -3   9 489.245 101.439   4
   1   3  -8 2860.63 211.078   7
  -1  -3   8 2831.21 231.506   4
   1   3  -8 3010.12 260.578   6
  -1  -3   8 3076.70 194.325   5
   1   3  -7 5167.60 284.664   7
  -1  -3   7 4873.45 231.468   5
  -1  -3   7 4551.64 288.646   4
   1   3  -7 4618.97 310.219   6
  -1  -3   6 18286.4 472.754   5
   1   3  -6 17716.2 621.786   6
  -1  -3   6 17211.1 584.345   4
   1   3  -5 2061.53 188.347   6
   1   3  -5 1772.23 163.847   4
   1   3  -5 1858.35 162.670   2
  -1  -3   5 2012.37 182.878   4
  -1  -3   5 1927.51 124.521   5
  -1  -3   4 1515.52 157.566   2
   1   3  -4 1494.84 155.909   6
   1   3  -4 1758.28 154.797   2
  -1  -3   4 1568.46 106.216   5
  -1  -3   4 1463.08 159.345   4
   1   3  -4 1780.56 166.713   4
   1   3  -3 36069.7 872.673   2
   1   3  -3 35856.4 887.465   6
  -1  -3   3 37091.1 917.489   2
  -1  -3   3 38396.3 929.169   4
   1   3  -3 36604.8 915.028   4
   1   3  -2 7.06587 42.3161   2
  -1  -3   2 19.9003 41.6023   4
  -1  -3   1 4763.08 226.920   6
   1   3  -1 4167.80 258.120   2
   1   3  -1 4432.76 295.579   1
   1   3   0 13.0743 45.0898   1
  -1  -3   0 27.2466 20.9262   6
  -1  -3   0 7.67393 19.4597   5
   1   3   1 1573.35 177.321   1
  -1  -3  -1 1557.71 116.185   6
  -1  -3  -1 1423.12 114.775   5
  -1  -3  -2 3818.99 205.561   5
   1   3   2 3951.03 279.930   1
   1   3   3 119897. 2306.85   1
   1   3   4 63631.3 1457.93   1
   1   3   5 33506.4 960.297   1
   1   3   6 76.1709 56.9187   1
   1   3   7 23255.8 767.736   5
   1   3   7 22630.7 779.628   1
   1   3   8 20663.8 754.871   1
   1   3   8 19891.4 736.320   5
   1   3   8 21947.2 753.163   4
   1   3   9 11285.0 553.488   5
   1   3   9 11212.0 538.927   4
   1   3  10 10894.6 548.101   4
   1   3  10 11201.6 573.175   5
   1   3  11 2907.82 290.212   4
   1   3  11 2539.75 160.306   7
   1   3  11 2835.52 294.981   5
   1   3  12 4377.01 381.193   5
   1   3  12 5021.24 394.957   4
   1   3  12 4651.55 214.661   7
   1   3  13 5009.43 421.825   5
   1   3  13 5003.15 406.982   4
   1   3  14 25.8606 91.4799   5
   1   3  14-52.7384 91.4835   4
   1   3  15 3124.86 360.707   4
   1   3  15 3204.59 361.714   5
   1   3  16 2133.62 300.960   4
   1   3  16 1827.56 284.069   5
   1   3  17 1231.60 243.386   4
   1   3  17 921.477 209.273   5
   1   3  18 1093.38 225.575   4
   1   3  18 1082.04 242.972   5
   1   3  19 9.99693 89.3101   4
   1   3  19 57.3113 114.195   5
   1   3  20-97.3361 140.087   5
   1   3  20-58.5704 120.783   4
   1   3  21 350.660 157.646   5
   1   3  21 542.186 209.362   4
   1   3  22 821.699 247.301   4
   1   3  23-82.4286 123.839   4
   1   4 -24 1080.54 297.291   6
  -1  -4  24 719.413 212.090   5
  -1  -4  23 234.634 130.996   3
   1   4 -23-63.3381 129.916   6
  -1  -4  23-192.123 135.411   5
  -1  -4  22 1759.17 292.850   3
   1   4 -22 2024.54 351.842   6
  -1  -4  22 1796.44 285.889   5
  -1  -4  21 21.6449 90.0707   5
  -1  -4  21 123.354 109.757   3
  -1  -4  20 630.576 173.864   3
  -1  -4  20 763.233 182.888   5
   1   4 -20 603.371 201.717   6
  -1  -4  19-127.633 118.865   3
  -1  -4  19 102.565 80.8475   5
  -1  -4  19 35.0327 98.6609   4
  -1  -4  18 231.693 100.892   5
  -1  -4  18 594.782 178.546   3
   1   4 -18 150.682 76.9245   7
   1   4 -18 257.660 152.350   6
  -1  -4  18 333.814 131.533   4
   1   4 -17 84.7698 51.3928   7
  -1  -4  17 150.823 80.0486   3
  -1  -4  17 182.213 100.317   5
  -1  -4  17 140.222 80.0913   4
   1   4 -17 324.515 154.792   6
  -1  -4  16 457.752 143.697   3
   1   4 -16 705.515 201.023   6
   1   4 -16 442.873 107.363   7
  -1  -4  16 551.070 140.543   4
  -1  -4  16 410.088 116.377   5
   1   4 -15 684.654 128.425   7
  -1  -4  15 528.786 127.293   5
  -1  -4  15 390.387 118.067   3
  -1  -4  15 537.622 151.265   4
   1   4 -15 853.563 207.910   6
  -1  -4  14 989.991 158.827   5
   1   4 -14 869.221 209.945   6
  -1  -4  14 772.790 163.533   3
   1   4 -14 846.900 137.495   7
  -1  -4  14 879.862 178.291   4
  -1  -4  13 1982.01 240.249   4
  -1  -4  13 1990.15 203.057   5
   1   4 -13 2054.20 208.651   7
   1   4 -13 2459.50 304.035   6
  -1  -4  13 1686.17 229.098   3
   1   4 -12 1897.30 194.189   7
   1   4 -12 2015.21 265.377   6
  -1  -4  12 1650.37 227.989   3
  -1  -4  12 1622.31 173.176   5
  -1  -4  12 1560.64 214.854   4
   1   4 -11 8727.66 436.278   7
  -1  -4  11 9429.56 516.581   4
   1   4 -11 8992.24 541.261   6
  -1  -4  11 9187.01 526.036   3
  -1  -4  11 9486.43 402.526   5
   1   4 -10 1356.60 166.308   7
  -1  -4  10 1412.13 140.809   5
   1   4 -10 1464.93 214.657   6
  -1  -4  10 1128.56 180.560   3
  -1  -4  10 1224.36 179.646   4
   1   4  -9 11418.6 490.683   7
  -1  -4   9 10682.6 524.806   4
   1   4  -9 11489.3 565.740   6
  -1  -4   9 11017.0 392.978   5
  -1  -4   8 10180.2 497.805   4
  -1  -4   8 9764.01 340.877   5
   1   4  -8 8988.65 485.075   6
   1   4  -8 9589.02 443.215   7
  -1  -4   7 9345.02 478.293   4
   1   4  -7 9401.96 473.477   6
  -1  -4   7 9185.35 306.939   5
   1   4  -7 8796.35 421.125   7
  -1  -4   6 12204.1 342.439   5
  -1  -4   6 12174.7 544.393   4
   1   4  -6 12135.2 527.379   6
   1   4  -5 4395.85 296.290   6
   1   4  -5 3960.27 250.618   2
  -1  -4   5 4024.36 168.755   5
  -1  -4   5 4936.76 332.878   4
  -1  -4   4 47.7644 48.5712   4
   1   4  -4 41.4811 42.6838   2
  -1  -4   4 2.40568 16.1391   5
   1   4  -4 21.5571 51.8084   6
   1   4  -3 1402.18 154.630   6
  -1  -4   3 1449.19 180.025   4
   1   4  -3 1117.21 135.704   2
   1   4  -2 23449.0 721.497   2
  -1  -4   2 25532.2 804.067   4
   1   4  -1 9146.03 424.344   2
  -1  -4   1 9038.06 275.162   5
   1   4  -1 9302.38 500.176   1
  -1  -4   0 1999.03 142.674   6
   1   4   0 2148.00 204.400   2
   1   4   0 1816.80 218.913   1
  -1  -4   0 1866.14 122.741   5
   1   4   1 29751.9 958.746   1
  -1  -4  -1 29312.0 687.425   5
  -1  -4  -1 32421.3 698.946   6
  -1  -4  -2 8263.35 288.650   6
   1   4   2 7620.03 446.548   1
   1   4   3 20861.5 773.996   1
   1   4   4 3370.78 299.212   1
   1   4   5 10496.1 544.601   1
   1   4   6 1679.58 217.106   1
   1   4   7 18523.9 755.268   1
   1   4   8 17011.8 726.782   1
   1   4   9 15447.3 701.269   1
   1   4   9 15495.1 682.044   4
   1   4  10 5842.68 426.639   5
   1   4  10 5824.24 428.304   1
   1   4  10 6045.61 424.820   4
   1   4  11 5956.27 445.576   5
   1   4  11 6582.52 456.653   4
   1   4  11 6384.10 304.149   7
   1   4  12 2209.20 274.017   4
   1   4  12 1684.10 250.432   5
   1   4  12 1822.82 159.254   7
   1   4  13 1488.22 237.542   5
   1   4  13 1359.35 230.281   4
   1   4  14 2312.23 299.004   4
   1   4  14 1927.80 285.492   5
   1   4  15 151.414 115.610   5
   1   4  15 210.506 136.191   4
   1   4  16 1949.06 293.062   4
   1   4  16 1506.04 273.115   5
   1   4  17 632.134 172.905   5
   1   4  17 1017.26 235.509   4
   1   4  18 865.542 231.180   4
   1   4  19 1537.44 283.413   4
   1   4  20 451.988 180.851   4
   1   4  21 728.885 228.302   4
  -1  -5  24 295.664 183.298   3
   1   5 -23 508.197 245.817   6
  -1  -5  23 363.237 155.535   3
   1   5 -22 55.2615 132.059   6
  -1  -5  22-165.910 143.265   3
  -1  -5  21 997.047 230.082   3
   1   5 -21 1083.79 277.618   6
   1   5 -20 731.355 221.750   6
  -1  -5  20 539.715 172.070   3
  -1  -5  19 233.433 121.034   3
   1   5 -19 392.465 187.594   6
   1   5 -18 283.651 95.1140   7
   1   5 -18 296.449 173.027   6
  -1  -5  18 230.147 123.266   3
  -1  -5  17 74.9560 74.9957   5
   1   5 -17 144.827 121.972   6
   1   5 -17-58.5644 71.0355   7
  -1  -5  17-97.6165 114.318   3
  -1  -5  17 5.39495 76.7989   4
  -1  -5  16-10.6279 71.1327   4
  -1  -5  16 115.328 90.5634   5
   1   5 -16 21.1884 87.4576   6
   1   5 -16 69.7530 63.9854   7
  -1  -5  15 12838.4 559.208   5
  -1  -5  15 11435.2 666.147   4
   1   5 -15 12369.2 750.932   6
   1   5 -15 12137.6 578.187   7
  -1  -5  15 11291.5 668.602   3
  -1  -5  14 2093.50 277.505   3
  -1  -5  14 1945.99 272.212   4
   1   5 -14 2130.38 308.379   6
   1   5 -14 1784.18 216.401   7
  -1  -5  14 2002.91 207.120   5
  -1  -5  13 432.267 140.625   4
   1   5 -13 781.028 192.960   6
  -1  -5  13 620.373 167.968   3
   1   5 -13 569.495 123.698   7
  -1  -5  13 543.394 102.246   5
  -1  -5  12 25502.3 994.699   3
  -1  -5  12 24685.1 711.107   5
   1   5 -12 25010.7 850.357   7
   1   5 -12 24606.3 993.283   6
  -1  -5  12 22214.0 915.677   4
  -1  -5  11 163.870 100.969   4
   1   5 -11 438.103 145.874   6
   1   5 -11 233.573 96.6850   7
  -1  -5  11 134.357 54.0029   5
   1   5 -10 15496.2 729.659   6
   1   5 -10 15603.7 641.924   7
  -1  -5  10 16384.1 736.467   4
  -1  -5  10 15728.5 485.133   5
  -1  -5   9 1213.40 192.120   4
  -1  -5   9 1355.12 117.424   5
   1   5  -9 1451.34 214.368   6
   1   5  -9 1759.96 205.599   7
  -1  -5   8 234.527 83.9133   4
   1   5  -8 480.889 118.297   7
   1   5  -8 156.469 87.9348   6
  -1  -5   8 288.227 52.1724   5
   1   5  -7 2670.03 251.482   7
   1   5  -7 3001.04 281.761   6
  -1  -5   7 2844.09 138.755   5
  -1  -5   7 3003.84 298.114   4
   1   5  -6 4589.86 325.389   7
   1   5  -6 5132.91 357.300   6
  -1  -5   6 4499.99 157.906   5
  -1  -5   6 5109.27 377.664   4
   1   5  -5 5979.83 318.382   2
  -1  -5   5 6712.45 432.528   4
   1   5  -5 6301.89 382.714   6
  -1  -5   5 5300.77 157.316   5
  -1  -5   4 789.795 159.603   4
   1   5  -4 592.674 101.725   2
   1   5  -4 620.979 113.589   6
   1   5  -3 2844.64 223.691   2
  -1  -5   3 3007.74 284.098   4
  -1  -5   3 2332.73 98.6839   5
  -1  -5   2 13210.5 322.247   5
   1   5  -2 14346.6 560.196   2
   1   5  -2 14908.5 708.928   1
  -1  -5   1 258.794 46.7425   5
   1   5  -1 276.707 84.6429   2
   1   5  -1 224.281 107.965   1
   1   5   0 915.663 151.965   2
   1   5   0 1021.43 186.423   1
  -1  -5   0 825.722 87.5378   5
   1   5   1 33167.8 1107.91   1
   1   5   2 11902.3 623.631   1
   1   5   3 791.859 164.382   1
  -1  -5  -3 1004.29 89.6066   6
  -1  -5  -4 21.7138 18.4688   6
   1   5   4-61.7061 72.9493   1
   1   5   5 3320.97 329.862   1
   1   5   6 1168.15 200.918   1
   1   5   7 4978.42 410.117   1
   1   5   8 8703.79 549.315   1
   1   5   9 1519.10 244.082   1
   1   5  10 22.3970 76.5646   1
   1   5  10-71.0490 119.628   4
   1   5  11 2500.81 319.292   1
   1   5  11 2479.12 300.481   4
   1   5  12 1625.75 247.642   4
   1   5  13 2260.25 314.189   4
   1   5  14 2036.00 295.813   4
   1   5  15 93.2928 116.051   4
   1   5  16 949.411 233.043   4
   1   5  17 1946.66 314.300   4
   1   5  18 48.5933 143.131   4
   1   5  19 2881.90 410.514   4
   1   5  20 877.897 247.194   4
  -1  -6  23 72.6814 122.908   3
  -1  -6  22 223.645 136.443   3
   1   6 -22 425.571 189.036   6
   1   6 -21 1260.77 307.374   6
  -1  -6  21 845.524 221.157   3
   1   6 -20 91.8629 136.250   6
  -1  -6  20 53.2050 99.1931   3
   1   6 -19 0.61032 105.801   6
  -1  -6  19-32.2697 88.8871   3
  -1  -6  18 2307.01 329.221   3
   1   6 -18 1948.57 247.690   7
   1   6 -18 2837.78 408.402   6
   1   6 -17 424.807 133.167   7
  -1  -6  17 535.679 175.416   3
   1   6 -17 594.765 218.004   6
   1   6 -16 3465.88 422.729   6
   1   6 -16 4065.50 355.746   7
  -1  -6  16 4303.75 429.930   3
   1   6 -15 1551.57 225.048   7
   1   6 -15 2047.23 315.845   6
  -1  -6  15 1559.40 264.326   3
  -1  -6  14 3580.70 378.762   4
   1   6 -14 4191.55 435.095   6
  -1  -6  14 3708.71 397.956   3
   1   6 -14 3739.86 334.078   7
  -1  -6  13 1322.07 235.066   4
   1   6 -13 1505.84 214.359   7
   1   6 -13 1213.14 238.603   6
  -1  -6  13 1242.92 244.692   3
   1   6 -12 3485.83 385.856   6
  -1  -6  12 3319.95 359.147   4
   1   6 -12 3238.57 309.753   7
  -1  -6  11 1100.48 211.222   4
   1   6 -11 846.615 196.262   6
   1   6 -11 1055.99 177.632   7
  -1  -6  10 9884.64 612.718   4
   1   6 -10 10730.0 565.412   7
   1   6 -10 9935.05 600.743   6
   1   6  -9 665.112 142.074   7
   1   6  -9 1003.48 182.788   6
  -1  -6   9 573.759 150.132   4
   1   6  -8 25.7472 65.3809   7
   1   6  -8-9.35893 88.5321   6
  -1  -6   8 105.208 90.3473   4
   1   6  -7 3703.24 318.946   7
  -1  -6   7 3727.57 352.356   4
   1   6  -7 3417.77 321.362   6
   1   6  -6 485.065 121.738   6
   1   6  -6 705.988 140.074   7
  -1  -6   6 571.661 144.316   4
   1   6  -5 5025.84 358.880   6
   1   6  -5 4412.14 281.734   2
  -1  -6   5 5147.91 413.773   4
   1   6  -5 5439.48 381.029   7
   1   6  -4 5094.13 373.664   7
   1   6  -4 4318.14 281.256   2
  -1  -6   4 5157.42 409.895   4
  -1  -6   3 1171.29 211.602   4
   1   6  -3 1190.18 152.328   2
   1   6  -3 1188.82 236.290   1
   1   6  -3 1185.06 184.896   7
   1   6  -2 16106.7 809.117   1
   1   6  -2 14366.6 631.956   7
   1   6  -2 14648.8 601.049   2
   1   6  -1 234.250 158.869   1
   1   6  -1 152.325 96.2495   2
   1   6   0 1775.86 221.706   2
   1   6   0 1625.69 250.471   1
   1   6   1 3957.09 389.273   1
   1   6   1 4386.63 363.092   2
   1   6   2 14207.3 743.101   1
   1   6   3 128.287 83.7831   1
   1   6   4 1408.83 237.045   1
   1   6   5 3155.89 350.389   1
   1   6   6 929.393 207.462   1
   1   6   7 7001.75 525.978   1
   1   6   8-3.02850 102.965   1
   1   6   9 358.420 128.834   1
   1   6  10 197.091 134.345   1
   1   6  10 44.4441 52.0959   7
   1   6  11 1103.16 232.950   1
   1   6  11 1065.13 154.467   7
   1   6  11 510.223 153.970   4
   1   6  12 353.782 155.738   1
   1   6  12 217.505 131.662   4
   1   6  13 0.86941 128.606   4
   1   6  14 158.115 127.611   4
   1   6  15 168.872 126.189   4
   1   6  16 7308.86 610.182   4
   1   6  17 330.441 185.703   4
   1   6  18 1237.30 271.969   4
  -1  -7  22 281.318 169.082   3
  -1  -7  21 2676.17 382.705   3
   1   7 -21 2568.73 428.659   6
   1   7 -20 275.957 176.221   6
  -1  -7  20-110.608 96.0208   3
  -1  -7  19 4110.21 465.216   3
   1   7 -19 4456.76 539.776   6
  -1  -7  18 1781.80 300.140   3
   1   7 -18 1603.44 246.630   7
   1   7 -18 2121.33 363.785   6
   1   7 -17 1293.22 221.837   7
   1   7 -17 1546.25 306.468   6
  -1  -7  17 1472.28 280.123   3
   1   7 -16 4704.90 414.562   7
  -1  -7  16 5081.30 495.256   3
   1   7 -16 4569.42 501.151   6
  -1  -7  15 10.8494 106.287   3
   1   7 -15 185.745 136.825   6
   1   7 -15-10.9668 71.3866   7
   1   7 -14 179.400 116.343   7
  -1  -7  14-93.6613 131.688   3
   1   7 -14 30.5768 80.5483   6
  -1  -7  13-135.788 131.045   3
   1   7 -13 33.0357 73.0843   7
   1   7 -13 141.873 123.406   6
  -1  -7  12 225.849 135.521   4
   1   7 -12 178.035 109.802   6
   1   7 -12 200.524 113.413   7
   1   7 -11 2446.09 284.656   7
   1   7 -11 2313.78 312.402   6
  -1  -7  11 1946.17 298.758   4
   1   7 -10 2176.29 293.575   6
   1   7 -10 2506.81 287.372   7
  -1  -7  10 2612.89 335.297   4
  -1  -7   9 7421.00 549.412   4
   1   7  -9 7475.38 531.738   6
   1   7  -9 7217.70 489.455   7
   1   7  -8 2067.66 270.707   6
   1   7  -8 2169.93 271.561   7
  -1  -7   8 1621.95 255.283   4
   1   7  -7 2822.57 307.536   7
  -1  -7   7 3090.02 348.264   4
   1   7  -7 2936.03 308.583   6
   1   7  -6 318.789 122.362   7
  -1  -7   6 420.147 144.939   4
  -1  -7   5 4644.87 427.196   4
   1   7  -5 3329.50 399.553   1
   1   7  -5 3745.08 343.649   7
   1   7  -4 5792.55 426.972   7
   1   7  -4 6283.10 547.764   1
   1   7  -3 5800.88 427.955   7
   1   7  -3 6567.74 560.741   1
   1   7  -2 2215.88 263.057   7
   1   7  -2 2459.74 350.035   1
   1   7  -1 4440.50 371.621   7
   1   7  -1 4224.84 449.692   1
   1   7   0 3622.78 405.330   1
   1   7   0 3429.80 321.454   7
   1   7   1 16646.5 875.651   1
   1   7   1 18743.9 828.072   2
   1   7   2 3908.19 416.434   1
   1   7   2 4203.20 395.738   2
   1   7   3 1460.51 260.795   1
   1   7   4 11686.1 725.660   1
   1   7   5 1429.99 258.711   1
   1   7   6 191.714 129.865   1
   1   7   7 225.493 140.939   1
   1   7   7 112.416 67.8545   7
   1   7   8 1045.98 173.318   7
   1   7   8 1178.73 251.764   1
   1   7   9-119.002 114.216   1
   1   7   9 144.390 83.6309   7
   1   7  10 387.698 115.266   7
   1   7  10 609.583 182.390   1
   1   7  11 459.545 168.155   1
   1   7  11 449.493 169.260   4
   1   7  12 72.0947 93.4523   1
   1   7  12-81.2409 122.341   4
   1   7  13 67.0350 116.012   4
   1   7  13 399.270 179.615   1
   1   7  14 680.111 208.894   4
   1   7  15 3121.44 417.108   4
   1   7  16 105.214 124.201   4
  -1  -8  20 433.898 156.070   3
   1   8 -19 2321.43 403.705   6
  -1  -8  19 3630.38 444.367   3
  -1  -8  18 102.696 99.5397   3
   1   8 -18 78.2487 90.2869   7
   1   8 -17 507.484 145.721   7
  -1  -8  17 628.325 173.856   3
   1   8 -17 519.036 185.448   6
  -1  -8  16 177.380 128.708   3
   1   8 -16 5.69227 124.767   6
   1   8 -16 238.346 132.039   7
   1   8 -15 110.419 93.6222   7
  -1  -8  15 652.681 201.288   3
   1   8 -15 603.883 190.785   6
  -1  -8  14 179.853 122.309   3
   1   8 -14 194.694 121.236   6
   1   8 -14 5.56124 75.7287   7
   1   8 -13-86.7459 102.793   7
   1   8 -13 89.0868 100.812   6
   1   8 -12 1060.73 215.372   7
   1   8 -12 1482.26 269.922   6
   1   8 -11-68.8434 104.341   6
   1   8 -11 29.6555 103.729   7
   1   8 -10-11.3222 114.809   6
   1   8 -10 131.653 97.0956   7
   1   8  -9 2393.63 306.181   7
   1   8  -9 2598.07 326.428   6
  -1  -8   9 2853.17 361.238   4
   1   8  -8 1685.00 256.441   7
  -1  -8   8 1486.44 265.693   4
   1   8  -7 13397.6 718.713   7
  -1  -8   7 13391.1 783.481   4
   1   8  -6 218.568 147.475   1
  -1  -8   6 249.774 148.688   4
   1   8  -6 374.729 155.139   7
   1   8  -5 7384.96 526.736   7
   1   8  -5 8000.59 675.294   1
   1   8  -4 12076.7 678.785   7
   1   8  -4 12543.7 835.733   1
   1   8  -3 598.036 193.579   7
   1   8  -3 592.695 227.841   1
   1   8  -2 54946.4 1593.65   7
   1   8  -2 58432.7 1919.32   1
   1   8  -1 8219.34 547.934   7
   1   8  -1 8352.71 675.727   1
   1   8   0 1813.12 272.166   7
   1   8   0 2431.15 358.902   1
   1   8   1 6266.85 465.795   7
   1   8   1 5510.39 529.726   1
   1   8   2 316.157 180.901   1
   1   8   2 982.615 191.403   7
   1   8   3-187.918 154.010   1
   1   8   3 347.292 131.390   7
   1   8   4 651.145 205.953   1
   1   8   4 545.415 148.886   7
   1   8   5 3533.60 338.295   7
   1   8   5 2625.66 370.598   1
   1   8   6 1177.33 205.713   7
   1   8   6 823.623 230.449   1
   1   8   7 1185.58 203.915   7
   1   8   7 1288.81 269.675   1
   1   8   8 463.602 177.883   1
   1   8   8 407.467 130.227   7
   1   8   9 459.472 127.802   7
   1   8   9 802.475 221.070   1
   1   8  10 1415.15 286.624   1
   1   8  11 179.154 137.545   4
   1   8  11 354.910 164.647   1
   1   8  12 860.330 230.775   1
   1   8  12 778.082 200.893   4
   1   8  13 372.120 168.369   1
   1   8  13 187.928 137.892   4
   1   8  14 257.043 153.078   4
   1   9 -18-10.6723 117.859   6
   1   9 -18 138.466 104.791   7
   1   9 -17-233.950 169.310   6
  -1  -9  17-26.9271 128.525   3
   1   9 -17 55.5082 77.4635   7
   1   9 -16 1785.29 286.967   7
   1   9 -16 1936.91 356.017   6
  -1  -9  16 1862.57 328.917   3
   1   9 -15-52.1958 116.446   6
   1   9 -15 164.151 111.536   7
  -1  -9  15-103.545 139.785   3
   1   9 -14-22.5273 105.076   6
   1   9 -14 166.745 124.832   7
  -1  -9  14-97.3456 152.778   3
   1   9 -13 678.091 195.258   7
   1   9 -13 335.017 144.667   6
   1   9 -12-171.894 119.510   6
   1   9 -12-336.908 143.585   7
   1   9 -11 2365.02 332.250   7
   1   9 -10 824.381 209.142   7
   1   9  -9-77.2425 114.242   7
   1   9  -8 5455.13 610.106   1
   1   9  -8 5205.63 474.822   7
   1   9  -7 2011.82 379.212   1
   1   9  -7 1634.05 268.848   7
   1   9  -6-0.85121 102.281   7
   1   9  -6-65.7984 110.059   1
   1   9  -5 1851.42 274.068   7
   1   9  -5 2068.76 369.368   1
   1   9  -4 970.761 218.748   7
   1   9  -4 613.431 221.507   1
   1   9  -3 7614.07 687.599   1
   1   9  -3 8235.30 585.124   7
   1   9  -2 328.448 144.848   7
   1   9  -2 521.711 209.559   1
   1   9  -1 1099.36 256.831   1
   1   9  -1 1284.92 234.498   7
   1   9   0 460.484 151.166   7
   1   9   0 193.793 105.489   1
   1   9   1 117.241 116.665   1
   1   9   1 188.532 109.268   7
   1   9   2 254.688 148.695   1
   1   9   2 133.574 101.037   7
   1   9   3 590.251 167.458   7
   1   9   3 689.209 214.556   1
   1   9   4-31.7463 122.515   1
   1   9   4-12.1089 85.8156   7
   1   9   5-7.22854 82.3040   7
   1   9   5-39.4576 116.366   1
   1   9   6 1301.01 286.676   1
   1   9   6 1201.06 231.029   7
   1   9   7 4125.54 396.688   7
   1   9   7 4430.45 512.098   1
   1   9   8 66.0597 88.7233   7
   1   9   8-105.765 129.004   1
   1   9   9 4496.37 408.599   7
   1   9   9 3768.20 479.796   1
   1   9  10 490.519 188.249   1
   1   9  11 218.066 150.854   4
   1  10 -11 1401.17 272.043   7
   1  10 -11 1311.20 334.943   1
   1  10 -10 4326.52 585.487   1
   1  10 -10 4128.77 446.481   7
   1  10  -9 396.057 216.201   1
   1  10  -9 350.805 171.137   7
   1  10  -8 3612.78 423.269   7
   1  10  -8 4066.63 551.404   1
   1  10  -7 2050.95 401.429   1
   1  10  -7 1877.71 315.366   7
   1  10  -6 795.961 208.074   7
   1  10  -6 861.706 278.949   1
   1  10  -5 2709.43 449.446   1
   1  10  -5 2986.38 376.530   7
   1  10  -4 183.854 130.186   7
   1  10  -4 278.797 182.833   1
   1  10  -3 3134.36 386.210   7
   1  10  -3 3431.92 488.189   1
   1  10  -2 1176.64 294.975   1
   1  10  -2 1312.16 253.604   7
   1  10  -1 97.7014 123.888   7
   1  10  -1 192.754 149.476   1
   1  10   0 162.237 108.722   1
   1  10   0 223.777 127.565   7
   1  10   1 11.5941 124.482   1
   1  10   1 183.159 137.023   7
   1  10   2 525.834 174.110   7
   1  10   2 482.135 175.777   1
   1  10   3 10.5893 91.7860   7
   1  10   3 17.8214 115.070   1
   1  10   4 206.543 119.479   7
   1  10   4 507.441 192.297   1
   1  10   5 441.977 189.333   1
   1  10   5 190.494 128.199   7
   1  10   6-61.9432 117.032   1
   1  10   6 39.8994 107.035   7
   1  10   7 3211.91 374.675   7
   1  10   8-196.543 142.345   7
   1  11  -9 1080.70 326.393   1
   1  11  -8 1415.97 364.179   1
   1  11  -7 615.932 253.133   1
   1  11  -6 161.608 152.967   1
   1  11  -5-284.728 177.014   1
   1  11  -4 504.126 239.406   1
   1  11  -3 279.781 158.191   1
   1  11  -2 1250.10 336.383   1
   1  11  -1 706.805 251.040   1
   1  11   0 238.103 157.606   1
  -2  12  -1 208.675 162.093   1
  -2  12  -2 1022.78 333.898   1
  -2  12  -3 510.395 244.481   1
  -2  12  -4 879.823 291.378   1
  -2  12  -5 206.575 206.877   1
   2 -12   5 1696.11 367.959   4
  -2  12  -6 3053.09 544.094   1
   2 -12   6 2715.72 477.885   4
   2 -12   7 1794.26 396.717   4
  -2  12  -7 1988.29 447.586   1
   2 -12   8 875.042 278.107   4
   2 -12   9 2594.06 460.928   4
   2 -12  10 243.839 184.378   4
  -2  11   7 5.01271 139.060   1
  -2  11   6 2713.17 435.965   1
  -2  11   5 595.606 226.909   1
  -2  11   4 1864.64 369.190   1
  -2  11   3 1765.00 370.647   1
  -2  11   2 361.218 196.319   1
  -2  11   1 344.812 189.670   1
  -2  11   0 250.782 182.379   1
  -2  11  -1 84.3037 141.350   1
  -2  11  -2 11.4887 154.949   1
   2 -11   3 363.401 190.998   4
  -2  11  -3 462.066 262.764   1
  -2  11  -4 1413.79 342.110   1
   2 -11   4 1412.77 320.216   4
  -2  11  -5 554.854 219.032   1
   2 -11   5 570.317 216.787   4
   2 -11   6 390.823 158.660   4
   2 -11   7 79.4385 113.468   4
   2 -11   8-235.367 184.083   4
   2 -11   9 496.841 178.833   4
   2 -11  10 507.602 197.174   4
   2 -11  11 1096.54 282.094   4
  -2  11 -12 9.13655 79.5587   7
   2 -11  12 78.9912 108.407   4
   2 -11  13-196.431 173.734   4
  -2  11 -13 368.676 152.185   7
  -2  11 -14-12.8816 87.1193   7
  -2  11 -15 40.6485 89.2695   7
  -2  10  12 102.610 124.717   1
  -2  10  11 966.937 257.455   1
  -2  10  10 21.9074 125.535   1
  -2  10   9 428.318 190.219   1
  -2  10   8 119.295 121.097   1
  -2  10   7 1951.48 361.720   1
  -2  10   6 717.709 230.549   1
  -2  10   5 2907.95 433.143   1
  -2  10   4 1659.41 322.192   1
  -2  10   3-145.430 142.843   1
  -2  10   2 339.262 199.882   1
  -2  10   1 767.126 233.064   1
  -2  10   0 1498.73 332.052   1
   2 -10   1 2316.58 379.793   4
  -2  10  -1 2029.99 393.124   1
   2 -10   2 762.291 226.890   4
  -2  10  -2 1292.48 289.819   1
  -2  10  -3 4900.95 592.091   1
   2 -10   3 4116.83 520.706   4
   2 -10   4 3017.10 436.414   4
   2 -10   5 8756.86 748.088   4
   2 -10   6 3255.00 457.193   4
   2 -10   7-65.5696 155.616   4
   2 -10   8 49.9193 129.635   4
   2 -10   9 2322.76 391.631   4
   2 -10  10 99.0126 142.128   4
   2 -10  11 785.971 253.491   4
  -2  10 -12 47.3098 102.232   6
   2 -10  12-61.9168 107.854   4
   2 -10  13 1926.21 369.911   4
  -2  10 -13 2174.49 321.345   6
  -2  10 -13 1284.98 224.268   7
   2 -10  14 998.027 271.075   4
  -2  10 -14 1886.55 303.083   6
  -2  10 -14 1836.82 263.323   7
   2 -10  15 135.645 134.057   4
  -2  10 -15 125.117 100.331   7
  -2  10 -15 218.294 135.089   6
  -2  10 -16 236.881 141.372   6
   2 -10  16-31.6231 110.648   4
  -2  10 -16 148.012 96.5332   7
  -2  10 -17 821.942 232.338   6
  -2  10 -17 202.072 110.533   7
  -2  10 -18 1274.93 270.552   6
  -2   9  15 655.575 215.468   1
  -2   9  14 203.245 160.296   1
  -2   9  13-35.0975 105.907   1
  -2   9  12 778.027 219.439   1
  -2   9  11-158.616 130.011   1
  -2   9  10 82.4489 114.028   1
  -2   9   9 1099.14 259.361   1
  -2   9   8 298.667 169.176   1
  -2   9   7-160.491 139.630   1
  -2   9   6 450.092 201.270   1
  -2   9   5 12412.1 839.417   1
  -2   9   4 157.589 157.057   1
  -2   9   3 8137.94 688.038   1
  -2   9   2 11552.7 844.421   1
  -2   9   1 457.111 193.250   1
   2  -9   0 12038.6 828.716   4
  -2   9   0 11098.8 822.487   1
  -2   9  -1 5841.38 598.003   1
   2  -9   1 5093.34 548.398   4
   2  -9   2 4154.21 479.860   4
   2  -9   3 6155.94 594.351   4
   2  -9   4 1237.85 266.820   4
   2  -9   5 4941.66 537.452   4
  -2   9  -6 5540.13 384.975   6
   2  -9   6 5859.07 582.749   4
   2  -9   7 4582.58 516.200   4
   2  -9   8-78.4492 142.857   4
   2  -9   9 126.119 151.601   4
   2  -9  10 11614.5 844.711   4
   2  -9  11 346.612 162.514   4
   2  -9  12 4430.95 529.824   4
   2  -9  13 391.138 187.242   4
   2  -9  13 585.980 163.039   3
  -2   9 -14 13.4390 76.0040   7
   2  -9  14 178.798 112.306   4
   2  -9  14 187.565 104.332   3
  -2   9 -15 4983.44 411.572   7
   2  -9  15 5090.23 450.019   3
   2  -9  15 4600.10 549.438   4
   2  -9  16 286.847 154.222   4
  -2   9 -16 193.423 101.776   7
   2  -9  17-43.7815 163.290   4
  -2   9 -17 136.430 98.2262   7
   2  -9  18 1460.44 320.967   4
   2  -9  19 79.0012 112.784   4
  -2   8  19 188.035 162.067   5
  -2   8  18 125.119 142.236   5
  -2   8  17 1207.44 258.825   5
  -2   8  17 1178.70 273.017   4
  -2   8  16-99.7682 102.442   1
  -2   8  16 60.2164 122.645   5
  -2   8  16 156.591 124.478   4
  -2   8  15 332.457 172.465   1
  -2   8  15 89.0797 104.037   5
  -2   8  14 149.307 131.420   1
  -2   8  14 425.541 159.045   5
  -2   8  13 424.957 153.210   5
  -2   8  13 346.292 166.944   1
  -2   8  12-6.73989 94.8088   1
  -2   8  12 193.176 126.972   5
  -2   8  11-4.52146 79.7548   5
  -2   8  11-36.3353 104.068   1
  -2   8  10 4557.04 383.262   5
  -2   8  10 4286.06 469.452   1
  -2   8   9 4335.02 467.502   1
  -2   8   9 3943.79 345.591   5
  -2   8   8 749.537 146.884   5
  -2   8   8 612.172 187.306   1
  -2   8   7-3.83233 115.166   1
  -2   8   7 23.9634 78.6960   5
  -2   8   6 1472.59 184.444   5
  -2   8   6 1259.26 245.435   1
  -2   8   5 17262.7 932.201   1
  -2   8   5 16280.3 609.516   5
  -2   8   4 8200.11 640.363   1
  -2   8   3 9917.73 716.461   1
  -2   8   2 401.339 180.470   1
  -2   8   1 487.651 192.940   1
   2  -8  -1 795.998 235.783   4
  -2   8   0 3587.04 434.908   1
   2  -8   0 3364.57 410.686   4
   2  -8   1 3618.22 420.730   4
  -2   8  -2 6422.06 313.998   6
   2  -8   2 7553.87 609.019   4
   2  -8   3 6696.62 576.769   4
   2  -8   4 18388.3 978.641   4
   2  -8   5 4078.45 456.973   4
   2  -8   6-40.5995 101.360   4
   2  -8   7 10804.5 752.029   4
   2  -8   8 1792.42 306.567   4
   2  -8   9 7194.79 615.540   4
   2  -8  10 2477.30 375.968   4
   2  -8  11 6102.34 583.006   4
   2  -8  12 1468.54 302.573   4
   2  -8  12 1282.25 209.995   3
   2  -8  13-50.5226 146.591   4
   2  -8  13 45.1004 83.7728   3
   2  -8  14 3439.73 447.685   4
   2  -8  14 3586.85 349.137   3
  -2   8 -15 968.215 178.128   7
   2  -8  15 1023.08 259.254   4
   2  -8  15 1208.52 216.283   3
   2  -8  16 420.735 137.362   3
   2  -8  16 502.938 200.324   4
  -2   8 -16 547.899 129.518   7
  -2   8 -17 1758.72 224.892   7
   2  -8  17 1417.71 308.346   4
   2  -8  17 1493.68 235.139   3
   2  -8  18 81.5720 125.993   4
   2  -8  19 550.143 232.680   4
   2  -8  20 2803.72 453.650   4
   2  -8  21 622.049 191.827   4
  -2   7  20 674.515 223.576   5
  -2   7  19-189.605 126.393   4
  -2   7  19 111.917 131.473   5
  -2   7  18 102.697 132.155   5
  -2   7  18 218.895 131.564   4
  -2   7  17 916.345 233.618   5
  -2   7  17 343.968 149.071   4
  -2   7  16 438.361 166.921   4
  -2   7  16 152.623 106.523   5
  -2   7  15 60.8319 98.6847   1
  -2   7  15 116.901 98.5596   5
  -2   7  14 1620.02 259.931   5
  -2   7  14 1215.66 255.537   1
  -2   7  13 272.416 131.084   1
  -2   7  13 200.821 137.773   5
  -2   7  12 348.044 144.773   1
  -2   7  12 668.843 166.304   5
  -2   7  11 180.514 106.838   1
  -2   7  11 32.5315 85.2674   5
  -2   7  10 1078.12 188.756   5
  -2   7  10 650.556 184.110   1
  -2   7   9 7882.34 594.086   1
  -2   7   9 8784.19 500.480   5
  -2   7   8 8554.04 470.773   5
  -2   7   8 6997.40 552.815   1
  -2   7   7 3867.95 302.460   5
  -2   7   7 3132.71 363.702   1
  -2   7   6 15279.7 815.839   1
  -2   7   6 16480.1 615.405   5
  -2   7   5 2414.20 215.600   5
  -2   7   5 1807.28 280.271   1
  -2   7   4 14169.5 800.143   1
  -2   7   4 15575.6 541.619   5
  -2   7   3 20845.5 612.136   5
  -2   7   3 21970.6 1016.42   1
  -2   7   2 9547.93 654.075   1
  -2   7   2 8931.98 347.155   5
   2  -7  -2 9766.49 651.336   4
  -2   7   1 1374.52 116.467   5
  -2   7   1 1513.74 255.687   1
   2  -7  -1 1196.86 236.599   4
  -2   7   1 982.219 75.0888   6
  -2   7   0 271.232 52.5469   5
   2  -7   0 214.662 104.598   4
  -2   7  -1 17081.8 372.356   5
   2  -7   1 19711.2 933.193   4
   2  -7   2 10018.3 660.439   4
   2  -7   3 2433.18 326.594   4
   2  -7   4-97.0312 89.0848   4
   2  -7   5 2435.54 323.458   4
   2  -7   6 5653.66 498.467   4
   2  -7   7 1251.40 244.972   4
   2  -7   8 11277.0 722.484   4
   2  -7   9 2168.89 315.552   4
   2  -7  10 27.5444 95.4667   4
   2  -7  11 26371.3 928.145   3
   2  -7  11 26698.0 1179.31   4
   2  -7  12 1766.13 299.406   4
   2  -7  12 1536.48 212.458   3
   2  -7  13 5333.15 397.570   3
   2  -7  13 5049.60 515.096   4
   2  -7  14 578.997 171.411   4
   2  -7  14 926.703 172.128   3
   2  -7  15-15.7869 66.4108   3
   2  -7  15-112.380 146.147   4
  -2   7 -15 55.0312 54.4886   7
   2  -7  16 6723.73 464.568   3
  -2   7 -16 6761.60 411.929   7
   2  -7  16 6394.19 609.856   4
   2  -7  17 1411.86 221.638   3
   2  -7  17 1360.63 290.307   4
   2  -7  18 532.490 196.347   4
   2  -7  18 267.888 106.508   3
   2  -7  19 868.469 235.279   4
   2  -7  19 1073.45 200.954   3
   2  -7  20-39.0815 112.951   4
   2  -7  21 3196.79 481.343   4
   2  -7  22 49.7697 134.018   4
   2  -7  23 1136.34 304.592   4
  -2   6  21 355.887 166.246   5
  -2   6  21 237.087 133.936   4
  -2   6  20-187.838 141.811   5
  -2   6  20 33.0645 99.4537   4
  -2   6  19-214.799 156.780   5
  -2   6  19 111.269 104.631   4
  -2   6  18 281.136 133.593   4
  -2   6  18 622.624 203.637   5
  -2   6  17 1170.56 244.725   5
  -2   6  17 1123.45 221.210   4
  -2   6  16 845.848 210.164   5
  -2   6  16 437.982 153.833   4
  -2   6  15 2282.54 316.512   5
  -2   6  14 4135.50 416.657   1
  -2   6  14 3573.74 374.218   5
  -2   6  13 396.293 155.086   1
  -2   6  13 257.400 117.082   5
  -2   6  12 4071.32 397.192   1
  -2   6  12 3986.50 361.686   5
  -2   6  11 2721.71 322.702   1
  -2   6  11 2786.36 297.511   5
  -2   6  10 696.677 158.299   5
  -2   6  10 568.879 157.383   1
  -2   6   9 10525.9 537.174   5
  -2   6   9 9837.78 615.273   1
  -2   6   8-21.2972 58.7847   5
  -2   6   8-60.0956 102.280   1
  -2   6   7 12454.2 674.706   1
  -2   6   7 12939.5 553.008   5
  -2   6   6 5405.32 330.341   5
  -2   6   6 4795.43 409.567   1
  -2   6   5 473.655 102.465   5
  -2   6   5 702.398 158.085   1
  -2   6   4 10013.3 613.297   1
  -2   6   4 10933.3 434.589   5
  -2   6   3 1017.09 202.681   1
  -2   6   3 844.523 112.046   5
   2  -6  -3 775.220 169.858   4
   2  -6  -2 6462.66 487.942   4
  -2   6   2 6599.85 290.286   5
  -2   6   2 7235.65 514.256   1
  -2   6   1 8337.63 283.681   2
  -2   6   1 8914.92 317.016   5
   2  -6  -1 8261.93 549.606   4
  -2   6   0 2468.09 143.845   5
   2  -6   0 2085.21 274.743   4
  -2   6   0 1808.97 96.4601   2
  -2   6  -1 1161.08 88.4623   5
   2  -6   1 999.167 192.920   4
  -2   6  -2 23342.8 477.950   5
   2  -6   2 23527.9 969.911   4
   2  -6   3 95.4700 78.9271   4
  -2   6  -3 110.327 23.1620   5
  -2   6  -4 8336.28 218.598   5
  -2   6  -4 7597.92 188.403   5
  -2   6  -5 5207.27 159.085   5
   2  -6   5 6009.96 478.104   4
  -2   6  -6 8260.94 240.139   5
   2  -6   6 10343.0 622.242   4
   2  -6   7 4348.33 177.034   2
   2  -6   7 4457.14 412.779   4
  -2   6  -7 4525.22 187.792   5
   2  -6   8 3865.54 201.093   2
   2  -6   8 4686.09 425.724   4
   2  -6   9 1525.36 259.187   4
   2  -6  10 13472.2 767.776   4
   2  -6  11 11544.8 535.643   3
   2  -6  11 10993.0 697.306   4
   2  -6  12-49.4237 125.112   4
   2  -6  12 10.1679 63.4188   3
   2  -6  13 2838.14 269.512   3
   2  -6  13 3393.13 402.243   4
   2  -6  14-185.281 103.743   3
   2  -6  14-88.4614 111.231   4
   2  -6  15 538.947 117.255   3
   2  -6  15 326.080 150.175   4
  -2   6 -15 384.702 93.6560   7
   2  -6  16 735.109 152.386   3
  -2   6 -16 552.027 115.872   7
   2  -6  16 363.024 157.965   4
   2  -6  17-16.6367 63.4233   3
   2  -6  17 191.601 125.195   4
   2  -6  18 943.579 185.406   3
   2  -6  18 490.340 188.024   4
   2  -6  19 358.852 176.202   4
   2  -6  19 325.484 110.479   3
   2  -6  20 4023.29 499.314   4
   2  -6  20 4780.89 423.422   3
   2  -6  21 487.009 187.105   4
   2  -6  22 295.458 175.780   4
   2  -6  23 889.518 269.673   4
   2  -6  24-64.7800 115.359   4
  -2   5  23 374.703 179.908   4
  -2   5  22-164.919 131.026   4
  -2   5  22 64.4531 123.494   5
  -2   5  21 238.277 163.485   5
  -2   5  21 571.859 180.642   4
  -2   5  20-59.0500 148.018   5
  -2   5  20 269.760 128.078   4
  -2   5  19 473.000 186.705   5
  -2   5  19 294.685 137.611   4
  -2   5  18 13.9949 98.6256   5
  -2   5  18 49.5801 87.2214   4
  -2   5  17 3147.66 377.753   5
  -2   5  17 2832.37 342.065   4
  -2   5  16 956.166 212.242   5
  -2   5  16 640.128 172.851   4
  -2   5  15 5942.82 478.434   5
  -2   5  15 4515.71 417.137   4
  -2   5  14 111.598 112.505   5
  -2   5  13 2051.83 274.085   1
  -2   5  13 2358.60 288.746   5
  -2   5  12 8585.39 526.891   5
  -2   5  12 7938.57 521.494   1
  -2   5  11 2866.00 294.287   5
  -2   5  11 2700.39 297.698   1
  -2   5  10 3987.90 356.779   1
  -2   5  10 4273.87 339.608   5
  -2   5   9 3060.57 279.342   5
  -2   5   9 2760.76 292.690   1
  -2   5   8 235.807 100.204   1
  -2   5   8 290.677 99.9820   5
  -2   5   7 10466.0 481.721   5
  -2   5   7 10065.8 552.002   1
  -2   5   6 2166.86 252.932   1
  -2   5   6 1868.97 187.432   5
  -2   5   5 6110.92 420.934   1
  -2   5   5 5303.99 303.661   5
  -2   5   4 21470.3 639.785   5
  -2   5   4 21650.0 845.756   1
  -2   5   3 165.424 54.6170   5
   2  -5  -3 246.960 116.073   4
  -2   5   3 236.927 72.6564   1
  -2   5   2 375.933 101.205   1
  -2   5   2 383.840 75.6299   5
   2  -5  -2 315.120 120.002   4
  -2   5   1 44742.5 889.366   2
  -2   5   1 47586.1 960.065   5
   2  -5  -1 46430.4 1331.12   4
  -2   5   0 8734.28 300.727   5
   2  -5   0 8322.36 509.678   4
  -2   5   0 7359.11 232.561   2
   2  -5   1-65.7171 85.5717   4
  -2   5  -1 92.1205 35.1315   5
   2  -5   2 31951.5 1061.87   4
  -2   5  -2 30814.9 667.308   5
   2  -5   3 30401.2 1041.43   4
   2  -5   4 106484. 2357.58   4
   2  -5   5 2852.64 296.660   4
  -2   5  -5 2653.46 136.443   5
   2  -5   6-37.9029 86.3022   4
  -2   5  -6 69.5788 31.8480   5
   2  -5   7 6170.53 452.844   4
  -2   5  -7 5102.55 228.713   5
   2  -5   8 54.0175 101.310   4
   2  -5   8 102.733 52.3062   3
   2  -5   9 3535.09 257.773   3
   2  -5   9 3393.98 346.277   4
   2  -5  10 7634.88 531.798   4
   2  -5  11 1689.35 251.150   4
   2  -5  12 15648.9 806.183   4
   2  -5  13 40702.8 1113.67   3
   2  -5  13 40303.8 1400.79   4
   2  -5  14 39152.2 1406.91   4
   2  -5  14 40580.6 1137.49   3
   2  -5  15 8132.24 610.407   4
  -2   5 -15 8499.14 391.397   7
   2  -5  15 8525.44 479.743   3
   2  -5  16 2377.71 338.855   4
   2  -5  16 2322.26 259.943   3
  -2   5 -16 1735.96 172.570   7
   2  -5  17 6651.26 450.367   3
   2  -5  17 6755.62 588.312   4
   2  -5  18 1128.25 263.816   4
   2  -5  18 1258.36 212.709   3
   2  -5  19 119.298 106.387   4
   2  -5  20 1881.59 336.946   4
   2  -5  21 294.392 198.819   4
   2  -5  22 1310.44 295.563   4
   2  -5  23 589.448 227.323   4
   2  -5  24 830.909 264.319   4
   2  -5  25 449.659 214.082   4
  -2   4  24 255.950 149.069   4
  -2   4  23 1030.15 252.776   4
  -2   4  23 1609.74 318.540   5
  -2   4  22 183.638 123.150   5
  -2   4  22 95.9732 110.333   4
  -2   4  21 1461.97 292.538   5
  -2   4  21 1455.32 269.821   4
  -2   4  20 322.587 170.513   5
  -2   4  20 49.7886 91.0082   4
  -2   4  19 2166.28 321.536   4
  -2   4  19 2200.42 330.903   5
  -2   4  18 596.382 193.580   5
  -2   4  18 927.129 209.926   4
   2  -4 -17 3263.96 325.734   6
  -2   4  17 2956.04 357.787   5
  -2   4  17 3375.94 359.952   4
  -2   4  16 3930.54 370.572   4
   2  -4 -16 3928.07 345.621   6
  -2   4  16 3775.69 393.803   5
   2  -4 -15 111.815 75.8711   6
  -2   4  15 202.547 124.174   5
  -2   4  15 5.66771 104.918   4
  -2   4  14 720.722 179.371   5
  -2   4  14 292.831 95.8029   4
   2  -4 -14 633.008 131.312   6
   2  -4 -13 6497.01 390.377   6
  -2   4  13 6792.69 467.217   5
   2  -4 -12 847.394 139.419   6
  -2   4  12 1180.26 202.427   5
  -2   4  12 741.191 150.881   1
  -2   4  11 53.2414 79.7609   5
   2  -4 -11 47.9558 48.0512   6
  -2   4  11-4.41781 67.4560   1
   2  -4 -10 2286.14 197.848   6
  -2   4  10 2402.08 256.174   1
  -2   4  10 2734.09 265.333   5
  -2   4   9 863.676 150.550   5
  -2   4   9 1071.26 164.706   1
  -2   4   8 124.102 72.2444   1
  -2   4   8 83.6804 60.8987   5
  -2   4   7 387.951 91.0748   5
  -2   4   7 413.942 104.670   1
  -2   4   6 22178.0 694.554   5
  -2   4   6 21344.1 760.261   1
  -2   4   5 12961.9 485.562   5
  -2   4   5 12754.7 561.642   1
  -2   4   4 6743.00 220.336   6
  -2   4   4 8012.00 354.063   5
  -2   4   4 7590.84 429.443   1
  -2   4   3 1262.67 132.502   5
  -2   4   3 1231.52 173.083   1
   2  -4  -3 1058.11 167.051   4
  -2   4   2 68538.6 1296.98   2
  -2   4   2 69200.3 1347.43   5
   2  -4  -2 69959.4 1622.87   4
  -2   4   1 8392.26 287.839   2
  -2   4   1 8485.23 328.607   5
   2  -4  -1 8387.29 461.164   4
  -2   4   0 24132.0 536.986   2
   2  -4   0 26271.4 866.434   4
  -2   4   0 25613.0 620.734   5
   2  -4   1 32.3768 61.4190   4
   2  -4   2 21250.4 770.609   4
   2  -4   3 6129.51 194.795   2
   2  -4   3 7156.15 421.989   4
   2  -4   4 71267.2 1674.44   4
   2  -4   5 1345.31 196.335   4
  -2   4  -6 8565.93 312.680   5
   2  -4   6 9217.43 508.931   4
   2  -4   7 162.216 76.1175   4
   2  -4   7 60.8815 44.9174   3
   2  -4   8 13205.0 459.626   3
   2  -4   8 12513.7 622.953   4
   2  -4   9 7319.37 344.271   3
   2  -4   9 7745.40 489.630   4
   2  -4  10 747.004 113.127   3
   2  -4  10 1303.40 209.210   4
   2  -4  11 691.139 161.735   4
   2  -4  12 939.941 191.512   4
   2  -4  13 8964.65 584.483   4
   2  -4  14 22343.2 978.549   4
  -2   4 -14 21865.4 605.442   7
   2  -4  14 22993.8 786.717   3
   2  -4  15 31592.5 995.555   3
   2  -4  15 31524.9 1223.48   4
  -2   4 -15 33588.6 782.393   7
   2  -4  16 7824.04 591.682   4
   2  -4  17 611.002 192.766   4
   2  -4  18 1866.84 306.620   4
   2  -4  19 1321.89 266.484   4
   2  -4  20 3083.12 413.492   4
   2  -4  21 755.166 220.733   4
   2  -4  22 604.152 197.791   4
   2  -4  23-69.9243 138.424   4
   2  -4  24 269.139 185.391   4
   2  -4  25-157.556 162.806   4
   2  -4  26 1884.33 419.363   4
  -2   3  25 351.270 200.187   4
  -2   3  24 752.577 222.055   4
  -2   3  24 917.444 263.967   5
  -2   3  23 2521.05 394.851   5
  -2   3  23 1955.28 329.609   4
  -2   3  22 1421.76 284.715   5
  -2   3  22 1457.20 274.635   4
  -2   3  21 3965.69 457.842   5
   2  -3 -21 4428.16 452.693   6
  -2   3  21 3950.50 430.037   4
  -2   3  20 618.858 209.619   5
   2  -3 -20 344.448 128.705   6
  -2   3  20 311.937 158.320   4
   2  -3 -19 6146.71 496.730   6
  -2   3  19 6928.34 530.209   4
  -2   3  19 7549.06 589.928   5
   2  -3 -18 494.608 148.590   6
  -2   3  18 390.334 158.533   5
  -2   3  18 325.854 139.613   4
   2  -3 -17 3015.22 320.517   6
  -2   3  17 2629.77 311.907   4
  -2   3  17 3182.23 358.939   5
  -2   3  16 3853.73 389.241   5
  -2   3  16 4814.64 390.256   4
   2  -3 -16 4783.31 388.847   6
  -2   3  15 7796.73 527.206   5
  -2   3  15 6091.68 431.131   4
   2  -3 -15 7424.04 465.868   6
  -2   3  14 9504.50 562.597   5
  -2   3  14 9550.11 519.547   4
   2  -3 -14 9662.93 512.279   6
  -2   3  13 1813.10 220.287   4
   2  -3 -13 2456.07 246.700   6
  -2   3  13 1855.19 241.830   5
  -2   3  12 851.341 171.685   5
   2  -3 -12 831.537 139.912   6
  -2   3  12 635.274 121.690   4
  -2   3  11 641.234 140.326   5
   2  -3 -11 464.039 99.9657   6
  -2   3  10 8465.51 465.017   5
  -2   3  10 8956.52 448.011   1
   2  -3 -10 8839.03 414.548   6
  -2   3   9 8376.22 421.525   1
  -2   3   9 8592.37 443.906   5
   2  -3  -9 8598.27 396.438   6
   2  -3  -8 21941.1 652.849   6
  -2   3   8 23823.3 740.469   1
  -2   3   8 22650.0 744.356   5
  -2   3   7 20544.6 673.663   1
  -2   3   7 19518.2 661.514   5
  -2   3   6 1832.40 184.099   1
  -2   3   6 1770.39 176.198   5
  -2   3   5 26090.5 735.733   5
  -2   3   5 25914.7 597.247   6
  -2   3   5 26470.5 762.984   1
  -2   3   4 635.746 72.7521   6
  -2   3   4 618.994 104.464   1
  -2   3   4 687.052 100.920   5
  -2   3   3 18262.4 527.351   2
  -2   3   3 17433.2 539.675   5
   2  -3  -3 17630.7 628.531   4
  -2   3   3 17916.7 606.179   1
  -2   3   2 22341.8 576.922   2
  -2   3   2 21751.0 607.323   5
   2  -3  -2 23082.7 723.071   4
  -2   3   1 14315.0 415.760   2
   2  -3  -1 13928.0 542.613   4
   2  -3   0 1395.67 165.267   4
  -2   3   0 1477.50 111.966   2
   2  -3   0 1487.90 100.883   2
   2  -3   1 75215.4 1288.66   2
   2  -3   1 74880.2 1590.08   4
   2  -3   2 561.983 67.3845   2
   2  -3   2 499.666 101.844   4
   2  -3   3 33302.3 932.755   4
   2  -3   4 26370.3 812.180   4
   2  -3   5 82.2888 59.4685   4
   2  -3   5 59.7044 29.1605   3
   2  -3   6 11188.3 348.166   3
   2  -3   6 11251.7 513.356   4
   2  -3   7 36605.8 1047.99   4
   2  -3   7 37274.5 807.258   3
   2  -3   8 16599.1 669.913   4
   2  -3   8 16881.2 494.860   3
   2  -3   9 6675.85 423.310   4
   2  -3   9 6727.39 308.570   3
   2  -3  10 2137.37 250.850   4
   2  -3  10 2426.08 192.611   3
   2  -3  11 4964.83 382.967   4
   2  -3  11 4832.43 288.588   3
   2  -3  12 1831.32 242.673   4
  -2   3 -13 2174.40 136.711   7
   2  -3  13 2465.53 287.106   4
   2  -3  14 5874.36 458.116   4
  -2   3 -14 5888.51 225.926   7
   2  -3  15 4474.49 413.118   4
  -2   3 -15 4488.46 186.420   7
   2  -3  16 1590.28 262.140   4
   2  -3  17 5311.76 476.233   4
   2  -3  18 577.654 199.025   4
   2  -3  19 5749.44 528.580   4
   2  -3  20 5471.98 532.854   4
   2  -3  21 1833.59 317.262   4
   2  -3  22 2709.41 405.045   4
   2  -3  23 747.608 235.232   4
   2  -3  24 1.81577 134.596   4
   2  -3  25 266.693 161.296   4
   2  -3  26 172.954 156.283   4
  -2   2  26 1315.94 294.655   4
  -2   2  25 675.927 215.153   4
   2  -2 -25 712.707 239.495   6
   2  -2 -24 1481.70 302.506   6
  -2   2  24 2077.55 346.791   4
  -2   2  24 2066.76 362.526   5
   2  -2 -23 587.882 202.167   6
  -2   2  23 525.765 209.630   4
  -2   2  23 509.074 187.524   5
   2  -2 -22 1092.62 242.171   6
  -2   2  22 1244.29 267.636   5
  -2   2  22 892.943 225.589   4
  -2   2  21 346.737 157.273   5
   2  -2 -21 92.6091 95.4094   6
  -2   2  21 138.558 121.420   4
  -2   2  20 1463.42 274.255   5
   2  -2 -20 1000.82 215.775   6
  -2   2  20 881.671 197.011   4
  -2   2  19 896.223 193.767   4
   2  -2 -19 1178.81 232.878   6
  -2   2  19 819.973 194.353   5
  -2   2  18 164.663 119.913   5
   2  -2 -18 159.380 100.997   6
  -2   2  18 8.60239 76.9175   4
  -2   2  17 239.861 110.340   4
  -2   2  17 123.309 102.603   5
   2  -2 -17 229.704 117.878   6
  -2   2  16 1187.37 217.954   5
  -2   2  16 1184.52 189.025   4
   2  -2 -16 975.288 189.961   6
  -2   2  15 1208.12 221.125   5
   2  -2 -15 888.321 186.930   6
  -2   2  15 852.025 163.932   4
   2  -2 -14 22610.7 853.005   6
  -2   2  14 22594.4 795.476   4
  -2   2  14 24234.4 909.484   5
  -2   2  13 754.671 137.534   4
   2  -2 -13 882.412 157.392   6
  -2   2  13 1009.04 181.512   5
  -2   2  12 5299.78 379.195   5
   2  -2 -12 4978.86 349.211   6
  -2   2  12 4552.38 308.010   4
   2  -2 -11 1637.07 190.454   6
  -2   2  11 2016.30 198.981   4
  -2   2  11 1695.20 208.197   5
  -2   2  10 6973.60 357.600   4
   2  -2 -10 7344.45 390.165   6
  -2   2  10 7114.52 414.535   5
   2  -2  -9 26826.6 786.108   6
  -2   2   9 26487.4 827.417   5
   2  -2  -8 2543.94 211.862   6
  -2   2   8 2490.19 223.819   5
  -2   2   8 2536.83 191.834   1
  -2   2   7 5000.34 259.544   1
  -2   2   7 5108.80 307.095   5
   2  -2  -7 4834.80 278.625   6
  -2   2   6 21776.4 589.288   1
  -2   2   6 21403.8 661.488   5
   2  -2  -6 19809.8 588.736   6
  -2   2   5 7740.12 306.688   6
  -2   2   5 8356.66 328.599   1
  -2   2   5 7871.22 363.676   5
   2  -2  -5 8797.43 363.245   1
  -2   2   4 230636. 3676.41   6
  -2   2   4 236510. 3719.32   1
  -2   2   4 229752. 3811.04   5
   2  -2  -4 232621. 3667.44   3
   2  -2  -4 229499. 3767.48   1
  -2   2   3 725461. 11237.3   5
  -2   2   3 755700. 11191.2   1
   2  -2  -3 752302. 11248.2   4
   2  -2  -2 999999. 14828.9   2
   2  -2  -2 994568. 14919.9   4
   2  -2  -1 113606. 2023.65   4
   2  -2  -1 111982. 1922.83   2
  -2   2   0 40276.8 848.396   2
   2  -2   0 36511.6 804.162   2
   2  -2   0 38783.7 889.532   4
   2  -2   1 38946.0 833.428   2
   2  -2   1 39253.4 918.821   4
   2  -2   2 7253.27 332.473   4
   2  -2   3 102850. 1917.58   4
   2  -2   4 9794.71 406.736   4
  -2   2  -4 9138.85 244.248   3
   2  -2   5 7230.11 359.372   4
  -2   2  -5 7036.53 228.985   3
   2  -2   6 4617.62 292.869   4
  -2   2  -6 4908.34 205.061   3
   2  -2   7 38809.3 1017.64   4
  -2   2  -7 37834.2 813.247   3
   2  -2   8 71387.3 1582.78   4
   2  -2   9 12449.0 556.471   4
   2  -2  10 2131.19 244.014   4
   2  -2  11 40250.1 1168.03   4
   2  -2  12 8964.23 507.499   4
  -2   2 -12 6257.12 178.327   7
   2  -2  13 6469.69 444.926   4
  -2   2 -13 4762.96 134.854   7
   2  -2  14 3460.08 339.755   4
   2  -2  15 1159.24 207.397   4
   2  -2  16 26839.3 1065.08   4
   2  -2  17 858.273 180.776   4
   2  -2  18 68.1911 120.084   4
   2  -2  19 992.736 221.210   4
   2  -2  20 207.131 120.538   4
   2  -2  21 597.188 199.948   4
   2  -2  22 1350.53 277.970   4
   2  -2  23 160.777 140.817   4
   2  -2  24-28.0591 125.840   4
   2  -2  25 1414.14 315.985   4
   2  -1 -26-107.630 141.658   6
   2  -1 -25 817.754 233.649   6
  -2   1  25 1091.02 281.222   5
  -2   1  25 1178.31 258.108   4
   2  -1 -24 311.970 178.319   6
  -2   1  24 284.079 163.810   4
  -2   1  24 129.773 128.063   5
   2  -1 -23 202.546 145.104   6
  -2   1  23 224.713 124.184   4
  -2   1  23 245.274 148.821   5
   2  -1 -22 142.885 137.782   6
  -2   1  22-13.3443 86.8569   4
  -2   1  22-27.2456 108.621   5
  -2   1  21 3570.26 395.370   4
  -2   1  21 4208.91 455.966   5
   2  -1 -20 168.127 128.508   6
  -2   1  20 294.103 132.158   4
  -2   1  20 210.645 152.562   5
  -2   1  19 592.327 177.378   5
   2  -1 -19 620.407 183.421   6
  -2   1  19 713.530 167.066   4
  -2   1  18 86.5209 86.7510   4
  -2   1  18 32.1470 105.609   5
   2  -1 -18 157.430 104.614   6
   2  -1 -17 627.446 171.276   6
  -2   1  17 840.076 162.202   4
  -2   1  17 1058.02 211.047   5
  -2   1  16 117.867 83.6862   4
  -2   1  16 64.1997 92.1076   5
   2  -1 -16-99.1045 99.7975   6
  -2   1  15 5863.66 433.958   5
  -2   1  15 4946.97 351.784   4
   2  -1 -15 5508.83 419.257   6
  -2   1  14 1331.12 176.189   4
   2  -1 -14 1436.85 210.138   6
  -2   1  14 1497.35 215.097   5
  -2   1  13 7936.38 471.997   5
  -2   1  13 7614.26 397.395   4
   2  -1 -13 7716.01 469.956   6
  -2   1  12-13.0694 49.0191   4
   2  -1 -12-18.4878 55.1331   6
  -2   1  12 49.2407 69.7543   5
  -2   1  11 761.136 142.347   5
   2  -1 -11 602.852 129.423   6
  -2   1  11 649.651 103.761   4
  -2   1  10 48661.2 1210.63   5
  -2   1  10 45430.9 1041.43   4
   2  -1 -10 46019.6 1191.44   6
   2  -1  -9 197.855 78.9902   6
  -2   1   9 158.931 48.0913   4
  -2   1   9 175.572 73.5303   5
  -2   1   8 143.049 42.6838   4
   2  -1  -8 167.142 74.7488   6
  -2   1   8 76.9949 66.0226   5
   2  -1  -7 32074.4 854.674   6
  -2   1   7 32386.3 868.056   5
   2  -1  -7 31491.8 722.365   1
   2  -1  -6 2207.68 189.278   6
  -2   1   6 2263.42 194.652   5
   2  -1  -6 2464.79 151.440   1
  -2   1   5 8520.80 379.455   5
   2  -1  -5 9068.23 283.860   1
   2  -1  -4 87.1384 28.0362   3
  -2   1   4 68.7486 21.9291   1
  -2   1   4 66.1122 27.6770   4
  -2   1   4 11.1234 50.2154   5
   2  -1  -4 31.2162 21.2323   1
   2  -1  -4 100.770 54.3713   2
   2  -1  -3 9514.11 370.289   2
  -2   1   3 9846.49 245.326   1
  -2   1   3 9788.45 319.102   4
   2  -1  -3 9390.03 296.032   4
   2  -1  -3 9304.09 304.319   3
   2  -1  -2 73074.2 1275.42   3
   2  -1  -2 71050.1 1286.66   4
   2  -1  -2 73976.5 1412.55   2
  -2   1   2 76550.1 1313.06   4
   2  -1  -1 345013. 5312.90   4
   2  -1  -1 349259. 5449.05   2
   2  -1   0 5188.33 265.149   2
   2  -1   0 5407.12 223.858   4
   2  -1   1 13241.0 386.450   4
   2  -1   1 13274.5 444.865   2
   2  -1   2 329149. 5091.46   4
   2  -1   3 11978.1 392.787   4
   2  -1   4 41674.2 928.549   4
   2  -1   5 58224.3 1221.41   4
   2  -1   6 34078.3 875.724   4
   2  -1   7 848.419 131.272   4
   2  -1   8 4981.40 315.799   4
   2  -1   9 4035.59 300.101   4
   2  -1  10 1574.46 193.850   4
   2  -1  11 4919.44 355.389   4
   2  -1  12-18.7051 89.3377   4
   2  -1  13 7206.49 470.101   4
   2  -1  14 5192.72 411.622   4
   2  -1  15 963.233 194.609   4
   2  -1  16 349.245 134.875   4
   2  -1  17-29.2634 95.7052   4
   2  -1  18 1078.15 218.434   4
   2  -1  19 3045.85 377.311   4
   2  -1  20 338.474 155.011   4
   2  -1  21 1214.50 276.390   4
   2  -1  22 163.942 126.998   4
   2  -1  23-44.3779 109.358   4
   2  -1  24 65.9009 132.057   4
   2  -1  25 400.804 175.334   4
   2   0 -26 122.553 128.623   6
   2   0 -25 191.772 180.420   6
  -2   0  25 67.6172 128.460   5
  -2   0  24 25.6795 131.543   5
  -2   0  24 65.0690 118.954   4
  -2   0  23 127.731 120.469   5
   2   0 -23 264.096 146.186   6
  -2   0  23 271.576 140.987   4
  -2   0  22 352.171 153.306   5
  -2   0  22 256.123 144.432   4
  -2   0  21 3632.26 381.029   4
   2   0 -21 4188.36 482.467   6
  -2   0  21 4067.99 436.672   5
  -2   0  20 316.927 127.105   4
  -2   0  20 641.316 182.396   5
   2   0 -20 517.569 187.271   6
  -2   0  19 66.3077 96.3028   5
  -2   0  19 212.629 95.6514   4
  -2   0  18 3950.12 348.158   4
  -2   0  18 5209.33 444.947   5
   2   0 -18 4065.06 423.083   6
  -2   0  17 774.144 179.630   5
   2   0 -17 1070.56 208.845   6
  -2   0  17 971.943 169.576   4
  -2   0  16 4958.25 358.843   4
  -2   0  16 5211.21 418.664   5
   2   0 -16 4386.93 408.285   6
   2   0 -15 810.147 180.012   6
  -2   0  15 936.663 183.710   5
  -2   0  15 761.011 139.127   4
  -2   0  14 1144.80 190.370   5
  -2   0  14 1060.34 185.165   3
  -2   0  14 819.834 133.000   4
   2   0 -14 663.406 157.984   6
  -2   0  13 19206.4 653.392   4
  -2   0  13 21131.7 782.930   5
   2   0 -13 20921.2 814.536   6
  -2   0  12 286.592 98.4796   5
   2   0 -12 338.082 120.987   6
  -2   0  12 236.759 71.1734   4
   2   0 -11 8145.31 456.935   6
  -2   0  11 7404.00 343.451   4
  -2   0  11 8317.94 440.872   5
  -2   0  10 116954. 2224.94   5
   2   0 -10 116035. 2273.34   6
  -2   0   9 50.8574 66.1021   5
   2   0  -9 71.0987 78.8056   6
  -2   0   9 187.911 55.4691   4
   2   0  -8 37130.1 997.751   6
  -2   0   8 37562.5 967.771   5
  -2   0   8 36084.6 766.746   4
  -2   0   7 3736.06 167.850   4
   2   0  -7 3450.34 258.509   6
  -2   0   7 3911.99 261.452   5
  -2   0   6 5360.27 303.183   5
   2   0  -6 4892.59 296.037   6
  -2   0   6 5266.14 180.514   4
   2   0  -5 1727.03 165.650   6
   2   0  -5 2188.44 191.093   2
  -2   0   5 1659.59 157.470   5
  -2   0   5 1935.54 87.7584   4
   2   0  -4 82479.4 1629.96   2
  -2   0   4 84226.3 1594.44   5
  -2   0   3 42932.3 843.908   7
   2   0  -3 41427.4 976.504   2
  -2   0   2 6514.24 240.485   7
   2   0  -2 5981.96 305.439   2
   2   0  -1 84088.7 1327.21   4
  -2   0   1 84181.6 1438.54   7
  -2   0   1 84461.2 1308.09   4
  -2   0   1 82499.2 1319.19   1
   2   0  -1 83578.6 1630.98   2
   2   0   0 206234. 3099.95   4
  -2   0   0 201874. 3080.51   1
   2   0   0 203363. 3402.85   2
  -2   0   0 195925. 3081.13   4
  -2   0   0 201891. 3161.99   7
  -2   0  -1 237924. 3695.92   7
  -2   0  -1 236919. 3671.72   4
   2   0   1 245653. 3698.31   4
   2   0   2 263673. 4053.21   4
  -2   0  -2 258845. 3984.19   7
   2   0   3 3423.91 190.762   4
  -2   0  -3 3233.62 140.965   7
   2   0   4 4049.26 223.944   4
  -2   0  -4 4018.19 152.065   7
  -2   0  -5 2446.91 109.779   7
   2   0   5 2407.46 187.495   4
   2   0   6 1531.36 157.434   4
  -2   0  -6 1576.72 83.0091   7
  -2   0  -7 6068.33 171.196   7
   2   0   7 7267.31 363.131   4
   2   0   8 57288.9 1324.68   4
   2   0   9 1099.37 168.448   4
   2   0  10 68752.7 1598.06   4
   2   0  11 23998.6 844.863   4
   2   0  12 12832.9 626.637   4
   2   0  13 30.4410 78.5725   4
   2   0  14 1372.40 219.663   4
   2   0  15 535.550 159.667   4
   2   0  16 199.121 121.127   4
   2   0  17 908.434 201.834   4
   2   0  18 144.998 125.126   4
   2   0  19 2718.52 358.613   4
   2   0  20 31.0479 95.2921   4
   2   0  21 205.895 129.991   4
   2   0  22 231.579 157.277   4
   2   0  23 60.3889 108.036   4
   2   0  24 120.624 118.690   4
  -2  -1  26 44.2062 116.408   5
  -2  -1  25-36.1986 96.6453   5
   2   1 -25 351.439 185.413   6
  -2  -1  24-103.399 125.626   5
   2   1 -24-123.448 142.048   6
   2   1 -23 294.147 175.958   6
  -2  -1  23 230.191 143.360   5
  -2  -1  22 51.1901 100.289   4
  -2  -1  22-9.95106 111.558   5
   2   1 -22 145.421 139.142   6
  -2  -1  21 1535.81 280.863   5
   2   1 -21 1583.26 305.723   6
  -2  -1  21 1324.87 236.605   4
   2   1 -20 3904.81 448.149   6
  -2  -1  20 2523.29 302.701   4
  -2  -1  20 3476.15 381.372   5
  -2  -1  19 5263.13 463.806   5
  -2  -1  19 4990.59 405.516   4
   2   1 -19 5021.75 501.515   6
  -2  -1  18 421.807 149.519   5
   2   1 -18 792.806 233.280   6
  -2  -1  18 418.524 128.125   4
  -2  -1  17 1122.77 195.736   3
  -2  -1  17 980.381 190.234   5
   2   1 -17 1001.64 227.886   6
  -2  -1  17 1056.56 183.801   4
  -2  -1  16 10521.0 532.964   4
  -2  -1  16 12120.5 627.671   5
   2   1 -16 12121.6 690.212   6
  -2  -1  16 10618.8 609.760   3
  -2  -1  15 84.6950 66.9138   4
   2   1 -15 45.6953 78.0499   6
  -2  -1  15 105.649 96.2764   5
  -2  -1  15 98.5776 73.7222   3
  -2  -1  14 4958.09 321.175   4
  -2  -1  14 5469.75 391.770   5
  -2  -1  14 5367.75 394.238   3
   2   1 -14 5729.64 441.325   6
  -2  -1  13 7719.80 382.968   4
   2   1 -13 7332.10 495.775   6
  -2  -1  13 8096.53 458.886   5
  -2  -1  13 7918.37 467.727   3
  -2  -1  12 281.215 70.2062   4
  -2  -1  12 135.490 67.6435   5
   2   1 -12 277.795 102.157   6
  -2  -1  11 6199.45 307.277   4
   2   1 -11 7262.71 458.660   6
  -2  -1  11 6992.56 403.005   5
   2   1 -10 678.004 93.0780   7
   2   1 -10 601.363 133.023   6
  -2  -1  10 685.857 91.3429   4
  -2  -1  10 866.746 141.334   5
   2   1  -9 295.166 98.9935   6
  -2  -1   9 116.881 61.3472   5
   2   1  -9 266.830 62.5330   7
  -2  -1   9 412.848 69.2487   4
   2   1  -9 304.034 55.2745   4
  -2  -1   8 1979.44 133.852   4
   2   1  -8 1677.21 110.968   4
  -2  -1   8 1700.46 175.177   5
   2   1  -8 1582.81 144.526   7
   2   1  -8 1674.69 197.484   6
  -2  -1   7 33759.1 690.731   4
   2   1  -7 33509.4 645.982   4
  -2  -1   7 33136.1 869.134   5
   2   1  -7 33257.4 787.552   7
   2   1  -7 32296.4 930.437   6
  -2  -1   6 4939.33 185.255   4
   2   1  -6 4913.35 157.955   4
   2   1  -6 4838.30 245.250   7
  -2  -1   6 5038.02 284.056   5
   2   1  -6 5506.10 323.483   2
   2   1  -6 4791.57 306.954   6
   2   1  -5 8968.94 407.850   2
  -2  -1   5 8457.55 363.450   5
   2   1  -5 9038.57 412.886   6
   2   1  -5 8612.95 192.431   4
  -2  -1   5 7319.23 223.549   4
   2   1  -4 27691.5 777.910   2
   2   1  -3 27.2199 37.9395   2
   2   1  -2 60.8803 19.6846   4
   2   1  -2 19.6496 24.2968   1
   2   1  -2 5.81493 43.0842   2
   2   1  -1 104.520 59.1606   2
   2   1  -1 35.1752 22.6031   1
   2   1  -1 130.860 24.3364   4
  -2  -1   1 112.118 38.1700   1
   2   1   0 30382.8 661.653   1
  -2  -1   0 31548.9 719.548   1
   2   1   0 28669.4 826.863   2
   2   1   0 31140.2 612.142   4
  -2  -1  -1 100918. 1764.56   1
   2   1   1 96239.5 1703.74   1
   2   1   1 99640.4 1666.11   4
   2   1   2 371553. 5701.64   1
   2   1   2 374140. 5680.38   4
   2   1   2 382720. 5659.63   7
   2   1   3 27888.5 600.314   7
   2   1   3 26048.7 650.185   4
   2   1   4 30490.0 752.185   4
   2   1   4 30785.7 647.895   7
  -2  -1  -4 28761.9 626.133   7
   2   1   5 8146.94 361.874   4
   2   1   5 8544.39 275.768   7
   2   1   6 1818.27 173.742   4
   2   1   6 1921.08 118.664   7
   2   1   7 10320.6 452.621   4
   2   1   7 10355.8 294.279   7
   2   1   8 1459.43 93.7096   7
   2   1   8 1419.90 172.106   4
   2   1   9 892.916 151.352   4
   2   1   9 1074.44 76.7783   7
   2   1  10-62.8342 98.8151   4
   2   1  11 419.736 115.422   4
   2   1  12 145.344 89.4293   4
   2   1  13 65.1456 89.0417   4
   2   1  14 1434.08 228.443   4
   2   1  15 472.684 158.902   4
   2   1  16 313.988 134.631   4
   2   1  17 1463.37 251.939   4
   2   1  18-86.9321 89.9718   4
   2   1  19 456.661 171.970   4
   2   1  20 1653.27 307.057   4
   2   1  21 133.268 144.877   4
   2   1  22 1086.97 271.921   4
   2   1  23 67.6477 118.967   4
   2   1  24 1941.41 373.565   4
  -2  -2  26-221.463 159.554   5
   2   2 -25 44.3806 123.258   6
  -2  -2  25-140.923 125.530   5
  -2  -2  24 319.026 158.277   5
   2   2 -24 409.733 202.573   6
   2   2 -23 337.608 174.248   6
  -2  -2  23 541.286 168.932   5
   2   2 -22 3408.07 467.187   6
  -2  -2  22 2329.64 333.200   5
   2   2 -21 92.3293 145.723   6
  -2  -2  21-63.5471 101.066   5
   2   2 -20 5770.64 570.892   6
  -2  -2  20 5071.95 436.705   4
  -2  -2  20 5819.73 484.188   5
  -2  -2  20 5248.15 478.399   3
  -2  -2  19 2542.62 293.391   4
  -2  -2  19 2707.15 327.330   5
   2   2 -19 2833.55 396.192   6
  -2  -2  19 3294.46 369.297   3
  -2  -2  18-31.8681 82.1374   3
  -2  -2  18-54.5923 75.9535   4
   2   2 -18 115.820 135.096   6
  -2  -2  18 85.0987 103.976   5
  -2  -2  17 37.7733 76.0024   3
  -2  -2  17 231.033 118.146   5
  -2  -2  17 208.935 95.0701   4
   2   2 -17 91.9139 96.6117   6
   2   2 -16-63.9512 95.1700   6
  -2  -2  16-27.7797 59.7108   4
  -2  -2  16 31.4356 73.5582   3
  -2  -2  16 11.8155 71.4359   5
  -2  -2  15 219.339 109.948   3
  -2  -2  15 309.345 91.1900   4
  -2  -2  15 294.969 102.079   5
   2   2 -15 418.001 140.883   6
  -2  -2  14 5729.04 364.841   4
   2   2 -14 5902.09 331.200   7
  -2  -2  14 6027.74 401.120   5
  -2  -2  14 6529.54 450.247   3
   2   2 -14 6294.63 482.543   6
  -2  -2  13 1410.63 201.576   3
   2   2 -13 1025.79 138.934   7
   2   2 -13 1244.70 220.482   6
  -2  -2  13 1424.73 191.489   5
  -2  -2  13 1180.09 153.121   4
   2   2 -12 16618.4 742.152   6
  -2  -2  12 16442.6 586.017   4
  -2  -2  12 15855.1 628.066   5
  -2  -2  12 15739.4 681.064   3
   2   2 -12 15324.6 550.097   7
   2   2 -11 4066.44 352.417   6
   2   2 -11 4191.27 266.645   7
  -2  -2  11 4537.60 277.855   4
  -2  -2  11 4717.99 314.833   5
  -2  -2  10 2549.27 200.830   4
   2   2 -10 2922.60 217.513   7
  -2  -2  10 3026.68 244.313   5
   2   2 -10 3262.44 300.228   6
   2   2  -9 1351.73 110.604   4
  -2  -2   9 1284.75 154.603   5
   2   2  -9 1380.99 149.504   7
   2   2  -9 1301.23 190.218   6
  -2  -2   9 1441.59 141.093   4
   2   2  -8 3890.33 245.065   7
   2   2  -8 3508.55 170.618   4
   2   2  -8 3673.09 299.908   6
  -2  -2   8 3612.13 248.081   5
  -2  -2   8 3594.96 209.859   4
   2   2  -7 2000.86 119.119   4
  -2  -2   7 1948.09 178.399   5
   2   2  -7 1989.08 217.058   6
  -2  -2   7 1983.02 146.218   4
   2   2  -7 1934.61 171.982   7
   2   2  -6 3461.27 154.654   4
   2   2  -6 3324.38 256.727   2
   2   2  -6 3668.98 281.635   6
  -2  -2   6 3021.28 212.594   5
  -2  -2   6 3298.01 182.169   4
   2   2  -5 21853.1 706.350   2
   2   2  -5 21408.5 712.985   6
  -2  -2   5 21431.9 616.798   5
  -2  -2   5 21112.1 524.554   4
   2   2  -5 22488.9 505.389   4
  -2  -2   4 15637.5 413.679   4
   2   2  -4 15825.5 423.497   4
   2   2  -4 15555.6 579.394   2
   2   2  -3 36251.4 970.008   2
   2   2  -3 35188.2 774.653   4
   2   2  -2 3152.71 257.132   2
   2   2  -2 3558.28 202.142   4
   2   2  -2 3541.81 222.035   1
   2   2  -1 50284.1 1031.68   4
   2   2  -1 46127.1 1186.29   2
   2   2  -1 48025.5 1062.52   1
   2   2   0 36579.8 1000.17   2
   2   2   0 36933.0 878.716   1
   2   2   1 73335.4 1468.63   1
   2   2   2 14238.2 448.377   7
   2   2   2 13867.7 494.017   1
   2   2   3 14470.6 447.298   7
   2   2   3 13974.5 508.231   1
   2   2   3 14402.3 478.244   4
   2   2   4 2315.15 163.799   7
   2   2   4 2273.83 199.971   1
   2   2   4 2041.03 180.243   4
   2   2   5 15881.9 464.636   7
   2   2   5 15625.8 568.192   1
   2   2   5 16156.2 560.981   4
   2   2   6 1271.95 155.490   4
   2   2   6 1014.08 104.082   7
   2   2   7 4872.60 319.980   4
   2   2   7 4861.48 228.339   7
   2   2   8 203.688 79.4156   4
   2   2   8 204.803 47.3392   7
   2   2   9 372.444 111.210   4
   2   2   9 512.879 72.0721   7
   2   2  10 2517.50 148.558   7
   2   2  10 1914.47 228.230   4
   2   2  11 1958.85 238.686   4
   2   2  11 2092.99 129.318   7
   2   2  12 762.817 159.140   4
   2   2  12 799.376 73.9795   7
   2   2  13 2936.90 310.349   4
   2   2  14 1144.84 211.429   4
   2   2  15 1956.46 281.459   4
   2   2  16 1979.25 305.043   4
   2   2  17 8890.24 634.403   4
   2   2  18 1837.43 301.471   4
   2   2  19 1283.09 300.233   4
   2   2  20 354.174 161.677   4
   2   2  21 1596.83 316.923   4
   2   2  22 1722.78 339.575   4
   2   2  23-7.67640 114.280   4
  -2  -3  26-148.688 139.936   5
  -2  -3  25 699.002 212.173   5
   2   3 -24 782.036 257.899   6
  -2  -3  24 499.881 179.894   5
  -2  -3  23 41.8816 103.780   3
  -2  -3  23 130.446 102.715   5
  -2  -3  22 706.819 201.455   3
   2   3 -22 253.989 200.793   6
  -2  -3  22 751.196 190.360   5
  -2  -3  21 369.352 153.837   3
  -2  -3  21 174.548 100.306   5
   2   3 -21 268.377 135.087   6
  -2  -3  20 1867.28 271.921   5
   2   3 -20 1545.79 308.730   6
  -2  -3  20 2044.59 301.960   3
  -2  -3  19 925.903 215.239   3
   2   3 -19 1413.55 297.450   6
  -2  -3  19 730.443 177.763   5
   2   3 -18 41.9857 128.268   6
  -2  -3  18 202.335 117.934   5
  -2  -3  18 59.7566 101.866   3
  -2  -3  17 1557.82 243.419   3
   2   3 -17 1271.26 174.960   7
   2   3 -17 1761.75 302.447   6
  -2  -3  17 1395.92 222.142   5
  -2  -3  17 1700.15 229.936   4
  -2  -3  16 2623.29 276.880   4
   2   3 -16 2745.70 246.026   7
  -2  -3  16 3351.43 316.693   5
  -2  -3  16 2853.39 327.551   3
   2   3 -16 3248.15 383.262   6
  -2  -3  15 2098.89 277.403   3
   2   3 -15 1710.73 194.792   7
   2   3 -15 1758.16 277.068   6
  -2  -3  15 1575.83 211.361   5
  -2  -3  15 1744.12 217.280   4
  -2  -3  14-88.6431 104.531   3
  -2  -3  14-45.3602 64.1066   4
   2   3 -14 38.0408 62.6233   7
  -2  -3  14 59.9250 58.7792   5
   2   3 -14 120.815 98.1603   6
   2   3 -13 551.438 160.786   6
  -2  -3  13 392.586 125.982   3
  -2  -3  13 363.009 94.7903   4
  -2  -3  13 362.420 98.9485   5
   2   3 -13 300.606 92.9363   7
   2   3 -12 1558.54 234.662   6
   2   3 -12 1243.11 162.726   7
  -2  -3  12 1307.65 173.164   4
  -2  -3  12 1451.38 179.249   5
  -2  -3  12 1612.63 227.684   3
  -2  -3  11 1265.57 206.300   3
  -2  -3  11 946.147 140.927   4
   2   3 -11 921.271 184.350   6
  -2  -3  11 1033.63 146.885   5
   2   3 -11 936.266 135.656   7
   2   3 -10 73.7290 52.9593   7
  -2  -3  10 36.7289 44.8048   4
  -2  -3  10-1.18187 43.0184   5
   2   3 -10-11.6302 68.8661   6
   2   3  -9 719.461 122.783   7
  -2  -3   9 794.555 124.247   4
   2   3  -9 889.128 163.898   6
  -2  -3   9 728.208 110.998   5
   2   3  -8 222.787 90.2406   6
   2   3  -8 405.179 91.6339   7
   2   3  -8 434.588 72.6262   4
  -2  -3   8 336.771 80.1664   4
  -2  -3   8 455.465 89.2540   5
   2   3  -7 61357.9 1211.87   4
   2   3  -7 61340.5 1440.20   2
   2   3  -7 61406.2 1510.06   6
   2   3  -7 62456.2 1372.84   7
  -2  -3   7 61649.2 1284.62   5
  -2  -3   7 61264.2 1296.89   4
   2   3  -6 3907.62 222.503   4
   2   3  -6 4056.39 292.027   2
  -2  -3   6 3872.90 240.058   4
  -2  -3   6 3691.34 230.744   5
   2   3  -6 3903.62 307.019   6
   2   3  -5 19390.9 677.890   2
  -2  -3   5 18572.6 559.924   5
  -2  -3   5 19790.0 577.378   4
   2   3  -5 20197.3 581.903   4
   2   3  -4 7660.33 411.376   2
  -2  -3   4 8290.49 345.662   4
   2   3  -4 7665.64 350.306   4
   2   3  -3 671.217 105.802   4
   2   3  -3 547.481 111.440   2
   2   3  -3 624.572 115.108   1
   2   3  -2 17620.4 674.403   2
   2   3  -2 17975.9 638.900   1
   2   3  -1 61.5214 60.6478   2
   2   3  -1 50.0728 67.9166   1
   2   3   0 555.489 123.288   2
   2   3   0 449.037 100.133   1
   2   3   1 20.7847 47.4627   7
   2   3   1-45.0340 73.2333   1
   2   3   2 356.137 82.3313   1
   2   3   2 346.123 73.9559   7
   2   3   3 21101.9 624.699   7
   2   3   3 21765.7 734.519   1
   2   3   4 4253.37 307.873   1
   2   3   4 3882.72 239.337   7
   2   3   5 8496.87 359.138   7
   2   3   5 8176.64 444.354   1
   2   3   5 8538.75 420.330   4
   2   3   6 2950.46 205.466   7
   2   3   6 2604.80 253.582   1
   2   3   6 3395.31 270.034   4
   2   3   7 185.240 60.0462   7
   2   3   7 223.722 87.0263   1
   2   3   7 60.0006 58.4402   4
   2   3   8 760.881 103.482   7
   2   3   8 1045.83 160.398   4
   2   3   9 5729.55 280.448   7
   2   3   9 6416.19 417.002   4
   2   3  10 1755.65 148.113   7
   2   3  10 1430.26 205.391   4
   2   3  11-23.3235 81.6273   4
   2   3  11-38.6163 43.7757   7
   2   3  12 901.917 106.705   7
   2   3  12 918.593 191.622   4
   2   3  13 1678.33 256.804   4
   2   3  14 1079.65 222.538   4
   2   3  15 916.609 189.759   4
   2   3  16 8936.34 633.087   4
   2   3  17 3105.61 393.770   4
   2   3  18 2159.70 334.427   4
   2   3  19 316.151 165.275   4
   2   3  20 323.416 163.534   4
   2   3  21 23.5686 117.846   4
   2   3  22 285.547 163.148   4
  -2  -4  24 129.272 118.906   3
  -2  -4  23 7.79027 143.552   3
   2   4 -23 272.870 174.743   6
  -2  -4  22 216.784 141.091   3
   2   4 -22 242.377 175.644   6
  -2  -4  21 580.589 195.139   3
   2   4 -21 650.452 224.727   6
  -2  -4  21 455.012 156.472   5
  -2  -4  20 22.6159 82.8401   3
   2   4 -20 39.4739 111.289   6
  -2  -4  20 88.7236 90.6844   5
  -2  -4  19 1603.02 244.530   5
  -2  -4  19 1534.89 267.250   3
   2   4 -19 1687.55 313.035   6
  -2  -4  18 1784.70 278.978   3
   2   4 -18 1440.73 199.826   7
  -2  -4  18 1841.99 250.442   5
   2   4 -18 1623.96 293.765   6
  -2  -4  17-41.4915 96.1266   3
   2   4 -17 153.883 128.622   6
   2   4 -17 17.0505 56.7951   7
  -2  -4  17 66.8717 91.3740   5
  -2  -4  16 44.4306 110.071   3
  -2  -4  16 168.023 85.2813   5
   2   4 -16 284.696 159.798   6
   2   4 -16 200.348 90.4956   7
  -2  -4  15 4070.45 396.276   3
   2   4 -15 3677.99 421.132   6
  -2  -4  15 4235.28 331.642   5
   2   4 -15 3704.01 309.325   7
  -2  -4  15 3952.33 349.057   4
  -2  -4  14-11.0416 72.5721   4
  -2  -4  14-144.459 118.937   3
   2   4 -14-130.668 130.886   6
  -2  -4  14-29.7019 72.1048   5
   2   4 -14 28.4829 62.0254   7
  -2  -4  13 407.698 107.846   4
   2   4 -13 364.054 141.864   6
  -2  -4  13 443.853 110.609   5
  -2  -4  13 425.425 143.059   3
   2   4 -13 333.767 106.146   7
  -2  -4  12 11.2886 52.8372   5
  -2  -4  12 123.869 68.0657   4
   2   4 -12 88.4170 73.0949   7
  -2  -4  12 58.6656 69.9359   3
   2   4 -12 144.990 106.718   6
  -2  -4  11 1355.03 192.027   4
   2   4 -11 1639.42 246.918   6
   2   4 -11 1766.08 210.363   7
  -2  -4  11 1539.38 236.942   3
  -2  -4  11 1679.61 177.149   5
   2   4 -10 3096.25 272.435   7
   2   4 -10 3069.75 326.612   6
  -2  -4  10 2994.64 224.588   5
  -2  -4  10 3301.82 276.688   4
   2   4  -9 1561.67 229.717   6
  -2  -4   9 1474.47 153.348   5
   2   4  -9 1787.17 202.219   7
  -2  -4   9 1745.56 195.161   4
   2   4  -8 1005.75 182.254   6
   2   4  -8 878.692 144.273   7
  -2  -4   8 1077.67 121.876   5
  -2  -4   8 988.584 145.421   4
  -2  -4   7 132.409 53.3861   5
   2   4  -7 134.364 65.9697   2
   2   4  -7 135.811 69.5071   6
  -2  -4   7 59.6361 53.2426   4
   2   4  -7 201.846 72.8184   7
   2   4  -6 19.6094 50.8786   6
  -2  -4   6-9.91828 41.3941   5
   2   4  -6 22.0564 49.0997   2
  -2  -4   6 54.4774 41.5385   4
   2   4  -5 9191.66 462.855   2
  -2  -4   5 9636.46 436.915   4
  -2  -4   5 9164.56 355.170   5
   2   4  -4-0.99429 50.2053   2
   2   4  -3 1973.78 219.701   2
   2   4  -3 2267.07 249.383   1
   2   4  -2 1307.75 190.544   1
   2   4  -2 1538.86 195.786   2
   2   4  -1 7768.66 456.486   2
   2   4  -1 7390.72 445.157   1
   2   4   0 2566.51 267.027   2
   2   4   0 2349.39 246.063   1
   2   4   1-31.9501 85.4029   2
   2   4   1-59.5803 51.4536   1
   2   4   2 654.579 121.189   1
   2   4   3 1723.73 216.705   1
   2   4   4 2589.82 269.510   1
   2   4   5 7227.79 453.297   1
   2   4   6 1221.96 193.503   1
   2   4   7 2079.47 256.228   1
   2   4   7 1811.94 217.329   4
   2   4   8 5219.43 406.275   1
   2   4   8 5847.24 409.793   4
   2   4   9 7564.80 504.545   1
   2   4   9 7985.84 499.258   4
   2   4  10 10611.5 593.677   4
   2   4  11 1504.57 227.229   4
   2   4  12 837.040 191.475   4
   2   4  13 12111.1 701.229   4
   2   4  14 6478.30 526.249   4
   2   4  15 14230.5 805.730   4
   2   4  16 419.496 145.548   4
   2   4  17 66.9609 103.685   4
   2   4  18 89.2374 130.820   4
   2   4  19 83.2756 111.377   4
   2   4  20 695.199 223.873   4
  -2  -5  23 251.858 158.786   3
  -2  -5  22 977.192 241.601   3
   2   5 -22 1453.55 331.263   6
  -2  -5  21 48.9943 99.9370   3
   2   5 -21-105.406 173.619   6
  -2  -5  20 659.825 204.757   3
   2   5 -20 1031.69 267.581   6
  -2  -5  19 593.841 176.999   3
   2   5 -19 571.493 138.755   7
   2   5 -19 652.029 218.840   6
  -2  -5  18 1339.59 261.636   3
   2   5 -18 1002.24 237.471   6
   2   5 -18 736.111 154.015   7
  -2  -5  17-146.414 123.711   3
   2   5 -17 42.2900 68.5281   7
   2   5 -17-105.746 133.968   6
   2   5 -16 1045.20 186.774   7
   2   5 -16 898.725 246.386   6
  -2  -5  16 1179.15 233.091   3
   2   5 -15-70.8621 122.411   6
  -2  -5  15 99.3700 118.155   3
   2   5 -15-5.85215 65.8414   7
   2   5 -14 3112.95 305.998   7
  -2  -5  14 4194.33 424.300   3
   2   5 -14 3363.56 402.853   6
  -2  -5  13 3360.41 261.675   5
   2   5 -13 2973.30 365.412   6
  -2  -5  13 3133.64 363.391   3
   2   5 -13 2804.05 289.978   7
  -2  -5  12 1360.87 204.628   4
   2   5 -12 1231.62 234.058   6
  -2  -5  12 1390.33 160.005   5
   2   5 -12 1551.98 218.510   7
  -2  -5  12 1219.74 234.027   3
   2   5 -11 63.0339 79.0156   6
  -2  -5  11 111.654 91.6726   4
   2   5 -11-123.301 85.9012   7
  -2  -5  11 10.6289 48.3770   5
  -2  -5  10 20673.9 610.718   5
   2   5 -10 20631.1 795.472   7
   2   5 -10 19843.9 894.310   6
  -2  -5  10 20446.8 792.813   4
   2   5  -9 139.546 98.0735   6
  -2  -5   9 201.207 78.7854   4
  -2  -5   9 325.277 72.9443   5
   2   5  -9 154.307 110.002   7
   2   5  -8 13263.4 682.818   6
  -2  -5   8 14518.8 455.530   5
  -2  -5   8 14630.0 631.270   4
   2   5  -8 14562.9 647.383   7
   2   5  -7 105.736 82.1387   7
  -2  -5   7 149.083 50.4706   5
   2   5  -7 49.1673 74.1459   2
  -2  -5   7 133.205 72.8819   4
  -2  -5   6 11551.8 382.987   5
   2   5  -6 11646.6 568.083   7
   2   5  -6 11539.4 537.450   2
  -2  -5   6 12253.9 562.112   4
   2   5  -5 5369.97 372.898   7
   2   5  -5 5495.07 367.762   2
  -2  -5   5 5601.59 254.156   5
   2   5  -4 3536.61 299.736   7
   2   5  -4 3109.99 328.070   1
   2   5  -4 2922.06 277.069   2
   2   5  -3 315.146 107.811   7
   2   5  -3 475.056 144.011   1
   2   5  -3 540.309 131.559   2
   2   5  -2 5122.52 386.106   2
   2   5  -2 4800.96 339.569   7
   2   5  -2 4350.41 377.765   1
   2   5  -1 5360.15 356.778   7
   2   5  -1 5143.14 403.846   1
   2   5  -1 5007.89 395.829   2
   2   5   0 336.532 127.467   2
   2   5   0 55.1666 60.5567   1
   2   5   0 324.837 104.676   7
   2   5   1 651.396 142.940   1
   2   5   1 1156.90 163.417   7
   2   5   1 932.661 179.988   2
   2   5   2 1452.08 181.787   7
   2   5   2 1528.68 215.438   1
   2   5   3 9.88708 51.8456   7
   2   5   3 122.972 76.6067   1
   2   5   4 11272.8 628.020   1
   2   5   4 11103.8 508.037   7
   2   5   5 628.712 120.742   7
   2   5   5 654.302 158.447   1
   2   5   6 349.400 110.133   1
   2   5   6 442.110 108.249   7
   2   5   7 6381.69 478.985   1
   2   5   7 6243.12 366.572   7
   2   5   8 9518.22 554.001   4
   2   5   8 8688.57 570.205   1
   2   5   8 9087.13 441.540   7
   2   5   9 7632.49 512.039   4
   2   5   9 8329.25 416.584   7
   2   5   9 7275.39 524.338   1
   2   5  10 172.048 80.8878   7
   2   5  10 174.798 112.776   1
   2   5  10-18.3638 126.776   4
   2   5  11 684.172 120.115   7
   2   5  11 672.532 161.970   4
   2   5  12 1996.78 290.827   4
   2   5  13 762.589 180.298   4
   2   5  14 3348.88 397.662   4
   2   5  15 138.586 124.321   4
   2   5  16-27.7119 109.606   4
   2   5  17 355.815 170.709   4
   2   5  18-88.8191 116.037   4
   2   5  19 284.510 168.587   4
  -2  -6  22 296.005 164.474   3
  -2  -6  21 244.090 151.899   3
   2   6 -21 245.731 161.907   6
  -2  -6  20 2979.79 406.300   3
   2   6 -20 2718.28 453.944   6
  -2  -6  19 1046.56 246.612   3
   2   6 -19 1309.13 224.776   7
   2   6 -19 1491.14 315.495   6
   2   6 -18 2319.62 292.623   7
   2   6 -18 2524.86 401.762   6
  -2  -6  18 2766.20 379.454   3
   2   6 -17 136.555 135.278   6
   2   6 -17 30.9213 84.8674   7
  -2  -6  17 19.0433 121.700   3
   2   6 -16 2050.28 340.125   6
   2   6 -16 2290.19 291.704   7
  -2  -6  16 2187.02 330.803   3
   2   6 -15 2944.65 322.670   7
  -2  -6  15 2749.24 368.936   3
   2   6 -15 2635.50 370.435   6
   2   6 -14 23.5212 105.612   6
   2   6 -14 396.073 128.041   7
  -2  -6  14 448.146 167.801   3
   2   6 -13 3215.82 331.149   7
   2   6 -13 3040.33 383.747   6
  -2  -6  13 3055.31 378.567   3
   2   6 -12 2321.62 287.360   7
   2   6 -12 2101.90 314.042   6
   2   6 -11 1236.52 232.748   6
   2   6 -11 1334.15 216.100   7
   2   6 -10 25891.0 973.531   7
   2   6 -10 24504.0 1050.59   6
  -2  -6  10 26727.1 966.319   4
  -2  -6   9 1281.17 199.865   4
   2   6  -9 1763.60 252.303   7
   2   6  -9 1350.58 243.784   6
   2   6  -8 6845.35 468.575   7
  -2  -6   8 6649.59 446.789   4
   2   6  -7 236.352 105.469   7
   2   6  -7 212.335 90.3599   2
  -2  -6   7 260.467 105.767   4
   2   6  -6 68.9465 80.6733   7
   2   6  -6 108.424 68.4132   2
   2   6  -6-56.8008 92.0532   1
   2   6  -5 6456.49 413.920   2
   2   6  -5 6612.84 442.199   7
   2   6  -5 6234.32 506.326   1
   2   6  -4 20277.5 786.652   2
   2   6  -4 20642.8 818.697   7
   2   6  -4 20858.0 947.000   1
   2   6  -3 18312.6 774.284   2
   2   6  -3 19479.8 913.157   1
   2   6  -3 18989.4 773.825   7
   2   6  -2 4245.56 411.156   1
   2   6  -2 4302.14 359.837   7
   2   6  -2 3852.88 364.667   2
   2   6  -1 1597.85 217.050   7
   2   6  -1 1418.42 238.623   1
   2   6  -1 1594.52 249.937   2
   2   6   0 2024.25 240.717   7
   2   6   0 2414.80 301.577   1
   2   6   0 2576.04 311.925   2
   2   6   1 1014.22 202.341   1
   2   6   1 1120.44 219.491   2
   2   6   1 1367.12 200.529   7
   2   6   2 6014.65 480.985   1
   2   6   2 6859.65 535.265   2
   2   6   2 6077.49 403.986   7
   2   6   3 5945.33 400.619   7
   2   6   3 6332.76 505.909   1
   2   6   4 1536.45 252.872   1
   2   6   4 1624.03 210.792   7
   2   6   5 1506.15 198.258   7
   2   6   5 1406.74 240.464   1
   2   6   6 6593.16 410.855   7
   2   6   6 6248.84 500.232   1
   2   6   7 7010.06 536.379   1
   2   6   7 6711.11 414.227   7
   2   6   8 2618.29 338.747   1
   2   6   8 2943.22 325.095   4
   2   6   8 2644.47 256.816   7
   2   6   9 1905.06 297.163   1
   2   6   9 2070.93 224.916   7
   2   6   9 1659.72 250.608   4
   2   6  10 3541.92 292.033   7
   2   6  10 3283.95 380.879   1
   2   6  10 2977.55 347.089   4
   2   6  11 677.500 187.372   1
   2   6  11 267.672 116.109   4
   2   6  12 432.390 182.252   4
   2   6  13 733.882 209.504   4
   2   6  14 542.809 184.309   4
   2   6  15-111.854 104.139   4
   2   6  16 2501.94 378.966   4
   2   6  17 486.484 199.615   4
   2   7 -20 106.867 127.608   6
  -2  -7  20 113.339 139.894   3
  -2  -7  19 3541.66 453.961   3
   2   7 -19 3440.08 379.321   7
   2   7 -19 3984.68 524.207   6
   2   7 -18 254.775 119.507   7
   2   7 -18 48.4898 135.429   6
  -2  -7  18 280.561 162.296   3
   2   7 -17 1344.52 302.423   6
   2   7 -17 1910.32 280.579   7
  -2  -7  17 1758.84 324.329   3
  -2  -7  16 904.596 220.465   3
   2   7 -16 449.468 167.669   6
   2   7 -16 738.311 185.140   7
   2   7 -15 247.047 118.665   6
   2   7 -15 182.416 118.510   7
  -2  -7  15 259.222 135.585   3
   2   7 -14 2770.27 390.254   6
   2   7 -14 3173.55 352.488   7
  -2  -7  14 2963.69 393.912   3
   2   7 -13 125.794 103.486   7
   2   7 -13 29.5304 97.7614   6
   2   7 -12 2851.27 368.771   6
   2   7 -12 2967.98 339.375   7
   2   7 -11-110.652 128.613   6
   2   7 -11-76.8212 93.8000   7
   2   7 -10 15618.3 784.827   7
   2   7  -9 1227.66 229.070   7
   2   7  -8 503.548 146.877   7
   2   7  -7 927.574 245.100   1
   2   7  -7 398.172 148.049   7
   2   7  -6 4988.19 417.551   7
   2   7  -6 5114.08 498.634   1
   2   7  -5 291.146 133.269   7
   2   7  -5 220.011 130.302   1
   2   7  -4 20436.6 872.710   7
   2   7  -4 20593.6 1017.49   1
   2   7  -3 595.469 193.616   7
   2   7  -3 905.671 253.555   1
   2   7  -2 18343.7 811.862   7
   2   7  -2 18755.9 943.773   1
   2   7  -1 4257.97 383.965   7
   2   7  -1 3841.28 425.419   1
   2   7   0 2553.92 337.658   1
   2   7   0 2844.59 307.095   7
   2   7   1 4529.33 384.582   7
   2   7   1 4523.76 448.161   1
   2   7   2 5671.69 509.145   1
   2   7   2 6093.52 440.286   7
   2   7   3 5746.54 426.478   7
   2   7   3 5705.82 509.818   1
   2   7   3 6276.42 556.177   2
   2   7   4 8095.44 610.209   1
   2   7   4 8005.39 501.776   7
   2   7   5 1197.32 198.341   7
   2   7   5 1361.33 267.877   1
   2   7   6 6914.74 463.040   7
   2   7   6 7602.16 595.260   1
   2   7   7 7326.29 470.569   7
   2   7   7 7578.13 596.450   1
   2   7   8 826.009 163.153   7
   2   7   8 1108.55 255.344   1
   2   7   8 952.266 201.096   4
   2   7   9 135.055 136.118   1
   2   7   9 251.227 103.445   7
   2   7  10 478.132 203.083   1
   2   7  10 69.7607 88.2700   4
   2   7  11 110.892 134.611   1
   2   7  11 271.412 108.737   4
   2   7  12-91.0340 117.855   4
   2   7  13 41.9044 104.603   4
   2   7  14 160.923 139.165   4
   2   7  15 169.739 139.892   4
   2   8 -19 600.445 189.973   7
   2   8 -18 36.6312 110.786   6
   2   8 -18 99.4231 112.152   7
  -2  -8  18 106.287 119.826   3
   2   8 -17 1729.25 284.151   7
  -2  -8  17 1679.14 330.217   3
   2   8 -17 1287.92 310.972   6
   2   8 -16 970.012 216.898   7
   2   8 -16 776.576 228.783   6
  -2  -8  16 1028.16 254.009   3
   2   8 -15 1205.06 289.739   6
   2   8 -15 1153.71 225.737   7
  -2  -8  15 1033.03 262.060   3
   2   8 -14 774.896 194.910   7
   2   8 -14 916.438 237.142   6
  -2  -8  14 695.011 211.138   3
   2   8 -13 193.263 120.732   7
   2   8 -12 2063.00 301.556   7
   2   8 -11 57.6890 85.3040   7
   2   8 -10 527.612 174.904   7
   2   8  -9 285.546 160.138   1
   2   8  -9 390.352 152.499   7
   2   8  -8 138.238 113.973   7
   2   8  -8 166.339 182.388   1
   2   8  -7 11800.5 712.362   7
   2   8  -7 11939.9 836.393   1
   2   8  -6 388.329 208.801   1
   2   8  -6 699.226 197.931   7
   2   8  -5 2729.90 336.003   7
   2   8  -5 2532.76 371.598   1
   2   8  -4 2719.81 385.395   1
   2   8  -4 2818.73 337.851   7
   2   8  -3 1968.57 284.543   7
   2   8  -3 1356.73 274.675   1
   2   8  -2 911.969 226.147   1
   2   8  -2 1192.92 224.611   7
   2   8  -1 1128.61 267.280   1
   2   8  -1 951.424 203.410   7
   2   8   0 128.766 107.413   7
   2   8   0-37.1516 113.457   1
   2   8   1 1537.42 245.598   7
   2   8   1 1455.67 285.349   1
   2   8   2 345.848 131.929   7
   2   8   2 493.403 177.123   1
   2   8   3 3142.10 338.560   7
   2   8   3 3193.49 415.725   1
   2   8   4 304.167 151.918   1
   2   8   4 97.1003 92.1590   7
   2   8   5 79.9128 71.2464   7
   2   8   5 190.206 143.216   1
   2   8   6 2556.90 301.173   7
   2   8   6 1895.29 324.289   1
   2   8   7 34.6529 100.471   1
   2   8   7 147.983 107.728   7
   2   8   8 353.158 124.596   7
   2   8   8 243.481 135.075   4
   2   8   8 281.747 158.575   1
   2   8   9-113.553 132.321   1
   2   8   9 32.8102 105.790   4
   2   8  10 527.214 174.492   1
   2   8  10 264.312 144.868   4
   2   8  11-58.7432 136.145   1
   2   8  11-144.905 119.539   4
   2   8  12-100.891 124.129   4
   2   8  13 315.829 173.654   4
   2   9 -14 37.7741 93.7835   7
   2   9 -13 433.308 154.931   7
   2   9 -12 1086.24 241.551   7
   2   9 -11-73.7505 97.0408   7
   2   9 -10 1653.38 284.783   7
   2   9 -10 1737.47 357.162   1
   2   9  -9 167.821 131.619   1
   2   9  -9 110.759 135.277   7
   2   9  -8 2777.59 363.485   7
   2   9  -8 2614.08 415.929   1
   2   9  -7 4003.34 515.598   1
   2   9  -7 3505.36 409.357   7
   2   9  -6 1097.23 275.360   1
   2   9  -6 950.727 225.714   7
   2   9  -5 4836.34 477.612   7
   2   9  -5 4597.98 535.654   1
   2   9  -4 2581.15 347.017   7
   2   9  -4 1976.27 350.087   1
   2   9  -3 4004.02 432.479   7
   2   9  -3 4351.32 508.290   1
   2   9  -2 1628.54 314.039   1
   2   9  -2 2458.03 336.875   7
   2   9  -1 232.550 153.285   1
   2   9  -1 353.949 151.050   7
   2   9   0 2972.85 366.587   7
   2   9   0 2993.16 419.953   1
   2   9   1 24.3569 83.7365   7
   2   9   1-30.9301 160.962   1
   2   9   2-214.739 148.550   1
   2   9   2-51.0167 80.2896   7
   2   9   3 797.306 230.852   1
   2   9   3 836.606 190.407   7
   2   9   4 13.6638 74.1676   7
   2   9   4 30.0655 120.941   1
   2   9   5 57.6727 99.4530   7
   2   9   5 17.4049 129.028   1
   2   9   6 572.602 171.256   7
   2   9   6 620.732 201.992   1
   2   9   7 113.677 93.5535   7
   2   9   7 190.891 161.511   1
   2   9   8 544.518 150.977   7
   2   9   8 901.136 242.106   1
   2   9   8 859.285 223.111   4
   2   9   9 616.642 201.564   4
   2   9  10 544.733 193.929   4
   2  10  -7 81.6540 143.393   1
   2  10  -6 3088.86 460.780   1
   2  10  -5 1071.44 287.830   1
   2  10  -4 135.849 144.024   1
   2  10  -3 3012.66 449.676   1
   2  10  -3 2414.95 355.030   7
   2  10  -2 766.427 219.184   1
   2  10  -2 1096.12 241.933   7
   2  10  -1 398.472 155.577   7
   2  10  -1 223.456 138.756   1
   2  10   0 37.3070 114.034   7
   2  10   0-1.98333 134.853   1
   2  10   1 525.490 218.588   1
   2  10   1 507.987 171.635   7
   2  10   2 293.819 188.195   1
   2  10   2 424.790 173.890   7
   2  10   3 35.3695 113.729   7
   2  10   3 28.5602 99.5217   1
   2  10   4 1711.52 347.828   1
   2  10   4 1519.83 277.434   7
   2  10   5-65.3541 99.9489   7
   2  10   6 455.584 160.715   7
   2  10   7 2043.56 339.784   4
  -3  12   2 24.9661 145.696   1
  -3  12   1-73.1308 177.561   1
  -3  12   0 369.669 210.826   1
  -3  12  -1 385.612 249.103   1
  -3  12  -2-89.4786 183.684   1
   3 -12   2-265.653 177.673   4
  -3  12  -3 601.138 274.242   1
   3 -12   3 407.381 211.723   4
  -3  12  -4 539.578 247.307   1
   3 -12   4 327.827 201.050   4
  -3  12  -5 358.934 228.618   1
   3 -12   5 335.006 218.296   4
   3 -12   6 2648.32 472.033   4
   3 -12   7-74.2091 170.634   4
   3 -12   8 1320.99 331.650   4
   3 -12   9 4048.28 560.438   4
   3 -12  10 344.245 197.375   4
   3 -12  11 3955.87 572.611   4
   3 -12  12 390.718 185.208   4
   3 -12  13 794.100 278.429   4
  -3  11   9 4779.31 576.148   1
  -3  11   8 266.807 194.950   1
  -3  11   7-171.331 178.758   1
  -3  11   6 830.399 241.740   1
  -3  11   5 28.5739 110.320   1
  -3  11   4 411.641 209.714   1
  -3  11   3 1789.06 375.993   1
  -3  11   2 161.932 135.449   1
  -3  11   1 126.829 169.033   1
  -3  11   0 817.671 263.786   1
  -3  11  -1 171.590 179.710   1
   3 -11   1 112.266 145.408   4
  -3  11  -2 783.301 260.956   1
   3 -11   2 315.372 199.314   4
  -3  11  -3 1028.56 308.493   1
   3 -11   3 874.244 272.606   4
   3 -11   4 847.947 254.720   4
   3 -11   5 416.328 201.987   4
   3 -11   6 3272.28 486.469   4
   3 -11   7 85.8024 133.183   4
   3 -11   8 1234.59 322.268   4
   3 -11   9 4120.00 571.022   4
   3 -11  10 176.944 133.117   4
   3 -11  11 2595.69 453.027   4
   3 -11  12 261.717 186.764   4
   3 -11  13 213.586 163.836   4
   3 -11  14 94.1643 191.641   4
   3 -11  15 831.069 283.762   4
  -3  11 -15 513.097 160.441   7
   3 -11  16 240.830 188.950   4
  -3  11 -16 224.878 116.244   7
  -3  10  13 488.643 187.944   1
  -3  10  12 2318.73 385.529   1
  -3  10  11 32.1763 122.579   1
  -3  10  10 162.967 129.119   1
  -3  10   9 1153.46 293.120   1
  -3  10   8 174.203 147.090   1
  -3  10   7 531.844 189.435   1
  -3  10   6 2492.32 398.755   1
  -3  10   5 1514.33 315.871   1
  -3  10   4 2342.29 408.925   1
  -3  10   3 5641.07 608.949   1
  -3  10   2-75.3633 155.648   1
  -3  10   1 1217.05 294.017   1
   3 -10  -1 1528.60 322.464   4
   3 -10   0 7769.78 699.616   4
  -3  10   0 7796.47 746.460   1
  -3  10  -1 689.564 254.710   1
   3 -10   1 1132.03 305.147   4
   3 -10   2 1588.93 321.028   4
   3 -10   3 2940.82 424.564   4
   3 -10   4 10.5102 129.682   4
   3 -10   5 8972.93 764.378   4
   3 -10   6 9712.48 803.750   4
   3 -10   7 4015.61 515.878   4
   3 -10   8 8498.90 755.607   4
   3 -10   9 1268.24 296.763   4
   3 -10  10 449.683 194.052   4
   3 -10  11 772.207 236.499   4
   3 -10  12 526.318 230.948   4
   3 -10  13 719.938 246.819   4
   3 -10  14 1441.04 352.435   4
   3 -10  15 184.122 166.469   4
   3 -10  16 955.004 282.695   4
  -3  10 -16 770.153 174.350   7
   3 -10  17-335.568 193.567   4
   3 -10  18 182.879 160.621   4
   3 -10  19 73.2870 170.086   4
  -3   9  17 937.736 245.464   5
  -3   9  16 23.1170 110.907   1
  -3   9  16 306.408 173.687   5
  -3   9  15 4145.60 491.751   1
  -3   9  14 235.460 138.379   1
  -3   9  13 610.249 196.942   1
  -3   9  12 369.102 168.035   1
  -3   9  11 135.795 145.515   1
  -3   9  10 1401.19 292.981   1
  -3   9   9 617.867 204.811   1
  -3   9   8 1089.68 257.947   1
  -3   9   7-7.24697 122.888   1
  -3   9   6 241.935 158.898   1
  -3   9   5 5357.70 555.771   1
  -3   9   4 2224.40 375.816   1
  -3   9   3 25634.4 1268.01   1
  -3   9   2 2396.42 381.974   1
   3  -9  -2 3121.26 439.118   4
   3  -9  -1 7787.95 666.747   4
  -3   9   1 8014.12 693.279   1
  -3   9   0 19973.3 1112.94   1
   3  -9   0 19805.7 1067.51   4
   3  -9   1 255.813 186.609   4
   3  -9   2 7724.28 657.269   4
   3  -9   3 6983.33 635.559   4
   3  -9   4-21.4145 153.904   4
   3  -9   5 13224.0 889.501   4
   3  -9   6 2085.60 360.193   4
   3  -9   7 4971.94 549.887   4
   3  -9   8 149.728 136.152   4
   3  -9   9 731.510 227.579   4
   3  -9  10-50.7226 125.033   4
   3  -9  11 1209.30 284.168   4
   3  -9  12 153.652 113.133   4
   3  -9  13 1181.48 285.159   4
   3  -9  14 1879.45 360.618   4
   3  -9  15 171.645 144.890   4
   3  -9  16 2279.24 394.951   4
   3  -9  17 268.510 235.918   4
   3  -9  18 1825.26 397.157   4
   3  -9  19 1776.73 396.353   4
   3  -9  20 3028.98 495.608   4
   3  -9  21 496.347 288.141   4
  -3   8  19 250.863 152.354   5
  -3   8  18 1273.31 281.421   5
  -3   8  18 1649.72 316.527   4
  -3   8  17 448.303 175.370   5
  -3   8  17 478.802 171.821   4
  -3   8  16 55.5692 114.921   1
  -3   8  16-171.267 128.709   5
  -3   8  15 333.222 155.599   1
  -3   8  15 240.930 135.930   5
  -3   8  14 176.972 127.179   5
  -3   8  14 176.570 124.852   1
  -3   8  13 538.558 155.747   5
  -3   8  13 574.506 194.806   1
  -3   8  12-33.0054 103.600   1
  -3   8  12 1.11852 87.6674   5
  -3   8  11 209.574 109.828   5
  -3   8  11-70.9490 120.399   1
  -3   8  10 961.615 191.403   5
  -3   8  10 1019.49 235.788   1
  -3   8   9 3057.86 307.347   5
  -3   8   9 2378.63 349.677   1
  -3   8   8 285.399 98.8509   5
  -3   8   8 584.032 205.206   1
  -3   8   7 2137.59 321.007   1
  -3   8   7 2480.24 249.944   5
  -3   8   6 6044.71 378.264   5
  -3   8   6 5151.29 496.115   1
  -3   8   5 3990.22 292.135   5
  -3   8   5 3689.12 427.545   1
  -3   8   4 8990.68 432.307   5
  -3   8   4 9821.85 711.920   1
  -3   8   3 44522.7 1065.01   5
   3  -8  -3 43829.4 1599.24   4
  -3   8   3 44955.4 1621.61   1
  -3   8   2 15188.1 516.688   5
   3  -8  -2 15905.1 911.443   4
  -3   8   2 15899.7 916.985   1
  -3   8   1 19177.2 1016.27   1
   3  -8  -1 19463.0 996.279   4
  -3   8   1 19233.6 557.068   5
   3  -8   0 712.099 189.262   4
   3  -8   1 3572.30 433.106   4
   3  -8   2 944.985 204.319   4
   3  -8   3-12.0091 163.200   4
   3  -8   4 6018.58 552.853   4
   3  -8   5-28.8106 116.105   4
   3  -8   6 708.852 204.892   4
   3  -8   7 2893.30 394.876   4
   3  -8   8 130.708 110.314   4
   3  -8   9-435.409 176.656   4
   3  -8  10 2341.41 366.796   4
   3  -8  11 1310.39 272.357   4
   3  -8  11 1113.60 172.830   3
   3  -8  12 133.829 96.4060   4
   3  -8  12 298.686 101.134   3
   3  -8  13 11070.5 566.537   3
   3  -8  13 9840.21 772.128   4
   3  -8  14 1416.62 311.298   4
   3  -8  15 33.9153 134.417   4
   3  -8  16 2959.47 446.452   4
   3  -8  17 2574.22 419.380   4
   3  -8  18-17.2427 110.283   4
   3  -8  19 748.256 240.401   4
   3  -8  20 315.446 186.642   4
   3  -8  21 911.865 287.772   4
   3  -8  22 345.387 198.719   4
   3  -8  23 219.217 228.113   4
  -3   7  20 143.699 132.423   5
  -3   7  20-149.948 130.935   4
  -3   7  19 770.990 225.790   5
  -3   7  19 1046.28 246.739   4
  -3   7  18 866.867 235.671   5
  -3   7  18 880.601 223.516   4
  -3   7  17-65.2173 95.9887   5
  -3   7  17 111.545 119.407   4
  -3   7  16 208.165 156.618   5
  -3   7  15-81.0993 123.195   1
  -3   7  15-67.8602 90.9994   5
  -3   7  14 198.772 130.171   1
  -3   7  14 424.009 157.351   5
  -3   7  13 74.3863 93.9667   5
  -3   7  13-173.615 122.692   1
  -3   7  12 5960.19 466.146   5
  -3   7  12 5450.24 485.735   1
  -3   7  11 2343.41 288.249   5
  -3   7  11 1805.19 284.327   1
  -3   7  10 7142.68 551.605   1
  -3   7  10 7750.74 496.908   5
  -3   7   9 12427.3 732.405   1
  -3   7   9 12510.9 623.539   5
  -3   7   8 333.898 120.894   5
  -3   7   8 518.654 175.383   1
  -3   7   7 12921.1 586.253   5
  -3   7   7 12041.6 709.939   1
  -3   7   6 9276.09 467.779   5
  -3   7   6 8494.99 590.828   1
  -3   7   5 3341.11 267.441   5
  -3   7   5 3139.88 373.443   1
   3  -7  -4 23033.8 1047.72   4
  -3   7   4 22960.3 725.679   5
  -3   7   4 23633.1 1045.47   1
  -3   7   3 17444.4 598.397   5
   3  -7  -3 18270.7 911.764   4
  -3   7   3 18040.1 907.907   1
  -3   7   2 38591.0 943.803   5
   3  -7  -2 38461.5 1379.79   4
  -3   7   2 39261.9 1403.20   1
  -3   7   1 7286.02 331.797   5
   3  -7  -1 6954.72 549.407   4
   3  -7   0 8583.36 613.081   4
  -3   7   0 9060.60 360.218   5
  -3   7  -1 2046.46 159.222   5
   3  -7   1 1959.54 292.309   4
  -3   7  -2 32768.0 748.110   5
   3  -7   2 30617.6 1235.92   4
   3  -7   3 127.669 121.792   4
  -3   7  -3 21.1903 36.5055   5
   3  -7   4 95.4990 94.1908   4
  -3   7  -4-43.3887 45.4706   5
   3  -7   5 981.340 216.882   4
   3  -7   6 4103.25 430.182   4
   3  -7   7 57.2482 86.1832   4
   3  -7   8 14395.0 827.612   4
   3  -7   9 5011.90 486.658   4
   3  -7  10 793.472 200.412   4
   3  -7  11 12445.2 801.293   4
   3  -7  12 14448.5 610.773   3
   3  -7  12 15110.1 910.073   4
   3  -7  13 7891.13 670.004   4
   3  -7  13 8811.57 472.405   3
   3  -7  14 2771.58 403.769   4
   3  -7  14 2310.55 248.737   3
   3  -7  15 253.908 95.4260   3
   3  -7  15 331.287 185.456   4
   3  -7  16 1854.61 229.225   3
   3  -7  16 1423.20 309.804   4
   3  -7  17 244.489 159.977   4
   3  -7  18 792.890 228.644   4
   3  -7  19 1178.63 275.117   4
   3  -7  20 5.80740 134.272   4
   3  -7  21 556.171 255.468   4
   3  -7  22 14.5512 120.496   4
   3  -7  23 143.216 199.107   4
   3  -7  24 64.2016 130.412   4
  -3   6  22 335.813 178.057   4
  -3   6  21 1046.09 276.989   5
  -3   6  21 423.202 170.698   4
  -3   6  20 432.501 179.263   4
  -3   6  20 175.247 141.611   5
  -3   6  19 200.432 130.556   5
  -3   6  19 59.5418 114.589   4
  -3   6  18 1106.36 246.921   5
  -3   6  18 937.093 215.576   4
  -3   6  17 358.911 158.901   5
  -3   6  17 375.668 149.163   4
  -3   6  16 3170.27 378.876   5
  -3   6  15 605.588 192.857   5
  -3   6  15 825.976 193.455   1
  -3   6  14-130.048 106.459   1
  -3   6  14 120.313 109.146   5
  -3   6  13 13970.0 731.985   5
  -3   6  13 13002.5 719.009   1
  -3   6  12 21119.9 932.117   1
  -3   6  12 23618.0 940.344   5
  -3   6  11 732.850 182.115   1
  -3   6  11 778.510 180.933   5
  -3   6  10 11827.9 664.588   1
  -3   6  10 10824.3 586.676   5
  -3   6   9 7582.34 529.250   1
  -3   6   9 6880.25 446.660   5
  -3   6   8 8742.26 557.141   1
  -3   6   8 9339.58 501.668   5
  -3   6   7 6938.02 414.354   5
  -3   6   7 6265.83 462.837   1
  -3   6   6 1400.17 242.400   1
  -3   6   6 1240.87 179.599   5
  -3   6   5 15724.9 755.119   1
  -3   6   5 14706.6 566.678   5
  -3   6   4 9464.31 431.313   5
   3  -6  -4 9355.51 589.341   4
  -3   6   4 9904.50 598.918   1
   3  -6  -3 8135.78 576.877   4
  -3   6   3 7485.70 543.593   1
  -3   6   2 1418.07 141.994   2
  -3   6   2 1567.42 163.094   5
   3  -6  -2 1635.78 250.911   4
  -3   6   1 4407.65 236.744   2
  -3   6   1 5016.99 284.302   5
   3  -6  -1 4910.87 423.725   4
  -3   6   0 562.434 74.0812   2
  -3   6   0 651.909 105.956   5
   3  -6   0 550.431 151.963   4
  -3   6  -1 46.3009 47.5807   5
   3  -6   1-152.337 120.441   4
   3  -6   2 21806.1 938.438   4
   3  -6   3 4755.83 425.544   4
   3  -6   4 35934.0 1262.18   4
   3  -6   5 9652.23 615.214   4
   3  -6   6 142.790 103.069   4
   3  -6   6 74.8938 31.0386   2
   3  -6   7 9029.06 607.163   4
   3  -6   8 7959.39 375.511   3
   3  -6   8 7939.99 574.973   4
   3  -6   9 4783.25 294.063   3
   3  -6   9 5138.23 477.770   4
   3  -6  10 12058.5 490.831   3
   3  -6  10 12392.4 744.673   4
   3  -6  11 4041.58 424.129   4
   3  -6  12 13126.4 806.558   4
   3  -6  13 96965.7 2566.40   4
   3  -6  14 14072.3 591.947   3
   3  -6  14 12390.8 812.550   4
   3  -6  15 4574.48 337.671   3
   3  -6  15 4177.35 477.941   4
   3  -6  16 1739.43 218.830   3
   3  -6  16 1312.51 270.444   4
   3  -6  17 3993.50 338.809   3
   3  -6  17 3638.11 461.238   4
   3  -6  18 3366.57 449.491   4
   3  -6  19-43.6553 148.662   4
   3  -6  20 215.655 179.662   4
   3  -6  21 445.262 195.537   4
   3  -6  22 97.1016 151.197   4
   3  -6  23 2213.09 420.969   4
   3  -6  24 569.411 269.958   4
  -3   5  23 278.611 162.237   4
  -3   5  22 469.607 186.878   4
  -3   5  22 374.850 180.413   5
  -3   5  21 383.187 155.837   4
  -3   5  21 259.446 136.202   5
  -3   5  20 398.441 174.969   5
  -3   5  20 123.473 94.2282   4
  -3   5  19 792.926 217.303   5
  -3   5  19 1072.09 239.328   4
  -3   5  18 1376.82 271.729   5
  -3   5  18 1141.72 225.774   4
  -3   5  17 912.531 209.352   4
  -3   5  17 1050.24 234.093   5
  -3   5  16-186.954 157.539   5
  -3   5  16 100.568 98.4864   4
  -3   5  15 2769.89 339.674   5
  -3   5  14 562.240 171.350   5
  -3   5  13 17928.6 821.258   5
  -3   5  13 17479.1 793.103   1
  -3   5  12 7585.09 499.418   1
  -3   5  12 8521.97 532.537   5
  -3   5  11 2626.52 285.098   1
  -3   5  11 2582.55 284.396   5
  -3   5  10 10734.9 585.990   1
  -3   5  10 11009.8 571.068   5
  -3   5   9 778.590 164.078   1
  -3   5   9 671.264 141.749   5
  -3   5   8 4214.97 329.622   5
  -3   5   8 4037.49 344.052   1
  -3   5   7 4202.29 318.187   5
  -3   5   7 3738.34 329.409   1
  -3   5   6 10444.9 548.188   1
  -3   5   6 9324.17 330.839   6
  -3   5   6 10831.3 499.287   5
  -3   5   5 131.564 39.7295   6
  -3   5   5 233.804 86.5597   5
   3  -5  -5 190.033 108.466   4
  -3   5   5 157.794 73.0503   1
   3  -5  -4 6079.53 437.579   4
  -3   5   4 5608.09 334.790   5
  -3   5   4 5810.60 416.500   1
  -3   5   3 1712.91 224.917   1
  -3   5   3 1463.10 168.127   5
   3  -5  -3 1767.46 239.797   4
  -3   5   2 18410.0 620.438   5
   3  -5  -2 18828.6 799.382   4
  -3   5   2 18202.3 580.844   2
   3  -5  -1 20312.6 832.110   4
  -3   5   1 18588.2 566.017   2
  -3   5   1 21065.1 646.967   5
  -3   5   0 2275.65 164.590   2
   3  -5   0 2254.73 263.857   4
   3  -5   1 5775.21 425.403   4
   3  -5   2 17553.1 426.174   2
   3  -5   2 17946.7 777.721   4
   3  -5   3 1071.86 191.871   4
   3  -5   3 725.537 76.0195   2
   3  -5   4 67304.0 1271.69   2
   3  -5   4 70594.2 1774.27   4
   3  -5   5 3374.75 333.297   4
   3  -5   6 3743.84 359.034   4
   3  -5   7 118941. 2098.39   3
   3  -5   7 119356. 2648.99   4
   3  -5   8 8999.58 357.588   3
   3  -5   8 7989.21 546.107   4
   3  -5   9 257.648 66.9117   3
   3  -5   9 330.528 122.159   4
   3  -5  10 25523.2 714.120   3
   3  -5  10 25351.5 1037.77   4
   3  -5  11 307.351 80.8968   3
   3  -5  11 387.317 143.918   4
   3  -5  12 13811.5 779.400   4
   3  -5  13 113.009 127.866   4
   3  -5  14 450.453 209.873   4
   3  -5  15 16222.1 911.333   4
   3  -5  16 1530.41 298.745   4
   3  -5  17 461.641 172.688   4
   3  -5  18 8.67959 118.285   4
   3  -5  19 2146.93 365.741   4
   3  -5  20-77.0436 120.559   4
   3  -5  21 524.706 202.863   4
   3  -5  22 470.173 193.462   4
   3  -5  23-110.821 148.663   4
   3  -5  24-34.9028 139.691   4
  -3   4  25 38.8890 112.508   4
  -3   4  24 2832.46 410.123   4
  -3   4  23 639.471 210.376   5
  -3   4  23 223.860 113.195   4
  -3   4  22-50.3027 124.520   5
  -3   4  22-92.9964 114.257   4
  -3   4  21 1050.53 255.380   5
  -3   4  21 1151.34 246.069   4
  -3   4  20-40.5133 100.383   4
  -3   4  20 76.2773 131.073   5
  -3   4  19 8246.50 630.101   5
   3  -4 -19 8133.08 579.947   6
  -3   4  19 8031.38 580.879   4
  -3   4  18 206.861 130.483   5
   3  -4 -18 230.910 131.881   6
  -3   4  18 329.923 141.058   4
  -3   4  17 3275.78 383.055   5
   3  -4 -17 3552.45 358.808   6
  -3   4  17 3187.71 338.097   4
  -3   4  16 675.509 187.674   5
   3  -4 -16 290.024 93.4883   6
  -3   4  16 357.597 131.759   4
   3  -4 -15 5687.61 424.348   6
  -3   4  15 5250.99 410.570   4
  -3   4  15 5574.11 463.679   5
  -3   4  14 7025.51 506.141   5
  -3   4  13 11341.3 621.855   5
  -3   4  12 7373.16 459.265   1
  -3   4  12 8125.93 508.416   5
  -3   4  11 847.075 155.673   1
  -3   4  11 481.793 142.659   5
  -3   4  10 5073.28 356.821   1
  -3   4  10 4404.17 358.530   5
  -3   4   9 2848.64 275.687   5
  -3   4   9 2888.30 265.202   1
  -3   4   8 8477.36 456.776   1
  -3   4   8 7740.01 446.602   5
  -3   4   7 15070.3 619.177   5
  -3   4   7 15321.6 619.759   1
  -3   4   6 11748.5 533.701   5
  -3   4   6 12558.0 546.530   1
  -3   4   5 138234. 2644.90   5
   3  -4  -5 144092. 2809.48   4
  -3   4   5 143901. 2707.91   1
  -3   4   4 21616.4 705.864   5
   3  -4  -4 21125.4 781.628   4
  -3   4   4 20413.0 740.750   1
  -3   4   3 17685.2 615.582   5
   3  -4  -3 16741.4 685.280   4
  -3   4   2 512.610 89.5391   2
  -3   4   2 450.666 89.7761   5
   3  -4  -2 526.669 121.178   4
   3  -4  -1-23.8166 53.4184   4
   3  -4  -1 33.5811 33.6395   2
  -3   4   1-9.12294 35.2552   2
   3  -4   0 4848.19 237.039   2
  -3   4   0 5173.86 276.194   2
   3  -4   0 5258.63 370.443   4
   3  -4   1 24243.5 840.377   4
   3  -4   1 23232.8 600.163   2
   3  -4   2 114.057 83.7506   4
   3  -4   2-1.77846 31.6942   2
   3  -4   3 1669.49 212.876   4
   3  -4   3 1617.02 148.479   2
   3  -4   4 161731. 3121.29   4
   3  -4   5 140.699 83.9994   4
   3  -4   5 95.0811 31.4289   3
   3  -4   6 11712.7 338.944   3
   3  -4   6 11162.3 583.049   4
   3  -4   7 11303.4 351.163   3
   3  -4   7 11429.6 595.060   4
   3  -4   8 36809.9 1179.01   4
   3  -4   8 36418.1 799.193   3
   3  -4   9 2463.17 279.961   4
   3  -4   9 2523.14 176.556   3
   3  -4  10 64.7545 40.3012   3
   3  -4  10 45.1282 77.5443   4
   3  -4  11 651.123 160.218   4
   3  -4  12 1407.03 237.138   4
   3  -4  13 6278.30 511.208   4
   3  -4  14 104.888 122.163   4
   3  -4  15 8892.21 639.079   4
   3  -4  16 10944.3 734.893   4
   3  -4  17 822.390 215.752   4
   3  -4  18 954.591 235.864   4
   3  -4  19 3020.50 409.480   4
   3  -4  20-38.1492 145.625   4
   3  -4  21 2553.03 400.555   4
   3  -4  22 32.3200 123.162   4
   3  -4  23 255.905 173.852   4
   3  -4  24 1414.34 336.042   4
   3  -4  25 1333.85 335.130   4
  -3   3  25 1618.60 320.127   4
  -3   3  24 547.796 195.425   4
  -3   3  23-47.9219 90.2595   4
  -3   3  23-74.0143 122.315   5
  -3   3  22 645.297 217.614   5
  -3   3  22 826.961 216.231   4
   3  -3 -22 703.242 199.181   6
  -3   3  21 213.324 129.809   4
   3  -3 -21-153.810 130.842   6
  -3   3  21 34.1649 130.809   5
  -3   3  20 1849.09 317.452   5
   3  -3 -20 1567.21 270.444   6
  -3   3  20 1747.59 268.750   4
  -3   3  19 5288.07 494.187   5
   3  -3 -19 4850.20 461.274   6
  -3   3  19 4309.75 413.718   4
   3  -3 -18 994.636 212.838   6
  -3   3  18 1308.47 256.014   5
  -3   3  18 1507.46 245.149   4
  -3   3  17 66.0143 117.137   5
  -3   3  17 12.5416 70.8802   4
   3  -3 -17 86.3770 114.067   6
   3  -3 -16 1417.19 240.372   6
  -3   3  16 2170.43 265.917   4
  -3   3  16 2055.86 296.022   5
   3  -3 -15 9317.74 565.133   6
  -3   3  15 9687.68 530.769   4
  -3   3  15 9830.61 605.524   5
  -3   3  14 6669.11 431.079   4
  -3   3  14 6638.91 486.461   5
   3  -3 -14 6679.86 459.928   6
  -3   3  13 2555.59 249.836   4
   3  -3 -13 2627.69 285.445   6
  -3   3  12 3912.15 351.812   5
   3  -3 -12 3405.73 307.261   6
  -3   3  11 40.2852 94.2718   5
  -3   3  10 1904.51 229.221   5
  -3   3  10 1831.79 190.989   1
  -3   3   9 36552.7 1070.95   5
  -3   3   9 36277.7 955.679   1
  -3   3   8 141.101 83.7653   5
  -3   3   8 116.706 52.4648   1
  -3   3   7 6783.21 397.036   5
  -3   3   7 6304.00 336.653   1
  -3   3   6 2389.27 198.092   1
  -3   3   6 2264.94 221.072   5
  -3   3   5 4658.14 310.855   5
  -3   3   5 4073.05 259.261   1
   3  -3  -5 4975.71 322.991   4
  -3   3   4 83.8629 63.7240   1
  -3   3   4-7.34058 50.4783   5
   3  -3  -4 56.0716 59.4493   4
   3  -3  -3 47912.8 1073.04   2
  -3   3   3 44653.6 1107.98   5
   3  -3  -3 45243.8 1138.91   4
   3  -3  -3 45251.0 914.495   3
   3  -3  -2 32865.3 829.046   2
   3  -3  -2 33901.7 944.341   4
   3  -3  -2 34322.9 696.877   3
   3  -3  -1 2759.81 196.299   2
  -3   3   1 2946.12 223.695   2
   3  -3  -1 2516.58 227.137   4
   3  -3   0 15976.1 518.666   2
  -3   3   0 16467.5 557.509   2
   3  -3   0 15880.9 601.369   4
   3  -3   1 13774.7 482.236   2
   3  -3   1 13453.5 549.746   4
   3  -3   2 11462.1 446.763   2
   3  -3   2 11587.7 511.245   4
   3  -3   3 59.7100 67.8855   4
   3  -3   4 33897.0 980.429   4
   3  -3   5 6271.90 385.424   4
   3  -3   6 13180.4 590.878   4
   3  -3   7 5851.67 391.351   4
  -3   3  -7 5346.21 222.725   3
   3  -3   8 885.936 154.436   4
  -3   3  -8 1028.54 103.469   3
   3  -3   9 522.478 128.520   4
   3  -3  10 3827.52 341.791   4
   3  -3  11 1793.56 242.890   4
   3  -3  12 2158.15 280.573   4
   3  -3  13-39.8594 71.0493   4
   3  -3  14-49.1569 102.854   4
   3  -3  15 182.221 115.964   4
   3  -3  16 455.870 162.482   4
   3  -3  17 1495.58 275.518   4
   3  -3  18 3829.32 441.938   4
   3  -3  19 1675.48 304.032   4
   3  -3  20 79.3142 138.754   4
   3  -3  21 938.272 247.717   4
   3  -3  22 300.499 184.432   4
   3  -3  23 1627.52 340.856   4
   3  -3  24 845.870 254.300   4
   3  -3  25 914.116 290.500   4
   3  -2 -25 745.319 233.107   6
   3  -2 -24 836.520 248.114   6
  -3   2  24 1081.75 278.377   4
  -3   2  24 1445.96 306.124   5
   3  -2 -23 45.6133 120.721   6
  -3   2  23 188.116 126.537   4
  -3   2  23 438.185 167.361   5
   3  -2 -22 1933.62 334.920   6
  -3   2  22 1532.47 272.396   4
  -3   2  22 1975.39 338.946   5
  -3   2  21 3664.28 399.668   4
   3  -2 -21 3792.39 450.421   6
  -3   2  21 4305.89 464.276   5
  -3   2  20 748.892 225.913   5
   3  -2 -20 209.263 143.577   6
  -3   2  20 505.868 166.610   4
  -3   2  19 5036.06 427.808   4
   3  -2 -19 5257.98 489.033   6
  -3   2  19 5772.94 518.933   5
  -3   2  18 3168.72 324.845   4
  -3   2  18 2941.46 362.210   5
   3  -2 -18 2520.48 329.389   6
  -3   2  17 108.267 93.6527   4
  -3   2  17 10.5172 89.3787   5
   3  -2 -17-2.51631 91.8166   6
  -3   2  16 137.619 106.208   5
  -3   2  16 130.652 84.1909   4
   3  -2 -16 102.727 75.5847   6
   3  -2 -15 13365.2 704.574   6
  -3   2  15 13741.7 608.570   4
  -3   2  15 14625.7 727.717   5
  -3   2  14 10938.0 510.999   4
  -3   2  14 11778.2 632.529   5
   3  -2 -14 11005.4 610.947   6
  -3   2  13 224.585 81.0568   4
   3  -2 -13 253.548 97.8507   6
  -3   2  13 225.670 115.415   5
   3  -2 -12 474.937 120.774   6
  -3   2  12 688.421 187.369   5
  -3   2  12 473.105 97.7537   4
   3  -2 -11 996.889 165.790   6
  -3   2  11 807.358 120.106   4
  -3   2  11 920.862 169.883   5
  -3   2  10-9.95107 85.3853   5
   3  -2 -10 28.2220 75.5696   6
  -3   2   9 250.313 96.5040   5
  -3   2   8 13356.6 580.329   5
  -3   2   7 43816.6 904.362   1
  -3   2   7 41979.8 1121.86   5
   3  -2  -7 39606.8 963.673   1
  -3   2   6 427.758 118.152   5
  -3   2   6 290.386 55.8624   1
   3  -2  -6 256.470 62.2556   1
  -3   2   5 555.146 86.0046   3
  -3   2   5 390.313 96.1145   5
  -3   2   5 497.437 69.6687   1
   3  -2  -4 9427.08 425.182   2
   3  -2  -4 9334.83 377.284   4
  -3   2   4 9457.86 324.291   1
  -3   2   4 9127.81 396.823   4
  -3   2   4 9129.93 328.697   3
   3  -2  -3 29659.9 828.621   2
   3  -2  -3 31323.5 795.220   4
   3  -2  -3 30865.0 693.305   3
  -3   2   3 33223.9 828.552   4
  -3   2   3 31465.8 678.722   3
   3  -2  -2 2734.61 215.643   2
   3  -2  -2 3072.48 158.145   3
   3  -2  -2 3000.12 209.517   4
  -3   2   2 2904.31 144.334   3
  -3   2   2 3099.54 215.688   4
   3  -2  -1 60252.2 1320.28   2
  -3   2   1 61874.8 1043.01   3
   3  -2  -1 58954.8 1071.12   3
   3  -2  -1 59438.6 1266.23   4
  -3   2   0 12923.1 468.873   4
   3  -2   0 11755.8 481.139   2
  -3   2   0 12662.6 277.020   3
   3  -2   0 12599.7 462.380   4
   3  -2   1 1207.70 150.162   2
   3  -2   1 1179.87 142.811   4
   3  -2   2 6659.83 337.378   4
   3  -2   2 6245.65 353.773   2
   3  -2   3 647.719 106.562   4
   3  -2   4 17512.3 605.908   4
   3  -2   5 9597.59 443.540   4
  -3   2  -5 9325.57 257.061   3
   3  -2   6 10360.7 482.033   4
  -3   2  -6 10729.6 310.991   3
   3  -2   7 43329.9 1148.66   4
  -3   2  -7 43280.4 871.489   3
   3  -2   8 86684.6 1896.55   4
   3  -2   9 3199.55 297.806   4
   3  -2  10 8556.41 504.238   4
   3  -2  11 550.926 136.382   4
   3  -2  12 3272.61 326.331   4
   3  -2  13 436.483 134.508   4
   3  -2  14 2170.86 289.242   4
   3  -2  15 1366.52 235.857   4
   3  -2  16 162.185 97.3303   4
   3  -2  17 4281.55 439.522   4
   3  -2  18 1150.09 245.770   4
   3  -2  19 2887.14 389.240   4
   3  -2  20 1128.55 253.140   4
   3  -2  21 486.284 204.804   4
   3  -2  22 280.449 176.230   4
   3  -2  23-239.426 173.995   4
   3  -2  24 264.030 166.749   4
   3  -1 -26-56.2338 143.570   6
   3  -1 -25 362.827 193.530   6
  -3   1  25 405.586 173.481   5
   3  -1 -24 2550.00 421.853   6
  -3   1  24 3114.14 428.421   5
   3  -1 -23 431.508 209.264   6
  -3   1  23 552.969 191.960   5
  -3   1  22 3794.39 443.912   5
  -3   1  22 2815.71 351.459   4
   3  -1 -22 3207.65 444.436   6
   3  -1 -21-65.3016 106.230   6
  -3   1  21 43.5618 79.0709   4
  -3   1  21 133.996 136.033   5
  -3   1  20 4948.94 422.031   4
   3  -1 -20 4483.25 479.005   6
  -3   1  20 5089.98 488.244   5
  -3   1  19 1084.91 239.241   5
   3  -1 -19 1062.04 237.874   6
  -3   1  19 1234.96 210.304   4
   3  -1 -18 157.509 111.631   6
  -3   1  18 213.569 101.286   4
  -3   1  18 469.844 173.068   5
   3  -1 -17 1006.23 211.256   6
  -3   1  17 1026.97 170.703   4
  -3   1  16 1086.80 164.358   4
  -3   1  16 1044.27 211.498   5
   3  -1 -16 989.263 200.709   6
   3  -1 -15 2172.83 293.732   6
  -3   1  15 2393.17 291.139   5
  -3   1  15 1973.21 208.595   4
   3  -1 -14 8606.71 545.861   6
  -3   1  14 8924.95 537.769   5
  -3   1  14 8118.19 412.503   4
   3  -1 -13 33.2229 80.6615   6
  -3   1  13 91.5585 83.8071   5
  -3   1  13 17.7168 44.4715   4
  -3   1  12 2242.50 259.431   5
  -3   1  12 2315.31 195.638   4
   3  -1 -12 2365.82 277.936   6
  -3   1  11 32930.1 1027.77   5
   3  -1 -11 32649.0 1048.01   6
  -3   1  11 30812.9 794.497   4
  -3   1  10 4282.97 333.645   5
   3  -1 -10 4568.02 352.488   6
  -3   1  10 4047.72 229.379   4
   3  -1  -9 92.6593 62.4672   6
   3  -1  -9 161.503 44.4512   1
  -3   1   9 191.982 84.1885   5
  -3   1   9 212.999 53.2609   4
  -3   1   8 41650.6 859.597   4
  -3   1   8 44544.7 1155.07   5
   3  -1  -8 40506.2 870.596   1
  -3   1   7 27580.3 840.366   5
   3  -1  -7 25098.2 585.619   1
  -3   1   7 25852.8 670.801   4
   3  -1  -6 7830.98 419.120   2
  -3   1   6 7055.34 297.324   4
  -3   1   6 7971.04 417.505   5
   3  -1  -6 7181.03 243.943   1
   3  -1  -5 6730.10 375.983   2
  -3   1   5 6712.08 279.233   4
  -3   1   5 6333.71 361.643   5
  -3   1   5 6520.35 306.093   3
  -3   1   4 79251.7 1426.00   4
   3  -1  -4 76461.3 1652.21   2
   3  -1  -4 81156.0 1391.40   4
  -3   1   4 76905.6 1480.68   3
   3  -1  -3 26256.7 795.989   2
  -3   1   3 26957.8 647.945   3
   3  -1  -3 26430.1 600.650   4
  -3   1   3 26995.6 617.742   4
  -3   1   2 15869.3 438.200   4
   3  -1  -2 16352.1 593.608   2
  -3   1   2 16364.6 447.504   3
   3  -1  -2 15620.8 433.141   4
  -3   1   1 8664.07 297.534   4
   3  -1  -1 8501.37 421.768   2
   3  -1  -1 8520.32 311.500   4
   3  -1   0 142271. 2408.78   4
  -3   1   0 143698. 2360.47   4
   3  -1   0 146083. 2672.56   2
   3  -1   1 29396.3 708.303   4
  -3   1  -1 28991.6 672.317   4
   3  -1   1 28262.3 853.957   2
   3  -1   2 20957.7 582.947   4
   3  -1   3 7930.27 343.765   4
   3  -1   4 1896.65 171.384   4
   3  -1   5 37122.4 950.512   4
   3  -1   6 3512.65 258.455   4
   3  -1   7 12929.8 538.684   4
  -3   1  -7 12201.5 327.604   7
   3  -1   8 13976.3 593.342   4
  -3   1  -8 13318.0 330.838   7
   3  -1   9 1762.15 213.763   4
  -3   1  -9 1293.17 80.3669   7
  -3   1 -10 725.210 52.0909   7
   3  -1  10 1111.43 184.819   4
   3  -1  11-84.7206 99.8779   4
   3  -1  12 98.6875 86.6090   4
   3  -1  13 5668.61 441.159   4
   3  -1  14 345.716 148.261   4
   3  -1  15 1002.33 206.150   4
   3  -1  16 405.637 148.609   4
   3  -1  17-182.457 126.903   4
   3  -1  18 662.796 187.294   4
   3  -1  19 74.6822 113.629   4
   3  -1  20 226.159 116.537   4
   3  -1  21 348.398 162.544   4
   3  -1  22-376.082 183.122   4
   3  -1  23 147.852 138.772   4
   3  -1  24 258.212 177.726   4
  -3   0  25 987.571 264.189   5
   3   0 -25 984.511 283.627   6
   3   0 -24 1925.77 368.643   6
  -3   0  24 1545.10 298.830   5
   3   0 -23 2636.95 429.448   6
  -3   0  23 2323.55 359.035   5
   3   0 -22 122.421 133.876   6
  -3   0  22 327.234 180.375   5
   3   0 -21-100.790 126.944   6
  -3   0  21-149.328 124.793   5
  -3   0  20 771.819 157.267   4
  -3   0  20 878.600 216.086   5
   3   0 -20 800.509 228.797   6
   3   0 -19 273.610 170.880   6
  -3   0  19 282.098 116.771   4
  -3   0  19 502.898 188.847   5
  -3   0  18 228.260 91.3074   4
   3   0 -18 346.710 168.940   6
  -3   0  18 633.846 183.403   5
  -3   0  17 2595.82 259.002   4
   3   0 -17 2639.61 349.697   6
  -3   0  17 2473.01 308.307   5
  -3   0  16 1732.82 248.878   3
   3   0 -16 1504.05 280.074   6
  -3   0  16 1759.88 274.842   5
  -3   0  16 1540.18 191.549   4
  -3   0  15 8940.58 551.890   5
   3   0 -15 8482.28 578.414   6
  -3   0  15 9129.03 552.738   3
  -3   0  15 8272.14 425.153   4
  -3   0  14 1477.91 220.506   3
   3   0 -14 1275.03 244.521   6
  -3   0  14 981.539 138.436   4
  -3   0  14 1069.46 202.588   5
  -3   0  13 4638.18 279.407   4
  -3   0  13 4898.92 376.238   5
   3   0 -13 4459.30 392.740   6
  -3   0  13 4654.97 367.963   3
  -3   0  12 11214.6 421.429   4
   3   0 -12 11394.5 613.058   6
  -3   0  12 11342.8 567.364   5
  -3   0  11 12012.7 411.751   4
  -3   0  11 12831.4 587.722   5
   3   0 -11 12485.2 629.728   6
   3   0 -10 9287.25 531.770   6
  -3   0  10 8932.68 322.446   4
  -3   0  10 9570.42 494.751   5
  -3   0   9 1711.11 120.712   4
   3   0  -9 1514.14 210.182   6
  -3   0   9 1481.27 193.890   5
   3   0  -8 55340.2 1403.55   6
  -3   0   8 53862.6 984.217   4
  -3   0   8 58405.2 1362.56   5
   3   0  -7 43.5215 59.1245   2
  -3   0   7 82.4910 24.8492   4
  -3   0   7-43.8234 76.4783   5
  -3   0   7 84.6001 34.1966   4
   3   0  -6 28929.5 871.811   2
  -3   0   6 26423.1 472.261   4
  -3   0   6 29642.0 849.935   5
   3   0  -5 97357.7 2011.52   2
   3   0  -4 3506.37 275.667   2
   3   0  -3 10041.6 486.341   2
   3   0  -2 96466.3 1940.53   2
  -3   0   2 95336.2 1439.11   4
   3   0  -2 91252.7 1491.30   4
   3   0  -1-19.8446 73.8271   2
  -3   0   1 24.2530 20.9040   1
  -3   0   1 96.7563 32.4150   4
   3   0   0 19805.2 477.710   4
   3   0   0 20232.9 721.858   2
  -3   0   0 19775.4 463.948   1
  -3   0   0 19445.0 446.964   4
   3   0   1 138581. 2298.58   4
  -3   0  -1 137260. 2248.72   4
  -3   0  -1 138572. 2258.91   1
   3   0   1 137518. 2649.94   2
   3   0   2 49543.9 1024.63   4
   3   0   3 20492.8 589.759   4
   3   0   4 15905.7 528.284   4
  -3   0  -5 13701.2 379.981   7
   3   0   5 13943.4 517.522   4
  -3   0  -6 4679.65 197.414   7
   3   0   6 5515.47 323.428   4
  -3   0  -7 4361.22 181.184   7
   3   0   7 4301.56 302.012   4
  -3   0  -8 2486.36 128.824   7
   3   0   8 2892.46 257.048   4
   3   0   9 7445.10 446.984   4
   3   0  10 28.8133 58.9546   4
   3   0  11 4402.28 362.450   4
   3   0  12 3459.18 340.729   4
   3   0  13 8883.35 573.952   4
   3   0  14 1079.55 215.119   4
   3   0  15 217.919 125.141   4
   3   0  16 1594.77 279.534   4
   3   0  17 439.310 178.143   4
   3   0  18 326.701 153.762   4
   3   0  19 817.122 215.748   4
   3   0  20 1443.09 288.430   4
   3   0  21-40.3717 99.1416   4
   3   0  22-17.5083 127.591   4
   3   0  23 1143.66 294.976   4
  -3  -1  25 1115.61 269.881   5
   3   1 -25 659.572 249.779   6
  -3  -1  24 192.698 136.881   5
   3   1 -24 371.308 207.878   6
   3   1 -23 25.5702 151.904   6
  -3  -1  23 218.091 141.277   5
  -3  -1  22-0.47628 103.103   5
   3   1 -22 206.792 143.171   6
   3   1 -21 278.847 173.031   6
  -3  -1  21 151.772 118.827   5
  -3  -1  20 323.349 135.833   3
   3   1 -20 334.534 157.725   6
  -3  -1  20 441.390 165.474   5
  -3  -1  19 516.787 171.074   3
  -3  -1  19 214.970 125.837   5
   3   1 -19 391.348 180.203   6
  -3  -1  18 4164.92 338.814   4
   3   1 -18 3857.56 452.628   6
  -3  -1  18 4680.01 422.667   5
  -3  -1  18 3915.94 396.343   3
  -3  -1  17 1286.92 229.804   3
   3   1 -17 1079.73 227.920   6
  -3  -1  17 1009.08 164.420   4
  -3  -1  17 1134.81 219.793   5
  -3  -1  16 5370.32 344.955   4
   3   1 -16 5696.93 498.748   6
  -3  -1  16 6062.13 461.359   3
  -3  -1  16 6149.44 459.021   5
  -3  -1  15 104.836 90.2687   3
   3   1 -15 189.626 127.639   6
  -3  -1  15 158.958 64.6093   4
  -3  -1  15 175.397 108.842   5
  -3  -1  14 4241.30 278.302   4
   3   1 -14 3930.09 400.979   6
  -3  -1  14 4210.61 360.816   5
  -3  -1  14 4110.06 368.006   3
  -3  -1  13 245.695 100.266   3
   3   1 -13 187.088 105.957   6
  -3  -1  13 298.445 76.6816   4
  -3  -1  13 176.352 77.0861   5
  -3  -1  12 2970.41 204.440   4
   3   1 -12 3256.60 336.404   6
  -3  -1  12 3331.97 303.071   5
  -3  -1  11 6147.04 280.590   4
   3   1 -11 6145.15 455.209   6
  -3  -1  11 6499.27 405.745   5
  -3  -1  10 19581.2 525.731   4
   3   1 -10 22104.0 860.568   6
  -3  -1  10 21334.3 760.943   5
  -3  -1   9 12775.9 374.321   4
   3   1  -9 14207.0 659.120   6
   3   1  -9 14231.7 522.903   7
  -3  -1   9 14456.5 597.226   5
   3   1  -8 89108.3 1980.05   6
   3   1  -8 90543.9 1729.97   7
  -3  -1   8 90279.8 1854.51   5
   3   1  -7 115.739 84.8530   2
   3   1  -7 239.014 77.1523   7
  -3  -1   7 138.237 63.3060   5
   3   1  -6 3028.54 271.780   2
  -3  -1   6 2857.77 240.386   5
   3   1  -5 55408.5 1374.72   2
   3   1  -4 28222.3 909.025   2
   3   1  -4 29583.7 622.764   1
   3   1  -3 16975.9 673.753   2
   3   1  -3 17018.6 419.127   1
   3   1  -2 7184.56 427.626   2
   3   1  -2 7412.58 256.899   1
   3   1  -2 7466.81 209.343   4
   3   1  -1 5694.51 202.473   4
   3   1  -1 5118.67 362.474   2
   3   1  -1 5606.57 226.806   1
  -3  -1   1 5319.21 267.918   1
   3   1   0 33483.4 714.777   4
   3   1   0 35341.1 751.156   1
   3   1   0 31712.4 1005.02   2
  -3  -1   0 35587.7 838.934   1
   3   1   1 1778.32 156.212   7
   3   1   1 1543.17 127.677   4
   3   1   1 1526.06 205.966   2
   3   1   2 4626.50 245.459   7
   3   1   2 4690.96 239.672   4
   3   1   3 6511.62 289.888   7
   3   1   3 5955.30 293.244   4
   3   1   4 69484.1 1325.68   7
   3   1   4 67130.7 1411.48   4
   3   1   5 1019.66 110.203   7
   3   1   5 855.313 127.330   4
   3   1   6 12624.6 521.325   4
   3   1   6 12724.8 406.537   7
   3   1   7 3532.32 279.164   4
   3   1   7 2989.25 177.969   7
   3   1   8 1979.98 221.631   4
   3   1   9 3463.72 303.967   4
   3   1  10 2807.35 282.701   4
   3   1  11 5079.24 399.042   4
   3   1  12 825.399 182.119   4
   3   1  13 1631.56 251.872   4
   3   1  14 4369.30 419.462   4
   3   1  15-111.665 101.391   4
   3   1  16 334.962 146.217   4
   3   1  17-154.454 135.542   4
   3   1  18 116.600 125.830   4
   3   1  19 5279.00 533.163   4
   3   1  20-145.843 169.292   4
   3   1  21 672.523 210.418   4
   3   1  22 124.770 139.498   4
  -3  -2  26-52.8403 127.338   5
  -3  -2  25 359.316 163.938   5
  -3  -2  24 3.63824 83.8785   5
   3   2 -24 264.016 156.109   6
   3   2 -23 125.779 144.296   6
  -3  -2  23 469.708 165.869   5
  -3  -2  22 324.874 178.631   3
   3   2 -22 389.957 182.064   6
  -3  -2  22 790.871 209.182   5
  -3  -2  21 93.1376 110.998   3
   3   2 -21 21.0933 110.115   6
  -3  -2  21 96.4291 114.817   5
  -3  -2  20 104.447 126.298   3
   3   2 -20 116.194 131.569   6
  -3  -2  20 68.2079 112.386   5
  -3  -2  19 1278.80 244.649   3
   3   2 -19 1607.72 311.048   6
  -3  -2  19 1092.43 224.434   5
  -3  -2  18 536.968 174.569   3
   3   2 -18 348.775 157.815   6
  -3  -2  18 346.403 148.691   5
  -3  -2  17 988.622 201.572   3
   3   2 -17 1251.29 270.042   6
  -3  -2  17 1648.27 242.343   5
  -3  -2  16 7547.40 539.187   3
   3   2 -16 8471.74 634.686   6
  -3  -2  16 9251.46 552.426   5
  -3  -2  15 1409.78 226.786   3
   3   2 -15 1394.24 254.120   6
  -3  -2  15 973.181 144.133   4
  -3  -2  15 1332.05 211.451   5
  -3  -2  14 1593.15 175.820   4
  -3  -2  14 1667.50 235.590   3
   3   2 -14 1443.56 263.393   6
  -3  -2  14 1714.39 224.405   5
  -3  -2  13-89.4410 84.7307   3
   3   2 -13-37.1787 105.439   6
  -3  -2  13 41.9884 54.8164   4
  -3  -2  13-66.9994 85.2779   5
   3   2 -13 78.5463 62.3702   7
   3   2 -12 1188.98 162.524   7
   3   2 -12 1471.27 236.293   6
  -3  -2  12 1441.42 151.843   4
  -3  -2  12 1371.18 195.311   5
  -3  -2  12 1610.01 231.381   3
   3   2 -11 5088.62 329.247   7
   3   2 -11 4526.36 396.955   6
  -3  -2  11 4892.82 343.589   5
  -3  -2  11 5032.86 392.650   3
  -3  -2  11 4928.58 264.985   4
   3   2 -10 416.224 89.3168   7
  -3  -2  10 266.509 59.4800   4
  -3  -2  10 261.439 78.2063   5
   3   2 -10 198.621 39.5651   4
   3   2 -10 104.156 81.6504   6
   3   2  -9 3965.41 355.711   6
   3   2  -9 3538.15 146.604   4
  -3  -2   9 3951.46 298.700   5
   3   2  -9 4076.09 283.689   7
  -3  -2   9 3473.32 186.278   4
   3   2  -8 11664.1 564.460   2
   3   2  -8 11367.8 478.147   7
   3   2  -8 9303.36 237.753   4
  -3  -2   8 11008.4 492.997   5
  -3  -2   8 8407.52 277.316   4
   3   2  -7 6690.11 415.542   2
   3   2  -7 5650.63 152.123   4
  -3  -2   7 6080.68 352.508   5
   3   2  -7 6193.04 342.446   7
   3   2  -6 11077.6 553.208   2
   3   2  -5 4789.06 173.236   4
   3   2  -5 5940.46 392.214   2
   3   2  -5 5727.77 286.863   1
   3   2  -4 315.824 54.3535   4
   3   2  -4 408.382 80.4322   1
   3   2  -4 342.177 110.093   2
   3   2  -3 1406.91 137.437   1
   3   2  -3 1336.46 120.091   4
   3   2  -3 1275.07 188.488   2
   3   2  -2 468.690 62.5972   4
   3   2  -2 561.846 86.4972   4
   3   2  -2 468.609 118.520   2
   3   2  -2 399.136 77.2800   1
   3   2  -1 935.810 166.577   2
   3   2  -1 1248.13 108.445   4
   3   2  -1 1539.66 149.257   1
   3   2  -1 1427.31 143.194   4
   3   2   0 5630.25 401.212   2
   3   2   0 6191.85 263.099   4
   3   2   0 5744.25 302.644   1
   3   2   1 5940.01 277.757   4
   3   2   1 5654.91 306.535   1
   3   2   1 5708.49 407.668   2
   3   2   1 6005.20 314.072   7
   3   2   2 84769.6 1675.08   1
   3   2   2 83200.2 1615.75   4
   3   2   2 85088.1 1651.00   7
   3   2   3 237.272 99.3390   1
   3   2   3 107.053 72.8206   4
   3   2   3 316.988 102.136   7
   3   2   4 39209.7 1012.83   1
   3   2   4 39204.7 989.191   4
   3   2   4 38508.5 925.368   7
   3   2   5 32309.1 803.951   7
   3   2   5 30498.7 885.247   4
   3   2   6 543.473 112.313   4
   3   2   6 649.969 96.8829   7
   3   2   7 13943.2 471.087   7
   3   2   7 14457.2 608.599   4
   3   2   8 12980.6 598.744   4
   3   2   8 13972.8 459.100   7
   3   2   9 81.5799 40.9930   7
   3   2   9-44.1183 80.1231   4
   3   2  10 2111.56 159.137   7
   3   2  10 2345.13 267.988   4
   3   2  11 169.172 126.884   4
   3   2  11 57.5846 41.1619   7
   3   2  12 12544.7 679.090   4
   3   2  13 3710.34 383.991   4
   3   2  14 6210.73 504.276   4
   3   2  15 224.222 135.311   4
   3   2  16 1682.41 282.424   4
   3   2  17 159.759 141.106   4
   3   2  18 1324.12 273.238   4
   3   2  19 2270.27 369.181   4
   3   2  20 1170.78 275.974   4
   3   2  21 188.705 146.264   4
   3   2  22 25.0359 130.822   4
  -3  -3  25 158.930 133.072   5
  -3  -3  24-70.2357 91.7698   5
  -3  -3  23 93.9831 134.331   3
   3   3 -23 9.81462 108.319   6
  -3  -3  23-47.2412 106.533   5
  -3  -3  22 249.411 167.023   3
   3   3 -22-5.22907 141.140   6
  -3  -3  22 190.143 115.772   5
  -3  -3  21 362.026 161.962   3
   3   3 -21 571.854 210.511   6
  -3  -3  21 802.563 194.750   5
  -3  -3  20-100.361 110.240   3
  -3  -3  20 22.3514 76.4217   5
   3   3 -20 86.3688 102.704   6
  -3  -3  19 1637.04 268.530   3
   3   3 -19 2044.44 353.325   6
  -3  -3  19 1766.21 261.541   5
  -3  -3  18 3229.36 343.303   5
  -3  -3  18 3464.70 391.996   3
   3   3 -18 3101.05 425.190   6
  -3  -3  17 697.603 185.841   3
   3   3 -17 906.299 248.144   6
  -3  -3  17 923.591 188.933   5
  -3  -3  16 2255.95 309.249   3
   3   3 -16 2267.48 249.097   7
  -3  -3  16 2542.65 283.392   5
   3   3 -16 2424.91 356.325   6
  -3  -3  15 107.019 114.723   3
   3   3 -15 52.9605 117.466   6
  -3  -3  15 212.686 111.572   5
   3   3 -15 10.0084 59.9624   7
   3   3 -14 4157.87 330.778   7
  -3  -3  14 4811.92 361.694   5
   3   3 -14 4358.39 444.794   6
  -3  -3  14 4434.82 411.731   3
   3   3 -13 2986.36 275.592   7
   3   3 -13 3235.24 372.333   6
  -3  -3  13 2978.15 276.317   5
  -3  -3  13 3007.07 328.985   3
  -3  -3  12 2469.63 251.423   5
   3   3 -12 2040.02 297.457   6
   3   3 -12 1916.01 218.436   7
  -3  -3  12 2031.82 188.679   4
  -3  -3  12 1947.29 270.955   3
   3   3 -11 5032.50 351.202   7
   3   3 -11 5236.71 449.014   6
  -3  -3  11 5911.42 371.490   5
  -3  -3  11 5096.72 424.032   3
  -3  -3  11 5201.00 289.394   4
  -3  -3  10 416.227 77.3247   4
   3   3 -10 298.598 92.7051   7
   3   3 -10 527.331 148.591   6
  -3  -3  10 576.490 118.553   5
  -3  -3  10 370.363 129.014   3
   3   3  -9 2518.15 242.672   7
   3   3  -9 2302.19 278.821   6
  -3  -3   9 2464.73 172.457   4
  -3  -3   9 2810.78 244.560   5
   3   3  -8 1629.08 111.002   4
   3   3  -8 2005.58 212.535   7
  -3  -3   8 1428.07 120.570   4
   3   3  -8 1611.43 219.228   2
  -3  -3   8 1533.61 182.144   5
   3   3  -7 6106.01 236.449   4
   3   3  -7 6494.26 426.692   2
  -3  -3   7 5782.93 344.838   5
   3   3  -7 6664.98 388.998   7
   3   3  -6 386.353 119.838   2
   3   3  -6 384.224 65.3818   4
   3   3  -5 3554.61 314.303   2
   3   3  -5 2932.76 191.811   4
   3   3  -5 2944.79 245.922   1
   3   3  -4 4241.54 351.478   2
   3   3  -4 4125.71 249.267   4
   3   3  -4 4695.70 308.006   1
   3   3  -3 9903.16 450.573   1
   3   3  -3 9447.03 537.275   2
   3   3  -3 9056.46 400.426   4
   3   3  -2 509.314 112.219   1
   3   3  -2 470.431 143.665   2
   3   3  -1 4059.05 356.257   2
   3   3  -1 4045.19 284.989   1
   3   3   0 7165.45 489.106   2
   3   3   0 7745.62 411.976   1
   3   3   1 20831.9 866.680   2
   3   3   1 23692.2 768.110   1
   3   3   1 22286.1 653.487   4
   3   3   2 5481.46 348.558   1
   3   3   2 5751.43 315.526   4
   3   3   3 5388.34 349.387   1
   3   3   3 5161.76 311.417   4
   3   3   4 10381.8 503.762   1
   3   3   4 10422.0 476.191   4
   3   3   5 11204.4 543.705   1
   3   3   5 12188.9 533.916   4
   3   3   6 2501.79 269.974   1
   3   3   6 2299.71 242.321   4
   3   3   7 2948.60 278.631   4
   3   3   8 3195.08 301.791   4
   3   3   9 1961.31 258.758   4
   3   3  10 291.623 122.796   4
   3   3  10 474.693 89.8039   7
   3   3  11 8703.01 568.039   4
   3   3  11 9900.35 400.626   7
   3   3  12 578.690 168.588   4
   3   3  13 10144.9 643.711   4
   3   3  14 2092.61 323.869   4
   3   3  15 7598.95 591.177   4
   3   3  16 1296.07 264.862   4
   3   3  17 18.3493 129.181   4
   3   3  18 865.155 243.142   4
   3   3  19 737.888 226.316   4
   3   3  20 1438.40 306.249   4
  -3  -4  23-120.211 148.693   3
  -3  -4  22 2354.16 356.973   3
   3   4 -22 2298.65 419.199   6
  -3  -4  21-79.7252 114.296   3
   3   4 -21-18.0753 123.649   6
  -3  -4  20 685.641 198.657   3
   3   4 -20 559.730 217.808   6
  -3  -4  19 1258.77 271.290   3
   3   4 -19 1728.53 339.610   6
  -3  -4  18 1063.82 194.103   5
  -3  -4  18 1065.08 241.543   3
   3   4 -18 769.986 231.124   6
   3   4 -18 808.107 174.374   7
  -3  -4  17 254.389 138.526   3
   3   4 -17 187.891 81.3527   7
   3   4 -17 170.648 114.764   6
  -3  -4  17 383.620 126.960   5
   3   4 -16 910.307 215.055   6
  -3  -4  16 1461.62 217.198   5
   3   4 -16 1555.58 215.926   7
  -3  -4  16 1237.93 234.860   3
   3   4 -15 827.004 215.847   6
   3   4 -15 809.099 166.324   7
  -3  -4  15 1113.24 180.568   5
  -3  -4  15 704.445 186.581   3
   3   4 -14 1369.74 264.815   6
  -3  -4  14 1548.25 200.608   5
   3   4 -14 1444.87 211.667   7
  -3  -4  14 1563.40 263.145   3
   3   4 -13 607.659 146.207   7
   3   4 -13 691.340 211.418   6
  -3  -4  13 620.366 128.719   5
  -3  -4  13 659.025 186.437   3
   3   4 -12 990.600 178.669   7
   3   4 -12 1334.69 249.967   6
  -3  -4  12 1196.28 170.136   5
  -3  -4  12 1324.70 252.901   3
  -3  -4  11 5185.40 339.564   5
   3   4 -11 4765.22 373.490   7
   3   4 -11 3771.12 396.203   6
  -3  -4  11 5015.47 447.565   3
   3   4 -10 4828.17 367.103   7
  -3  -4  10 5292.41 330.911   5
  -3  -4  10 5168.92 292.247   4
  -3  -4   9 1211.36 163.454   5
   3   4  -9 1087.93 177.928   7
  -3  -4   9 1233.99 135.972   4
   3   4  -8 140.681 83.1571   7
  -3  -4   8 314.960 83.6415   5
   3   4  -8 222.664 113.763   2
  -3  -4   7 3312.92 252.643   5
   3   4  -7 3140.91 302.125   2
   3   4  -7 3624.85 307.827   7
   3   4  -6 3270.64 314.200   2
  -3  -4   6 2716.28 229.905   5
   3   4  -6 3436.37 298.502   7
   3   4  -6 3465.35 304.620   1
   3   4  -5 1696.31 209.524   7
   3   4  -5 1267.63 196.645   2
   3   4  -5 1638.41 219.096   1
   3   4  -4 5838.01 381.579   7
   3   4  -4 5808.40 429.277   2
   3   4  -4 5949.65 402.530   1
   3   4  -3 8195.58 450.969   7
   3   4  -3 8306.61 467.736   1
   3   4  -3 7449.37 499.737   2
   3   4  -2 196.366 97.3106   1
   3   4  -2 569.069 128.283   7
   3   4  -2 503.589 146.597   2
   3   4  -1 138.652 89.3134   2
   3   4  -1 34.1314 66.5990   1
   3   4  -1 283.488 87.2588   7
   3   4   0 2025.92 266.732   2
   3   4   0 1847.30 204.433   7
   3   4   0 1816.62 220.715   1
   3   4   1 13596.7 715.950   2
   3   4   1 11724.0 577.998   1
   3   4   1 13259.5 561.119   7
   3   4   2 5005.27 334.911   7
   3   4   2 5031.10 369.831   1
   3   4   2 4314.80 405.923   2
   3   4   3 1522.35 210.534   1
   3   4   3 1720.11 195.236   7
   3   4   3 1785.12 200.436   4
   3   4   4 436.771 129.020   1
   3   4   4 308.474 103.572   4
   3   4   4 413.903 109.020   7
   3   4   5 1917.78 199.373   7
   3   4   5 1702.08 230.277   1
   3   4   5 1724.83 205.467   4
   3   4   6 69.7234 74.6488   1
   3   4   6 241.079 85.7055   7
   3   4   6 47.1587 62.5658   4
   3   4   7 1559.26 236.648   1
   3   4   7 1855.50 239.918   4
   3   4   7 1346.91 164.988   7
   3   4   8 32.4645 64.5004   7
   3   4   8-5.47795 76.9648   4
   3   4   9 1165.62 215.624   4
   3   4   9 1349.70 163.892   7
   3   4  10 10000.9 602.822   4
   3   4  11 5147.07 453.998   4
   3   4  12 8527.65 596.864   4
   3   4  13 155.394 131.033   4
   3   4  14 5698.44 510.583   4
   3   4  15 433.055 157.326   4
   3   4  16 141.840 150.759   4
   3   4  17 413.499 166.425   4
   3   4  18 2630.51 414.743   4
   3   4  19 381.419 186.018   4
  -3  -5  21-34.9661 114.914   3
   3   5 -21 206.313 170.412   6
  -3  -5  20 5194.22 538.525   3
   3   5 -20 4112.14 551.421   6
  -3  -5  19 154.618 122.573   3
   3   5 -19-131.983 130.642   6
   3   5 -19-119.014 122.184   7
  -3  -5  18 730.802 208.422   3
   3   5 -18 545.106 148.072   7
   3   5 -18 965.871 266.084   6
   3   5 -17 1867.46 343.877   6
   3   5 -17 2148.17 276.990   7
  -3  -5  17 2027.91 331.399   3
   3   5 -16-3.27500 140.240   6
   3   5 -16 146.669 100.460   7
  -3  -5  16 176.156 111.029   3
   3   5 -15-43.6044 133.776   6
   3   5 -15-60.1383 88.4537   7
  -3  -5  15 131.587 116.004   3
   3   5 -14 1377.13 219.481   7
   3   5 -14 1059.56 235.866   6
  -3  -5  14 1284.63 254.972   3
   3   5 -13-272.619 141.325   6
   3   5 -13-42.8271 76.6805   7
  -3  -5  13-30.5003 105.912   3
   3   5 -12 1937.68 306.043   6
   3   5 -12 2714.50 299.040   7
   3   5 -11 814.254 161.218   7
   3   5 -10 994.499 185.644   7
   3   5  -9 1822.92 241.022   7
   3   5  -8 307.385 111.677   7
   3   5  -8 345.655 115.431   2
  -3  -5   8 465.634 94.1102   5
   3   5  -7 5443.38 408.260   7
   3   5  -7 5018.78 396.641   2
  -3  -5   7 5480.42 309.769   5
   3   5  -7 5470.52 432.687   1
   3   5  -6 6393.61 438.829   7
   3   5  -6 5424.04 419.401   2
  -3  -5   6 5582.25 316.838   5
   3   5  -6 5734.34 446.370   1
   3   5  -5 10204.4 586.041   2
   3   5  -5 11176.5 625.062   1
   3   5  -5 10337.6 558.539   7
   3   5  -4 3910.08 333.859   7
   3   5  -4 3305.44 343.651   2
   3   5  -4 3828.08 355.073   1
   3   5  -3 5073.81 379.330   7
   3   5  -3 5205.17 433.135   2
   3   5  -3 5238.67 408.551   1
   3   5  -2 3766.74 322.345   7
   3   5  -2 3753.12 380.769   2
   3   5  -2 3430.79 329.856   1
   3   5  -1 182.101 84.7696   1
   3   5  -1 282.366 104.479   7
   3   5  -1 108.817 90.0027   2
   3   5   0 1129.86 173.389   7
   3   5   0 1393.80 247.262   2
   3   5   0 1039.24 181.158   1
   3   5   1 188.010 118.609   2
   3   5   1 211.823 102.439   1
   3   5   2 10102.8 519.856   7
   3   5   2 10192.1 669.074   2
   3   5   2 9703.95 580.767   1
   3   5   3 1512.38 260.598   2
   3   5   3 1037.77 196.218   1
   3   5   3 1342.50 190.539   7
   3   5   4 208.646 105.440   7
   3   5   4 169.462 91.4832   1
   3   5   4 139.081 81.1979   4
   3   5   5 321.638 135.569   1
   3   5   5 324.032 102.897   7
   3   5   5 346.793 108.581   4
   3   5   6-34.9155 84.7738   1
   3   5   6-23.9455 93.1067   4
   3   5   6 53.2417 70.5732   7
   3   5   7 1418.97 240.853   1
   3   5   7 1352.81 184.569   7
   3   5   7 1321.76 218.230   4
   3   5   8 135.912 102.182   1
   3   5   8-134.368 111.050   4
   3   5   8 40.4267 58.5875   7
   3   5   9 4182.19 311.837   7
   3   5   9 3710.47 371.569   4
   3   5  10 3522.51 366.933   4
   3   5  10 3581.05 289.827   7
   3   5  11 1059.82 219.951   4
   3   5  12 17.1347 93.3625   4
   3   5  13 104.050 107.403   4
   3   5  14 387.805 162.821   4
   3   5  15 1286.83 277.016   4
   3   5  16-128.408 127.182   4
   3   5  17 1977.96 351.342   4
  -3  -6  20 2042.97 355.636   3
   3   6 -20 1571.63 363.315   6
  -3  -6  19 632.064 211.712   3
   3   6 -19 1025.76 266.101   6
   3   6 -19 814.875 192.763   7
   3   6 -18 535.082 159.920   7
   3   6 -18 159.664 142.031   6
  -3  -6  18 798.828 225.446   3
   3   6 -17 164.802 104.527   6
   3   6 -17 136.242 99.7795   7
   3   6 -16 2135.92 296.439   7
   3   6 -16 2001.21 359.290   6
  -3  -6  16 2415.30 368.563   3
   3   6 -15 220.861 130.193   7
   3   6 -15-22.4868 132.100   6
  -3  -6  15-15.0377 117.175   3
   3   6 -14 358.045 142.610   7
  -3  -6  14 563.666 185.575   3
   3   6 -13 1138.16 218.595   7
  -3  -6  13 1070.84 244.944   3
   3   6 -12 2701.58 321.541   7
   3   6 -11-36.6928 108.154   7
   3   6 -10 1626.20 250.323   7
   3   6  -9 4.43381 93.4442   7
   3   6  -9 86.5981 112.170   1
   3   6  -8 16112.3 740.073   2
   3   6  -8 15296.2 753.795   7
   3   6  -8 16041.3 833.629   1
   3   6  -7 1094.29 226.892   7
   3   6  -7 423.863 136.959   2
   3   6  -7 838.682 202.621   1
   3   6  -6 13546.0 697.722   7
   3   6  -6 14393.5 784.435   1
   3   6  -6 12882.4 673.118   2
   3   6  -5 4018.73 372.672   7
   3   6  -5 3845.82 403.635   1
   3   6  -5 3661.77 364.142   2
   3   6  -4 28365.2 1036.65   7
   3   6  -4 28213.2 1085.73   2
   3   6  -4 28871.3 1105.57   1
   3   6  -3 2918.04 340.538   1
   3   6  -3 2793.69 315.135   7
   3   6  -3 2618.60 330.970   2
   3   6  -2 1621.93 252.709   1
   3   6  -2 1690.31 237.063   7
   3   6  -2 1826.18 267.384   2
   3   6  -1 363.425 111.318   1
   3   6  -1 596.690 147.285   7
   3   6  -1 421.958 150.101   2
   3   6   0 443.856 163.828   2
   3   6   0 110.474 95.7660   1
   3   6   0 196.176 103.249   7
   3   6   1 101.051 122.985   2
   3   6   1 205.610 112.998   7
   3   6   1 43.1477 97.5916   1
   3   6   2 4797.53 381.221   7
   3   6   2 5813.16 537.102   2
   3   6   2 5265.27 458.308   1
   3   6   3 56.4127 90.7307   2
   3   6   3-92.8601 74.5949   7
   3   6   3 58.5624 85.6542   1
   3   6   4 572.513 137.398   7
   3   6   4 340.038 141.669   1
   3   6   4 732.382 200.026   2
   3   6   5 1183.60 231.266   1
   3   6   5 880.238 164.836   7
   3   6   5 1224.03 208.699   4
   3   6   6 8448.13 498.084   7
   3   6   6 8517.67 599.128   1
   3   6   6 9129.43 563.309   4
   3   6   7-29.5515 82.6060   1
   3   6   7 6.18033 77.6716   7
   3   6   7 63.1540 107.829   4
   3   6   8 2077.04 309.377   1
   3   6   8 1890.65 229.583   7
   3   6   8 2027.71 283.667   4
   3   6   9 2510.51 261.118   7
   3   6   9 2305.97 330.371   1
   3   6   9 2043.18 287.432   4
   3   6  10 264.695 130.120   4
   3   6  11 1637.67 280.263   4
   3   6  12-17.0086 100.654   4
   3   6  13-12.4338 115.280   4
   3   6  14 3539.29 436.946   4
   3   6  15 593.824 188.030   4
   3   6  16-12.3888 129.894   4
   3   7 -19 127.902 123.391   7
   3   7 -18 135.703 129.185   7
  -3  -7  18 269.379 181.336   3
   3   7 -17 2989.21 370.605   7
  -3  -7  17 2570.98 401.351   3
   3   7 -16 766.365 192.680   7
  -3  -7  16 552.146 213.233   3
   3   7 -15 210.696 115.263   7
  -3  -7  15-48.8376 162.007   3
   3   7 -14 1280.68 237.090   7
  -3  -7  14 1179.10 263.140   3
   3   7 -13 33.0219 104.405   7
   3   7 -12 2502.78 337.841   7
   3   7 -11 47.6446 108.736   7
   3   7 -10 21.0073 89.5723   7
   3   7  -9 2916.78 391.854   1
   3   7  -9 2993.78 352.837   7
   3   7  -8 12597.2 725.260   7
   3   7  -8 12680.8 799.243   1
   3   7  -7 4162.36 417.406   7
   3   7  -7 3674.82 424.033   1
   3   7  -6 2344.54 312.865   7
   3   7  -6 1793.25 296.425   1
   3   7  -5 513.465 168.822   1
   3   7  -5 669.268 174.737   7
   3   7  -4-17.6886 113.733   7
   3   7  -4 68.5243 116.910   1
   3   7  -3 279.714 129.579   1
   3   7  -3 211.000 97.9937   7
   3   7  -2-3.21034 92.0925   7
   3   7  -2-88.3814 103.443   1
   3   7  -1 605.840 156.748   7
   3   7  -1 647.323 182.821   1
   3   7   0 5600.94 452.183   7
   3   7   0 5606.49 501.092   1
   3   7   1 1987.26 272.573   7
   3   7   1 1481.53 282.664   1
   3   7   2 2078.18 269.071   7
   3   7   2 1915.89 305.799   1
   3   7   3 3579.43 353.877   7
   3   7   3 4279.28 447.311   1
   3   7   4 252.696 133.631   1
   3   7   4 165.370 97.3077   7
   3   7   5 1651.33 286.685   1
   3   7   5 1310.43 220.022   7
   3   7   5 2101.26 372.641   2
   3   7   5 1376.52 224.532   4
   3   7   6 37.1734 99.4049   1
   3   7   6 170.212 116.200   4
   3   7   6-3.98477 63.2499   7
   3   7   7 82.7098 111.800   1
   3   7   7-19.3578 76.6819   7
   3   7   7 123.575 102.539   4
   3   7   8 22.1006 109.524   1
   3   7   8 55.1237 82.8022   4
   3   7   9 346.705 161.825   1
   3   7   9 529.181 175.656   4
   3   7  10 583.964 193.649   1
   3   7  10 422.269 144.946   4
   3   7  11 630.266 192.526   4
   3   7  12-70.5212 110.077   4
   3   7  13 914.186 243.547   4
   3   7  14 172.955 154.346   4
   3   8 -16 96.3451 102.749   7
   3   8 -15 1914.64 308.547   7
  -3  -8  15 1312.43 301.503   3
  -3  -8  14 2051.35 359.802   3
   3   8 -14 2189.97 339.740   7
   3   8 -13 461.338 159.223   7
   3   8 -12 9597.13 684.891   7
   3   8 -11 13.5397 109.745   7
   3   8 -10 2580.74 353.495   7
   3   8  -9 2171.22 326.890   7
   3   8  -8 1249.28 244.398   7
   3   8  -7 9817.77 681.557   7
   3   8  -7 10267.5 753.673   1
   3   8  -6 249.170 176.419   1
   3   8  -6 664.557 205.794   7
   3   8  -5 5006.10 473.784   7
   3   8  -5 4684.84 492.466   1
   3   8  -4 3374.92 375.833   7
   3   8  -4 2908.01 394.708   1
   3   8  -3 2502.51 361.463   1
   3   8  -3 3163.93 373.320   7
   3   8  -2 3003.31 360.409   7
   3   8  -2 3525.74 423.042   1
   3   8  -1 103.731 121.500   7
   3   8  -1 173.904 136.643   1
   3   8   0 811.569 195.075   7
   3   8   0 769.549 202.510   1
   3   8   1 622.533 171.402   7
   3   8   1 685.685 206.841   1
   3   8   2 10.7709 88.7616   7
   3   8   2-101.861 113.589   1
   3   8   3 1837.63 264.661   7
   3   8   3 1683.21 299.557   1
   3   8   4-32.4288 85.2485   7
   3   8   4-87.2132 111.747   1
   3   8   5 106.250 88.7691   1
   3   8   5 101.845 87.1974   7
   3   8   5-44.3304 81.7698   4
   3   8   6 1905.29 273.384   7
   3   8   6 2207.90 355.382   1
   3   8   6 1602.52 267.077   4
   3   8   7-200.207 123.245   4
   3   8   7 91.6653 112.719   7
   3   8   8 4656.20 503.904   1
   3   8   8 4845.68 482.764   4
   3   8   9 476.692 192.125   1
   3   8   9-36.8210 100.102   4
   3   8  10 496.150 196.694   1
   3   8  10 900.374 240.533   4
   3   8  11 86.3916 119.196   4
   3   9  -8 659.821 197.498   7
   3   9  -7 506.499 196.218   7
   3   9  -6 1922.49 316.839   7
   3   9  -5 1889.19 338.327   1
   3   9  -5 2292.62 345.342   7
   3   9  -4 460.657 190.069   1
   3   9  -4 361.228 156.005   7
   3   9  -3 1840.32 299.536   7
   3   9  -3 1835.76 328.755   1
   3   9  -2 1389.94 268.810   7
   3   9  -2 1497.87 300.900   1
   3   9  -1 1783.95 307.056   7
   3   9  -1 1318.92 296.392   1
   3   9   0 7442.26 598.777   7
   3   9   0 7575.34 667.681   1
   3   9   1 518.186 190.129   7
   3   9   1 439.156 202.183   1
   3   9   2 2627.92 350.871   7
   3   9   2 2696.66 400.792   1
   3   9   3 1238.70 241.775   7
   3   9   3 1110.95 272.793   1
   3   9   4 388.281 156.213   7
   3   9   4 338.556 156.646   1
   3   9   5 732.138 227.019   1
   3   9   5 757.590 183.167   7
   3   9   6 67.1682 99.4072   1
   3   9   6-10.0183 99.8110   7
   3   9   6 81.4073 106.467   4
   3   9   7 289.777 162.611   4
   3   9   8 539.326 210.457   4
   3  10  -1 5687.72 608.839   1
   3  10   0 135.677 174.173   1
   3  10   1 792.340 233.931   1
  -4  12   4 714.967 247.207   1
  -4  12   3 1976.90 413.103   1
  -4  12   2-12.5831 128.138   1
  -4  12   1 992.588 312.745   1
  -4  12   0 4.41259 133.149   1
   4 -12   0-92.8288 139.716   4
  -4  12  -1 383.982 191.378   1
   4 -12   1 403.122 231.820   4
  -4  12  -2 553.512 244.370   1
   4 -12   2-157.424 167.262   4
  -4  12  -3 114.077 152.746   1
   4 -12   3 204.418 180.533   4
   4 -12   4 791.907 265.568   4
   4 -12   5 218.223 171.129   4
   4 -12   6 1330.66 345.842   4
   4 -12   7 55.6129 150.451   4
   4 -12   8 2694.87 473.510   4
   4 -12   9 3102.93 522.518   4
   4 -12  10 3415.29 532.777   4
   4 -12  11 3144.66 522.063   4
   4 -12  12 73.7665 112.662   4
  -4  11  10-102.328 163.622   1
  -4  11   9 664.733 238.780   1
  -4  11   8 401.352 206.626   1
  -4  11   7 1296.96 324.264   1
  -4  11   6 1883.59 370.629   1
  -4  11   5 958.019 270.700   1
  -4  11   4 4825.08 588.334   1
  -4  11   3 77.6096 171.982   1
  -4  11   2 1027.90 293.238   1
  -4  11   1 635.702 227.318   1
   4 -11  -1 464.520 219.813   4
  -4  11   0 193.531 150.941   1
   4 -11   0 133.909 169.740   4
  -4  11  -1-107.818 173.203   1
   4 -11   1-61.7196 142.899   4
  -4  11  -2-109.627 192.038   1
   4 -11   2 152.122 135.129   4
   4 -11   3 147.655 158.000   4
   4 -11   4 368.256 190.859   4
   4 -11   5 1101.11 288.764   4
   4 -11   6 2831.96 474.278   4
   4 -11   7 3204.46 491.447   4
   4 -11   8 2928.09 476.634   4
   4 -11   9 186.774 161.191   4
   4 -11  10 1319.78 383.253   4
   4 -11  11 2752.33 468.539   4
   4 -11  12 251.224 182.029   4
   4 -11  13 1280.04 328.974   4
   4 -11  14 15.8245 143.460   4
   4 -11  15 129.712 138.215   4
   4 -11  16-20.6849 147.354   4
  -4  10  14 312.319 175.587   1
  -4  10  13 195.954 132.415   1
  -4  10  12-193.141 151.457   1
  -4  10  11-81.8707 119.036   1
  -4  10  10 1281.09 295.576   1
  -4  10   9 2814.50 419.128   1
  -4  10   8-23.7421 129.829   1
  -4  10   7 2278.78 377.791   1
  -4  10   6 1833.22 343.909   1
  -4  10   5 542.849 207.694   1
  -4  10   4 3691.25 493.687   1
  -4  10   3 1550.71 329.165   1
   4 -10  -3 1611.72 342.062   4
   4 -10  -2 321.638 183.054   4
  -4  10   2 115.147 158.029   1
   4 -10  -1 2331.61 380.469   4
  -4  10   1 2485.63 417.375   1
  -4  10   0 1762.71 343.946   1
   4 -10   0 2598.38 412.896   4
   4 -10   1 2196.12 384.648   4
   4 -10   2 6380.45 634.505   4
   4 -10   3 5617.42 611.218   4
   4 -10   4 3820.91 495.217   4
   4 -10   5 6600.10 662.452   4
   4 -10   6-90.5248 154.920   4
   4 -10   7 3623.02 494.754   4
   4 -10   8 301.191 184.669   4
   4 -10   9 1739.87 350.979   4
   4 -10  10 540.038 206.592   4
   4 -10  11 645.454 228.045   4
   4 -10  12 55.5379 120.941   4
   4 -10  13 240.262 170.414   4
   4 -10  14 42.7190 141.411   4
   4 -10  15 59.9387 120.909   4
   4 -10  16 271.739 146.299   4
   4 -10  17-4.46708 174.100   4
   4 -10  18 82.5329 189.077   4
   4 -10  19 712.075 296.042   4
  -4   9  18 895.856 255.609   5
  -4   9  17 249.574 152.230   1
  -4   9  17-91.2602 117.198   5
  -4   9  16 579.590 222.549   1
  -4   9  16 97.9124 115.756   5
  -4   9  15 364.240 168.669   1
  -4   9  15 375.558 149.546   5
  -4   9  14 937.328 261.067   1
  -4   9  14 625.855 193.016   5
  -4   9  13 782.252 223.124   1
  -4   9  13 1253.92 242.191   5
  -4   9  12 532.242 184.482   1
  -4   9  12 826.260 203.980   5
  -4   9  11 1026.88 207.846   5
  -4   9  11 426.553 175.362   1
  -4   9  10 1853.87 261.238   5
  -4   9  10 1855.67 318.147   1
  -4   9   9 273.246 119.072   5
  -4   9   9 100.209 135.145   1
  -4   9   8 501.514 193.363   1
  -4   9   8 493.032 141.512   5
  -4   9   7 165.113 145.152   1
  -4   9   6 92.1888 122.145   1
  -4   9   5 222.644 170.973   1
  -4   9   4 1969.37 354.555   1
   4  -9  -4 1901.21 345.604   4
   4  -9  -3 17892.5 1025.06   4
  -4   9   3 19006.6 1071.90   1
   4  -9  -2 5445.72 560.995   4
  -4   9   2 5871.40 589.596   1
  -4   9   1 1674.29 322.023   1
   4  -9  -1 2210.37 356.115   4
   4  -9   0-49.3432 116.243   4
   4  -9   1-151.352 185.571   4
   4  -9   2 3653.78 470.046   4
   4  -9   3 1492.29 294.186   4
   4  -9   4 715.523 216.528   4
   4  -9   5 5035.86 546.351   4
   4  -9   6 5155.39 557.592   4
   4  -9   7 2660.03 406.308   4
   4  -9   8 3147.52 443.237   4
   4  -9   9 797.583 240.657   4
   4  -9  10-138.376 137.776   4
   4  -9  11 506.364 208.353   4
   4  -9  12 464.805 195.331   4
   4  -9  13 18.8519 104.974   4
   4  -9  14 700.241 218.820   4
   4  -9  15 82.5750 135.374   4
   4  -9  16 1606.82 378.963   4
   4  -9  17 671.808 279.449   4
   4  -9  18 1366.99 383.113   4
   4  -9  19-63.8082 166.132   4
   4  -9  20-124.024 153.491   4
  -4   8  19 2245.37 360.725   5
  -4   8  18 1912.73 332.982   5
  -4   8  18 1961.42 338.620   4
  -4   8  17 410.377 176.013   5
  -4   8  16 259.563 146.924   1
  -4   8  16 572.852 196.818   5
  -4   8  15 2349.33 349.968   1
  -4   8  15 3044.49 380.033   5
  -4   8  14 449.366 158.670   1
  -4   8  14 541.302 179.287   5
  -4   8  13 5972.13 508.373   5
  -4   8  13 5978.18 541.379   1
  -4   8  12 1404.77 277.098   1
  -4   8  12 855.926 204.287   5
  -4   8  11-77.5694 108.045   1
  -4   8  11 105.208 116.832   5
  -4   8  10 199.043 127.708   5
  -4   8  10 124.910 128.651   1
  -4   8   9 8314.66 524.004   5
  -4   8   9 8325.74 619.409   1
  -4   8   8 645.511 207.776   1
  -4   8   8 374.700 124.237   5
  -4   8   7 4711.97 366.023   5
  -4   8   7 3980.50 430.445   1
  -4   8   6 2825.12 274.075   5
  -4   8   6 3236.89 392.416   1
  -4   8   5-33.2469 110.400   1
  -4   8   5 201.873 87.3493   5
   4  -8  -4 6324.88 579.712   4
  -4   8   4 6464.47 589.099   1
  -4   8   3 7026.76 401.584   5
   4  -8  -3 6514.60 578.877   4
  -4   8   3 6246.72 571.986   1
  -4   8   2 6939.83 592.591   1
  -4   8   2 6176.62 366.551   5
   4  -8  -2 7091.74 590.000   4
  -4   8   1 5500.43 331.746   5
   4  -8  -1 5336.03 511.674   4
  -4   8   0 975.466 137.022   5
   4  -8   0 786.914 206.009   4
  -4   8  -1 8303.00 392.061   5
   4  -8   1 7892.88 638.835   4
  -4   8  -2 10770.4 447.345   5
   4  -8   2 9566.44 703.194   4
  -4   8  -3 4.57663 60.0490   5
   4  -8   3 32.2888 147.379   4
   4  -8   4 2919.22 394.720   4
   4  -8   5 8467.45 673.996   4
   4  -8   6 1668.18 303.784   4
   4  -8   7-19.3688 133.382   4
   4  -8   8 1316.95 276.360   4
   4  -8   9 684.292 197.900   4
   4  -8  10 1707.35 318.824   4
   4  -8  11 198.958 147.213   4
   4  -8  12 4516.34 533.916   4
   4  -8  13-125.245 147.827   4
   4  -8  14 51.1556 116.465   4
   4  -8  15 648.363 230.569   4
   4  -8  16 1033.03 288.086   4
   4  -8  17 793.114 275.192   4
   4  -8  18 1708.38 373.736   4
   4  -8  19 648.407 245.847   4
   4  -8  20 1266.67 335.109   4
   4  -8  21 1065.81 345.595   4
   4  -8  22 2291.73 472.115   4
  -4   7  21 643.135 208.855   4
  -4   7  20 634.406 219.478   5
  -4   7  20 142.844 126.041   4
  -4   7  19 752.435 218.601   5
  -4   7  19 541.049 176.270   4
  -4   7  18 416.679 188.692   5
  -4   7  18 356.808 180.818   4
  -4   7  17 34.8842 131.238   5
  -4   7  16 472.907 162.284   1
  -4   7  16 242.294 119.808   5
  -4   7  15-50.3566 83.7141   1
  -4   7  15 156.041 150.234   5
  -4   7  14 196.380 112.252   1
  -4   7  14 381.144 147.586   5
  -4   7  13 49.9377 93.5522   1
  -4   7  13 450.429 148.886   5
  -4   7  12 581.008 169.505   1
  -4   7  12 217.692 94.7031   5
  -4   7  11 1266.62 221.438   5
  -4   7  11 2014.65 295.934   1
  -4   7  10 8952.62 555.045   5
  -4   7  10 9083.73 614.257   1
  -4   7   9 1667.11 235.172   5
  -4   7   9 1685.36 259.492   1
  -4   7   8 5615.04 417.609   5
  -4   7   8 5713.58 477.396   1
  -4   7   7 2325.07 312.223   1
  -4   7   7 2701.20 275.063   5
  -4   7   6 771.867 139.866   5
  -4   7   6 659.304 169.907   1
  -4   7   5 6432.09 407.092   5
   4  -7  -5 6560.04 547.119   4
  -4   7   5 6358.82 520.641   1
  -4   7   4 3714.08 302.572   5
  -4   7   4 3846.18 400.869   1
   4  -7  -4 3625.86 396.453   4
  -4   7   3 3890.38 296.727   5
   4  -7  -3 2863.94 347.955   4
  -4   7   3 4148.74 421.510   1
  -4   7   2 28724.7 880.457   5
   4  -7  -2 25773.9 1113.65   4
  -4   7   1 35153.7 988.212   5
   4  -7  -1 33767.6 1299.68   4
  -4   7   0 16260.6 617.481   5
   4  -7   0 17213.7 891.694   4
   4  -7   1 6385.74 535.239   4
  -4   7  -1 7347.63 391.348   5
   4  -7   2 960.571 218.943   4
   4  -7   3 3703.61 412.139   4
   4  -7   4 40.7231 90.8097   4
   4  -7   5 6492.96 214.510   2
   4  -7   5 7778.49 602.901   4
   4  -7   6-16.1908 103.767   4
   4  -7   6-12.5060 20.6970   2
   4  -7   7 3751.12 220.751   2
   4  -7   7 4311.55 452.715   4
   4  -7   8 56.3683 100.423   4
   4  -7   8 39.0520 42.4243   2
   4  -7   8-22.2120 45.2758   3
   4  -7   9 6848.33 340.258   3
   4  -7   9 6228.54 560.641   4
   4  -7  10 23465.7 703.013   3
   4  -7  10 22913.2 1130.77   4
   4  -7  11 8909.40 699.476   4
   4  -7  12 26067.1 1253.31   4
   4  -7  13 14117.9 920.892   4
   4  -7  14-80.1913 155.679   4
   4  -7  15 6556.77 636.208   4
   4  -7  16 2861.15 433.337   4
   4  -7  17-8.39757 128.606   4
   4  -7  18-169.095 159.280   4
   4  -7  19 637.670 210.487   4
   4  -7  20 48.9390 135.364   4
   4  -7  21 159.180 162.305   4
   4  -7  22 272.550 209.988   4
   4  -7  23 126.417 142.889   4
  -4   6  22 325.277 155.269   4
  -4   6  21-71.0118 137.879   5
  -4   6  21-31.0723 110.176   4
  -4   6  20 447.732 178.873   5
  -4   6  20 4.14485 89.3069   4
  -4   6  19 88.6360 136.592   5
  -4   6  19-119.038 99.7384   4
  -4   6  18 284.117 135.563   5
  -4   6  18 342.589 145.531   4
  -4   6  17 111.101 108.596   5
  -4   6  17-4.25872 92.8536   4
  -4   6  16 372.268 144.623   5
  -4   6  15 254.444 133.919   5
  -4   6  15 458.996 155.047   1
  -4   6  14 204.761 115.714   1
  -4   6  14 29.1450 99.8985   5
  -4   6  13-52.4409 118.224   1
  -4   6  13 43.8127 88.8034   5
  -4   6  12 770.792 180.353   1
  -4   6  12 253.708 132.796   5
  -4   6  11 12862.4 680.889   5
  -4   6  11 12891.7 690.219   1
  -4   6  10 3413.57 337.229   5
  -4   6  10 3711.51 362.471   1
  -4   6   9 117.770 86.5254   5
  -4   6   9 311.564 110.828   1
  -4   6   8-98.5066 107.439   1
  -4   6   8 97.4034 80.6361   5
  -4   6   7 764.790 168.027   1
  -4   6   7 844.594 162.809   5
  -4   6   6 4865.06 366.750   5
  -4   6   6 4459.12 393.299   1
  -4   6   5 764.899 178.036   1
  -4   6   5 734.429 150.768   5
   4  -6  -5 646.136 180.628   4
  -4   6   4 3512.50 295.824   5
   4  -6  -4 3130.73 344.974   4
  -4   6   4 2833.35 316.404   1
  -4   6   3 2112.81 226.037   5
   4  -6  -3 2041.23 283.892   4
  -4   6   2 912.463 147.014   5
   4  -6  -2 1058.77 198.042   4
  -4   6   1 9755.76 476.897   5
   4  -6  -1 9407.76 605.964   4
  -4   6   0 1487.62 160.337   2
   4  -6   0 1763.13 265.665   4
   4  -6   1 21421.6 939.147   4
   4  -6   2 1594.43 255.713   4
   4  -6   2 1626.00 132.362   2
   4  -6   3 24770.2 627.807   2
   4  -6   3 25396.1 1046.10   4
   4  -6   4 293.988 128.080   4
   4  -6   4 436.699 71.7333   2
   4  -6   5 4792.64 268.044   2
   4  -6   5 4687.14 436.530   4
   4  -6   6 11727.7 477.007   2
   4  -6   6 12305.7 724.034   4
   4  -6   7 4957.77 242.427   3
   4  -6   7 4827.76 455.240   4
   4  -6   8 12087.5 407.642   3
   4  -6   8 11642.2 728.331   4
   4  -6   9 4757.75 251.480   3
   4  -6   9 4603.73 456.666   4
   4  -6  10 5150.75 271.036   3
   4  -6  10 4626.96 463.795   4
   4  -6  11 2714.08 203.240   3
   4  -6  11 3650.47 421.078   4
   4  -6  12 961.996 127.821   3
   4  -6  12 1044.90 242.962   4
   4  -6  13 4553.64 494.361   4
   4  -6  14 3016.11 412.504   4
   4  -6  15 7306.84 661.142   4
   4  -6  16 2259.72 375.636   4
   4  -6  17 409.122 193.546   4
   4  -6  18 1108.55 300.704   4
   4  -6  19 852.150 250.359   4
   4  -6  20 91.7710 136.250   4
   4  -6  21 123.436 126.184   4
   4  -6  22 211.663 188.858   4
   4  -6  23 999.277 314.443   4
  -4   5  24 204.271 147.034   4
  -4   5  23 699.656 215.365   4
  -4   5  22 506.645 187.242   4
  -4   5  22 523.086 200.682   5
  -4   5  21 320.055 170.460   5
  -4   5  21 202.408 120.752   4
  -4   5  20-100.707 122.231   5
  -4   5  20-64.9749 110.763   4
  -4   5  19-27.6601 104.638   5
  -4   5  19-94.9720 110.156   4
  -4   5  18 400.531 162.702   5
  -4   5  18 683.726 171.067   4
  -4   5  17 1594.40 287.383   5
  -4   5  17 1204.04 225.451   4
  -4   5  16 12.2869 96.5440   5
  -4   5  16-5.69380 106.008   4
  -4   5  15 1676.02 276.635   5
  -4   5  14 2516.68 321.379   5
  -4   5  13 239.281 113.052   1
  -4   5  13 541.085 166.031   5
  -4   5  12 987.572 178.770   1
  -4   5  12 606.715 160.402   5
  -4   5  11 5998.22 427.324   1
  -4   5  11 5676.07 437.950   5
  -4   5  10 837.239 162.900   1
  -4   5  10 518.619 146.185   5
  -4   5   9 50.9827 60.5256   1
  -4   5   9 16.3476 83.3119   5
  -4   5   8 2859.88 285.441   5
  -4   5   8 3022.03 289.712   1
  -4   5   7 12408.9 605.081   5
  -4   5   7 11819.1 584.980   1
  -4   5   6 2538.23 266.645   5
   4  -5  -6 2276.69 278.298   4
  -4   5   6 2051.28 240.776   1
  -4   5   5 3627.88 310.222   5
   4  -5  -5 3724.32 344.246   4
  -4   5   5 3622.28 325.954   1
  -4   5   4 149.834 78.4364   5
   4  -5  -4 118.047 73.9518   4
  -4   5   4 84.2136 58.6580   1
   4  -5  -3 3197.39 329.678   4
  -4   5   3 3009.95 273.634   5
   4  -5  -2 323.729 103.179   4
   4  -5  -1 830.616 192.267   4
   4  -5  -1 976.629 121.289   2
   4  -5   0 4536.60 260.882   2
   4  -5   0 4779.56 400.450   4
   4  -5   1 24108.1 692.357   2
   4  -5   1 28728.4 1015.01   4
   4  -5   2 10028.1 415.067   2
   4  -5   2 10542.1 603.617   4
   4  -5   3 862.029 179.099   4
   4  -5   3 669.145 106.821   2
   4  -5   4 9619.49 438.046   2
   4  -5   4 8992.29 558.894   4
   4  -5   5 3710.26 153.573   3
   4  -5   5 3498.51 275.347   2
   4  -5   5 3954.85 379.487   4
   4  -5   6 79309.5 1337.71   3
   4  -5   6 78788.1 2021.95   4
   4  -5   7 24368.1 539.280   3
   4  -5   7 24491.9 999.668   4
   4  -5   8 2324.72 295.735   4
   4  -5   8 1998.57 131.002   3
   4  -5   9 6413.62 266.588   3
   4  -5   9 6486.45 510.278   4
   4  -5  10 2017.42 295.738   4
   4  -5  11 161.337 147.343   4
   4  -5  12 1789.44 291.811   4
   4  -5  13 27684.5 1205.30   4
   4  -5  14 442.935 197.326   4
   4  -5  15 12871.7 830.749   4
   4  -5  16 3652.55 455.460   4
   4  -5  17 5360.67 558.178   4
   4  -5  18 909.757 247.729   4
   4  -5  19 334.949 170.055   4
   4  -5  20 386.653 179.812   4
   4  -5  21 524.194 221.525   4
   4  -5  22 472.238 204.840   4
   4  -5  23 166.329 161.675   4
  -4   4  24 40.6846 101.629   4
  -4   4  23 371.294 189.975   5
  -4   4  23 246.310 156.544   4
  -4   4  22 316.025 158.807   4
  -4   4  22 170.774 141.303   5
  -4   4  21-68.4368 110.870   4
  -4   4  21 40.6737 113.244   5
  -4   4  20 2308.07 324.327   4
  -4   4  20 2844.83 396.722   5
  -4   4  19-144.323 128.819   5
  -4   4  19 138.083 119.924   4
  -4   4  18-97.3671 118.904   5
  -4   4  18 140.683 107.993   4
  -4   4  17 3638.40 353.908   4
  -4   4  17 3480.89 400.948   5
  -4   4  16 336.922 132.192   5
  -4   4  16 641.299 157.823   4
  -4   4  15 1051.99 217.905   5
  -4   4  15 1020.94 193.216   4
  -4   4  14 851.559 207.931   5
  -4   4  13 6276.88 477.013   5
  -4   4  12 135.859 83.2234   1
  -4   4  12 39.6134 93.7584   5
  -4   4  11 2539.38 248.141   1
  -4   4  11 3019.20 317.365   5
  -4   4  10 18744.5 694.379   1
  -4   4  10 17068.5 763.745   5
  -4   4   9 2788.66 250.051   1
  -4   4   9 2987.82 306.491   5
  -4   4   8 12252.0 610.205   5
  -4   4   8 12486.4 545.301   1
  -4   4   7 3079.12 300.452   5
  -4   4   7 3707.67 280.648   1
  -4   4   6 23908.2 865.339   5
  -4   4   6 24157.0 783.331   1
   4  -4  -6 26201.3 903.667   4
  -4   4   5 54991.1 1427.97   5
   4  -4  -5 55850.3 1436.44   4
  -4   4   5 59510.4 1386.75   1
  -4   4   4 767.771 136.495   1
  -4   4   4 893.177 150.240   5
   4  -4  -4 901.820 160.699   4
   4  -4  -3 35.6669 47.3479   2
   4  -4  -3 212.359 94.6729   4
   4  -4  -2 35232.8 935.687   2
   4  -4  -2 35531.5 1080.08   4
   4  -4  -2 36043.2 757.017   3
   4  -4  -1 5859.09 330.496   2
   4  -4  -1 6332.54 412.875   4
   4  -4  -1 6123.03 224.936   3
   4  -4   0 42172.1 1069.66   2
   4  -4   0 44656.0 1246.28   4
   4  -4   0 44051.7 795.409   3
   4  -4   1 9483.82 438.654   2
   4  -4   1 9227.98 512.483   4
   4  -4   1 9439.31 228.588   3
   4  -4   2 9373.80 449.409   2
   4  -4   2 10407.8 549.953   4
   4  -4   3 3005.13 254.442   2
   4  -4   3 2959.24 291.869   4
   4  -4   4 27196.7 868.514   2
   4  -4   4 28456.6 978.319   4
   4  -4   5 28417.2 995.095   4
   4  -4   6 45889.9 1351.86   4
   4  -4   7 6460.58 463.098   4
   4  -4   8 948.725 207.859   4
   4  -4   9 10872.3 641.574   4
   4  -4  10 33.7059 84.8911   4
   4  -4  11 221.597 115.750   4
   4  -4  12 10510.7 670.746   4
   4  -4  13 78.8773 99.0218   4
   4  -4  14 1991.21 314.445   4
   4  -4  15 831.257 210.645   4
   4  -4  16 5171.36 516.113   4
   4  -4  17 659.180 216.032   4
   4  -4  18 23.0148 116.202   4
   4  -4  19-363.126 171.876   4
   4  -4  20 238.496 157.564   4
   4  -4  21 106.087 139.748   4
   4  -4  22 381.181 191.746   4
   4  -4  23 1068.61 282.970   4
   4  -4  24 3661.58 554.992   4
  -4   3  23 74.3312 134.300   5
  -4   3  22 96.7479 104.187   4
  -4   3  22-45.9070 134.260   5
  -4   3  21 40.6519 94.3607   4
  -4   3  21 80.7203 120.869   5
  -4   3  20 191.380 113.422   4
  -4   3  20 572.459 199.398   5
  -4   3  19 2552.96 314.725   4
  -4   3  19 2284.50 346.953   5
  -4   3  18 155.467 124.899   5
  -4   3  18 41.4811 71.3962   4
  -4   3  17 585.334 169.652   5
  -4   3  17 603.230 143.629   4
  -4   3  16 343.340 151.973   5
  -4   3  16 133.112 86.7870   4
  -4   3  15 15839.7 677.540   4
  -4   3  15 16605.8 835.578   5
  -4   3  14 3983.35 387.532   5
  -4   3  14 3746.63 310.789   4
  -4   3  13 7887.66 535.583   5
  -4   3  12-34.3181 114.004   5
  -4   3  11 5253.14 409.430   5
  -4   3  10 13902.8 670.433   5
  -4   3   9 83.8435 52.7291   1
  -4   3   9 171.088 119.931   5
  -4   3   8 3210.65 223.994   1
  -4   3   8 3363.67 312.462   5
  -4   3   7 1416.05 150.108   1
  -4   3   7 1122.05 184.422   5
  -4   3   6 80514.1 1861.53   5
  -4   3   6 83757.4 1613.78   1
   4  -3  -5 16837.2 655.448   2
  -4   3   5 15549.1 665.846   5
  -4   3   5 17265.9 549.537   1
   4  -3  -5 16673.1 616.884   4
   4  -3  -4 13918.4 578.482   2
   4  -3  -4 13983.7 564.577   4
  -4   3   4 15077.5 512.555   1
   4  -3  -3 412.707 104.481   2
   4  -3  -3 259.519 89.9936   4
   4  -3  -2 13393.7 561.378   2
   4  -3  -2 14702.8 413.168   3
   4  -3  -2 15809.0 599.483   4
   4  -3  -1 31684.0 925.739   2
   4  -3  -1 31297.3 656.661   3
   4  -3  -1 31612.3 916.623   4
   4  -3   0 29674.4 902.103   2
   4  -3   0 30385.0 900.779   4
   4  -3   1 65085.7 1516.19   2
   4  -3   1 64412.3 1515.30   4
   4  -3   2 8683.23 472.675   2
   4  -3   2 9382.99 474.374   4
   4  -3   3 240.967 90.9235   4
   4  -3   3 222.872 64.0897   2
   4  -3   4 618.358 141.681   4
   4  -3   5 15053.8 634.522   4
  -4   3  -5 11101.5 245.061   3
   4  -3   6 1096.09 181.654   4
  -4   3  -6 1038.10 72.5477   3
   4  -3   7 2703.08 290.218   4
  -4   3  -7 2468.58 131.259   3
   4  -3   8 16826.0 743.751   4
  -4   3  -8 16295.2 433.856   3
   4  -3   9 2541.99 289.706   4
   4  -3  10 5596.77 446.583   4
   4  -3  11 4404.81 404.357   4
   4  -3  12 727.869 187.921   4
   4  -3  13 1254.16 241.156   4
   4  -3  14 160.879 137.966   4
   4  -3  15 4743.46 465.156   4
   4  -3  16 7894.85 626.386   4
   4  -3  17 7376.81 621.881   4
   4  -3  18 6624.05 607.149   4
   4  -3  19-33.2109 125.662   4
   4  -3  20-32.4562 111.596   4
   4  -3  21 4840.41 557.346   4
   4  -3  22 678.216 236.185   4
   4  -3  23 669.162 235.867   4
   4  -2 -25 158.228 143.375   6
   4  -2 -24 95.2731 144.605   6
  -4   2  24 183.468 178.318   5
   4  -2 -23-111.216 179.399   6
  -4   2  23 23.9075 117.437   5
   4  -2 -22 120.249 115.128   6
  -4   2  22 476.042 185.132   5
   4  -2 -21 25.1520 115.760   6
  -4   2  21-50.5097 133.557   5
  -4   2  20 2792.51 317.979   4
   4  -2 -20 1927.21 320.967   6
  -4   2  20 2000.24 326.009   5
   4  -2 -19 2379.93 342.543   6
  -4   2  19 1853.70 253.261   4
  -4   2  19 2523.11 344.826   5
   4  -2 -18 258.244 105.583   6
  -4   2  18 160.439 87.7418   4
  -4   2  18-1.71595 110.847   5
   4  -2 -17 757.043 199.237   6
  -4   2  17 961.065 170.126   4
  -4   2  17 1173.91 231.335   5
  -4   2  16 2656.53 322.580   5
   4  -2 -16 2362.21 314.851   6
  -4   2  16 2155.55 238.525   4
  -4   2  15 4289.33 314.237   4
  -4   2  15 4216.53 402.685   5
  -4   2  14 4773.06 317.408   4
  -4   2  14 5048.91 422.135   5
  -4   2  13 2320.00 208.161   4
  -4   2  13 2298.17 284.120   5
  -4   2  12 5623.52 318.613   4
  -4   2  12 5742.38 443.292   5
  -4   2  11 8136.61 511.773   5
  -4   2  11 8041.21 372.032   4
  -4   2  10 18.4993 67.3349   3
  -4   2  10-17.1037 75.6622   5
  -4   2   9 1764.50 235.101   5
   4  -2  -9 1961.26 176.601   1
  -4   2   9 2314.37 219.433   3
  -4   2   8 15.1741 53.6676   3
  -4   2   8-74.6792 94.3200   5
  -4   2   7 9450.86 514.510   5
  -4   2   7 9254.79 410.232   3
  -4   2   6 171.331 57.6329   3
  -4   2   6 73.2620 29.1105   1
   4  -2  -6-14.7654 54.9341   2
  -4   2   6-16.1654 91.4296   5
   4  -2  -5 11207.8 539.328   2
  -4   2   5 12424.0 346.938   1
   4  -2  -5 12333.1 449.365   4
  -4   2   5 12156.9 475.703   4
  -4   2   5 11950.0 434.414   3
   4  -2  -4 21871.8 777.038   2
   4  -2  -4 22325.5 650.514   4
  -4   2   4 22779.7 534.070   1
  -4   2   4 22245.6 605.246   3
  -4   2   4 23244.0 698.809   4
   4  -2  -3 8.67469 43.4459   4
  -4   2   3 24.8023 31.0415   3
  -4   2   3 58.7590 48.7057   4
   4  -2  -3 96.3340 84.0741   2
   4  -2  -2 198260. 3641.48   2
  -4   2   2 204555. 3239.23   3
   4  -2  -2 198982. 3416.48   4
  -4   2   2 208615. 3435.80   4
   4  -2  -1 14339.4 623.339   2
  -4   2   1 13845.1 383.078   3
   4  -2  -1 14156.9 519.656   4
   4  -2   0 3407.40 295.882   2
  -4   2   0 3229.89 156.753   3
   4  -2   0 3541.60 249.132   4
   4  -2   1 43659.8 1214.59   2
   4  -2   1 44199.5 1079.72   4
   4  -2   2 26689.2 787.985   4
   4  -2   2 24215.3 878.330   2
   4  -2   3 2673.79 231.810   4
   4  -2   4 20895.5 719.119   4
   4  -2   5 608.863 125.928   4
   4  -2   6 59880.5 1461.31   4
   4  -2   7 2016.26 229.267   4
   4  -2   8 6488.45 424.879   4
   4  -2   9 1770.93 238.397   4
   4  -2  10 2536.07 280.405   4
  -4   2 -11 1094.58 89.4494   7
   4  -2  11 1334.05 221.480   4
   4  -2  12 2112.07 283.180   4
  -4   2 -12 1946.65 109.223   7
   4  -2  13 1684.38 268.070   4
   4  -2  14 4173.80 418.446   4
   4  -2  15 5721.92 499.475   4
   4  -2  16 56.0354 94.9507   4
   4  -2  17 331.238 149.561   4
   4  -2  18 1097.41 243.531   4
   4  -2  19 959.273 244.588   4
   4  -2  20 900.131 244.744   4
   4  -2  21 2518.62 404.526   4
   4  -2  22 809.486 252.120   4
   4  -2  23 183.203 165.470   4
   4  -1 -25 5.90195 138.490   6
   4  -1 -24 253.370 159.816   6
  -4   1  24 612.002 211.255   5
   4  -1 -23-46.7708 129.969   6
  -4   1  23-39.0301 102.785   5
   4  -1 -22 932.507 261.577   6
  -4   1  22 1079.65 255.517   5
  -4   1  21 419.853 190.972   5
   4  -1 -21 314.234 150.648   6
  -4   1  20 1382.21 269.119   5
   4  -1 -20 1119.90 259.470   6
  -4   1  19 1632.13 280.691   5
   4  -1 -19 1910.70 329.259   6
   4  -1 -18-101.312 138.773   6
  -4   1  18 100.789 75.0212   4
  -4   1  18 87.4359 109.863   5
  -4   1  17 2248.61 235.605   4
   4  -1 -17 2042.92 311.989   6
  -4   1  17 2004.60 288.731   5
   4  -1 -16 1655.84 271.439   6
  -4   1  16 1410.38 180.781   4
  -4   1  16 1489.26 258.807   5
  -4   1  15 971.796 182.732   3
   4  -1 -15 391.691 137.464   6
  -4   1  15 779.877 130.262   4
  -4   1  15 1061.33 204.245   5
  -4   1  14 933.233 182.135   3
  -4   1  14 727.765 185.539   5
   4  -1 -14 887.942 193.275   6
  -4   1  14 777.327 119.494   4
  -4   1  13 5504.89 301.604   4
  -4   1  13 6051.21 455.660   5
  -4   1  13 6403.15 434.608   3
  -4   1  12-39.2704 68.0531   3
  -4   1  12 5.86865 84.4391   5
  -4   1  12-14.3815 41.3604   4
  -4   1  11-14.0366 54.9604   3
  -4   1  11 221.032 56.3458   4
  -4   1  11 206.025 106.535   5
  -4   1  10 16016.3 457.038   4
   4  -1 -10 14017.7 448.541   1
  -4   1  10 15694.0 639.034   3
  -4   1  10 16184.7 710.704   5
  -4   1   9 128.611 80.0528   3
   4  -1  -9 35.1954 29.5723   1
  -4   1   9 19.1799 25.6427   4
  -4   1   9 29.4750 32.8072   4
  -4   1   8 13546.2 633.322   5
  -4   1   8 13865.0 462.880   4
  -4   1   8 14736.6 564.249   3
   4  -1  -8 11837.8 346.520   1
   4  -1  -7 23261.9 853.637   2
  -4   1   7 22879.2 827.481   5
  -4   1   7 21656.7 592.764   4
  -4   1   7 22836.6 717.920   3
   4  -1  -6 2737.26 279.111   2
  -4   1   6 3151.96 234.401   3
  -4   1   6 2838.04 176.014   4
   4  -1  -5 1466.90 202.336   2
  -4   1   5 1517.33 158.166   3
  -4   1   5 1523.41 121.515   4
  -4   1   4 1296.33 106.961   4
   4  -1  -4 1140.87 176.122   2
  -4   1   4 1064.29 127.968   3
   4  -1  -4 928.888 92.0760   4
  -4   1   3 2210.00 137.389   4
   4  -1  -3 2531.75 267.073   2
  -4   1   3 2152.42 175.802   3
   4  -1  -3 2218.46 149.471   4
  -4   1   2 88312.8 1533.69   4
   4  -1  -2 91501.6 1990.74   2
   4  -1  -2 86105.0 1600.25   4
  -4   1   1 38301.7 816.465   4
   4  -1  -1 40681.0 1176.11   2
   4  -1  -1 39538.7 889.771   4
   4  -1   0 12016.1 425.866   4
  -4   1   0 11356.5 379.154   4
   4  -1   0 11761.8 590.531   2
   4  -1   1 105100. 1928.37   4
   4  -1   1 101764. 2252.85   2
   4  -1   2 18650.8 588.339   4
   4  -1   2 17334.7 746.323   2
   4  -1   3 45302.8 1081.73   4
   4  -1   4 18901.8 642.844   4
   4  -1   5 508.909 108.053   4
   4  -1   6-48.3480 89.8093   4
   4  -1   7 10594.9 521.667   4
   4  -1   8 8946.00 494.611   4
   4  -1   9 129.533 74.2131   4
  -4   1 -10 348.550 49.5145   7
   4  -1  10 459.319 128.929   4
  -4   1 -11 58.0307 23.7498   7
   4  -1  11-103.074 93.1507   4
   4  -1  12 1227.12 202.492   4
   4  -1  13 6223.72 495.226   4
   4  -1  14 7813.20 568.845   4
   4  -1  15 8691.36 619.573   4
   4  -1  16 544.001 195.983   4
   4  -1  17 588.714 207.758   4
   4  -1  18 11254.4 773.314   4
   4  -1  19 93.2759 112.950   4
   4  -1  20 1620.79 314.434   4
   4  -1  21 246.359 162.157   4
   4  -1  22 825.486 272.444   4
   4  -1  23 234.152 153.178   4
   4   0 -25 898.098 292.608   6
   4   0 -24 263.821 206.352   6
  -4   0  24 184.678 125.475   5
  -4   0  23-94.9840 120.492   5
   4   0 -23-6.67488 121.631   6
   4   0 -22-124.400 175.938   6
  -4   0  22 7.10629 101.775   5
   4   0 -21-160.203 193.988   6
  -4   0  21 326.573 171.160   5
   4   0 -20 1976.81 367.879   6
  -4   0  20 2415.75 333.217   5
  -4   0  19 583.588 191.548   5
   4   0 -19 316.096 136.256   6
  -4   0  18 669.736 185.926   3
   4   0 -18 772.969 213.736   6
  -4   0  17-113.090 92.7941   3
  -4   0  17 112.062 119.787   5
   4   0 -17-105.318 162.610   6
  -4   0  16 98.6631 91.1755   3
   4   0 -16-143.473 134.785   6
  -4   0  16 41.6206 50.8694   4
  -4   0  16 75.4607 91.4707   5
  -4   0  15 126.971 92.0089   3
   4   0 -15 315.720 107.892   6
  -4   0  15 316.975 78.3162   4
  -4   0  15 132.926 84.9774   5
  -4   0  14 3181.28 223.594   4
   4   0 -14 3687.28 388.678   6
  -4   0  14 4103.00 377.018   5
  -4   0  14 3665.69 344.233   3
  -4   0  13 1079.97 188.006   3
   4   0 -13 922.669 196.055   6
  -4   0  13 645.375 94.6888   4
  -4   0  13 784.040 168.297   5
  -4   0  12 7193.38 298.801   4
  -4   0  12 8632.71 522.949   5
  -4   0  12 7649.30 474.421   3
  -4   0  11 22705.8 552.841   4
  -4   0  11 25614.8 915.111   5
  -4   0  11 25623.5 874.272   3
  -4   0  10 8157.83 263.429   4
   4   0 -10 7145.64 254.551   1
  -4   0  10 9373.34 522.228   5
  -4   0  10 6525.11 274.144   4
  -4   0  10 9202.95 493.623   3
  -4   0   9 483.407 112.853   3
  -4   0   9 511.639 53.7535   4
   4   0  -9 468.634 53.3420   1
  -4   0   9 801.566 151.157   5
  -4   0   9 448.212 61.3459   4
   4   0  -8 27036.7 925.610   2
  -4   0   8 27826.4 898.195   5
  -4   0   8 26209.4 802.607   3
   4   0  -7 3832.49 335.021   2
  -4   0   7 3225.12 302.660   5
  -4   0   7 4083.35 303.029   3
   4   0  -6 15716.8 694.785   2
  -4   0   6 15588.2 603.275   3
   4   0  -5 13890.2 644.249   2
   4   0  -4 4652.44 374.321   2
  -4   0   3 43766.9 725.509   4
   4   0  -3 40069.6 776.880   4
   4   0  -2 163.808 53.0628   4
  -4   0   2 137.561 47.8963   1
  -4   0   2 101.397 33.3945   4
   4   0  -1 8441.29 299.318   4
   4   0  -1 7645.48 484.593   2
  -4   0   1 7995.12 257.522   4
  -4   0   1 8962.13 304.302   1
   4   0   0 208.809 101.405   2
   4   0   0 339.064 70.5293   4
  -4   0   0 276.232 59.4353   1
  -4   0   0 278.815 58.0956   4
   4   0   1 59501.0 1206.27   4
   4   0   1 59524.6 1584.05   2
   4   0   2 423.076 169.388   2
   4   0   2 628.533 104.714   4
   4   0   3 25121.9 721.975   4
   4   0   4 19895.2 657.076   4
   4   0   5 6415.64 365.759   4
   4   0   6 1738.17 198.169   4
   4   0   7 401.443 106.723   4
   4   0   8 17788.7 726.225   4
   4   0   9 5594.99 405.314   4
   4   0  10 1055.23 191.258   4
   4   0  11 869.031 176.041   4
   4   0  12 3645.19 377.806   4
   4   0  13 400.134 152.494   4
   4   0  14 6424.74 527.708   4
   4   0  15 17548.1 906.396   4
   4   0  16 692.642 194.597   4
   4   0  17 2162.74 346.910   4
   4   0  18 2233.39 354.600   4
   4   0  19 114.210 139.662   4
   4   0  20 1624.07 317.422   4
   4   0  21 271.711 155.203   4
   4   0  22 32.9208 139.412   4
  -4  -1  25 59.7183 109.064   5
   4   1 -24 1239.54 337.713   6
  -4  -1  24 540.366 184.222   5
   4   1 -23-149.689 192.279   6
  -4  -1  23 245.142 154.006   5
   4   1 -22 1.82564 139.788   6
  -4  -1  22 150.910 124.080   5
  -4  -1  21 633.923 188.979   3
   4   1 -21 562.235 203.193   6
  -4  -1  21 902.484 230.411   5
  -4  -1  20 1666.58 291.451   3
   4   1 -20 1392.99 294.694   6
  -4  -1  20 1282.14 244.457   5
  -4  -1  19 378.977 151.542   3
   4   1 -19 305.643 152.237   6
  -4  -1  19 185.993 124.385   5
  -4  -1  18-14.1598 96.5752   3
  -4  -1  18 163.787 143.748   5
   4   1 -18-30.4162 120.979   6
  -4  -1  17 334.709 148.191   3
   4   1 -17 392.701 141.023   6
  -4  -1  17 307.988 135.188   5
  -4  -1  16 99.1474 106.713   3
   4   1 -16-58.8353 109.305   6
  -4  -1  16 165.518 118.594   5
  -4  -1  15 93.5232 90.9501   3
  -4  -1  15 29.9552 78.9327   5
   4   1 -15-91.7675 151.908   6
   4   1 -14 2801.13 349.406   6
  -4  -1  14 3091.41 325.210   5
  -4  -1  14 2996.16 326.495   3
  -4  -1  13 2040.35 261.405   3
  -4  -1  13 1725.99 148.987   4
  -4  -1  13 2157.53 260.221   5
  -4  -1  12 577.899 153.354   3
  -4  -1  12 336.582 57.7283   4
  -4  -1  12 273.654 113.224   5
  -4  -1  11 16456.6 708.965   5
  -4  -1  11 17842.2 748.480   3
  -4  -1  10 1004.69 179.090   5
  -4  -1  10 825.682 161.612   3
   4   1  -9 5278.83 416.426   2
  -4  -1   9 4909.97 373.689   5
  -4  -1   9 5534.97 400.143   3
   4   1  -8 48844.1 1394.24   2
  -4  -1   8 45606.7 1287.54   5
  -4  -1   8 47487.3 1304.19   3
   4   1  -7 1439.81 219.715   2
  -4  -1   7 995.476 173.375   5
   4   1  -7 991.027 83.1727   1
   4   1  -6 54955.1 1406.57   2
   4   1  -6 41394.5 793.114   1
   4   1  -5 10121.3 565.446   2
   4   1  -5 9687.83 272.715   1
   4   1  -4 10321.3 290.981   1
   4   1  -4 10232.2 577.334   2
   4   1  -3 11566.6 285.483   4
   4   1  -3 12384.4 635.958   2
   4   1  -3 13508.2 349.876   1
   4   1  -2 3044.56 150.863   4
   4   1  -2 2415.47 282.003   2
   4   1  -1-73.3186 113.865   2
   4   1  -1 56.9966 38.9741   4
   4   1   0 58500.0 1143.64   4
   4   1   0 56105.6 1567.27   2
   4   1   1 9633.33 370.796   4
   4   1   1 9123.85 560.386   2
   4   1   2 1699.56 162.090   4
   4   1   2 1336.53 229.689   2
   4   1   3 6899.46 346.115   7
   4   1   3 7262.94 358.365   4
   4   1   4 70433.8 1456.45   7
   4   1   4 71363.0 1532.14   4
   4   1   5 13624.3 488.803   7
   4   1   5 14019.2 568.248   4
   4   1   6 25464.9 833.219   4
   4   1   7 402.780 127.177   4
   4   1   8 153.351 84.6282   4
   4   1   9 3547.14 338.978   4
   4   1  10 14430.4 703.363   4
   4   1  11 1365.61 229.699   4
   4   1  12 15082.5 775.088   4
   4   1  13 573.556 172.694   4
   4   1  14 17089.7 877.414   4
   4   1  15 3068.49 380.205   4
   4   1  16 106.284 127.212   4
   4   1  17 6.51130 126.001   4
   4   1  18-134.904 143.609   4
   4   1  19 115.865 127.774   4
   4   1  20 535.944 213.283   4
   4   1  21 117.310 168.472   4
  -4  -2  25 488.484 178.967   5
  -4  -2  24 196.703 129.578   5
  -4  -2  23 356.980 168.102   3
   4   2 -23 314.004 152.494   6
  -4  -2  23 575.264 189.763   5
  -4  -2  22 192.365 134.332   3
   4   2 -22-46.4376 128.230   6
  -4  -2  22 16.0150 85.2589   5
  -4  -2  21 131.173 90.1108   3
   4   2 -21 56.3285 134.086   6
  -4  -2  21 310.733 149.365   5
  -4  -2  20 313.310 156.204   3
   4   2 -20 209.790 144.203   6
  -4  -2  20 327.563 144.581   5
  -4  -2  19 1670.87 294.524   3
  -4  -2  19 2085.82 301.051   5
   4   2 -19 1759.70 335.216   6
   4   2 -18 3227.13 439.166   6
  -4  -2  18 3563.33 378.888   5
  -4  -2  18 3587.87 402.886   3
   4   2 -17 4352.35 491.048   6
  -4  -2  17 4183.21 393.141   5
  -4  -2  17 5580.34 492.029   3
  -4  -2  16 122.467 109.083   3
   4   2 -16 77.3536 103.343   6
  -4  -2  16 203.107 120.882   5
  -4  -2  15 482.178 156.073   3
   4   2 -15 477.937 172.064   6
  -4  -2  15 539.691 148.959   5
   4   2 -14 16053.2 879.481   6
  -4  -2  14 18262.0 794.113   5
  -4  -2  14 16634.2 825.943   3
  -4  -2  13 555.458 151.316   5
  -4  -2  13 774.542 181.699   3
   4   2 -12 8543.19 480.037   7
  -4  -2  12 9579.04 536.211   5
  -4  -2  12 9362.27 583.445   3
   4   2 -11 10398.4 529.467   7
  -4  -2  11 10463.9 559.069   5
  -4  -2  11 11900.4 649.490   3
   4   2 -10 3136.79 280.015   7
  -4  -2  10 3117.41 293.196   5
  -4  -2  10 3210.84 329.796   3
   4   2  -9 8859.90 550.221   2
   4   2  -9 8208.00 452.072   7
  -4  -2   9 7786.74 469.981   5
  -4  -2   9 7455.21 506.026   3
   4   2  -8 3922.38 366.858   2
   4   2  -8 3719.99 301.531   7
  -4  -2   8 3597.65 310.719   5
   4   2  -7 413.360 110.000   7
   4   2  -7 241.859 56.6514   1
   4   2  -7 408.615 132.001   2
   4   2  -6 26237.9 982.937   2
   4   2  -6 25704.3 671.149   1
   4   2  -5 8728.55 544.863   2
   4   2  -5 8117.13 331.484   1
   4   2  -4 2293.16 104.695   4
   4   2  -4 2479.96 178.548   1
   4   2  -4 1894.15 258.995   2
   4   2  -3 117.865 53.1865   1
   4   2  -3 150.477 37.2184   4
   4   2  -3 35.4605 88.1685   2
   4   2  -3 122.949 43.6619   4
   4   2  -2 4404.74 202.189   4
   4   2  -2 4551.40 400.335   2
   4   2  -2 4831.04 264.344   1
   4   2  -2 4521.18 257.848   4
   4   2  -1-86.7522 89.2772   2
   4   2  -1 8.27139 52.8234   1
   4   2  -1 63.5954 67.1836   7
   4   2  -1 18.7011 33.4435   4
   4   2   0 8804.66 348.769   4
   4   2   0 8878.73 386.576   1
   4   2   0 8397.46 555.901   2
   4   2   1 9523.96 388.397   4
   4   2   1 9877.53 423.463   1
   4   2   1 8937.86 586.291   2
   4   2   2 7602.70 364.422   4
   4   2   2 6950.97 515.343   2
   4   2   3 8461.91 405.941   4
   4   2   4 29264.5 867.677   4
   4   2   5 13370.9 570.661   4
   4   2   6 36473.8 1070.40   4
   4   2   7 76.0441 72.8980   4
   4   2   8 7313.42 467.169   4
   4   2   9 34389.3 1138.38   4
   4   2  10 2352.52 311.270   4
   4   2  11 78362.7 2010.08   4
   4   2  12 1588.55 277.595   4
   4   2  13 7120.86 554.305   4
   4   2  14 3578.10 402.272   4
   4   2  15 798.422 210.652   4
   4   2  16 1036.41 237.922   4
   4   2  17 85.0613 104.928   4
   4   2  18 90.5195 119.698   4
   4   2  19 579.467 231.505   4
   4   2  20 593.838 229.893   4
  -4  -3  22 156.466 156.305   3
   4   3 -22 373.833 193.616   6
  -4  -3  22 110.015 112.755   5
  -4  -3  21 244.841 136.240   3
   4   3 -21 113.992 132.466   6
  -4  -3  21 310.487 132.581   5
   4   3 -20 4012.15 515.726   6
  -4  -3  20 3728.73 399.175   5
  -4  -3  20 4107.75 469.083   3
  -4  -3  19 77.9026 92.7335   3
   4   3 -19 186.014 160.315   6
  -4  -3  19 35.4900 84.0989   5
  -4  -3  18 36.1297 96.1226   3
   4   3 -18 40.4541 106.563   6
  -4  -3  18 103.230 97.1991   5
  -4  -3  17 1757.76 300.861   3
   4   3 -17 2146.36 354.247   6
  -4  -3  17 2270.87 288.529   5
  -4  -3  16 440.477 156.048   3
  -4  -3  16 789.518 172.610   5
   4   3 -15 3257.42 322.679   7
  -4  -3  15 2974.59 316.005   5
  -4  -3  15 3625.34 404.224   3
   4   3 -14 6058.21 435.982   7
  -4  -3  14 7063.40 475.908   5
  -4  -3  14 7714.38 578.921   3
   4   3 -13 289.074 122.997   7
  -4  -3  13 276.483 107.399   5
  -4  -3  13 46.0007 118.337   3
   4   3 -12 22783.9 871.359   7
  -4  -3  12 23305.9 865.679   5
  -4  -3  12 23741.7 1019.45   3
   4   3 -11 900.532 176.768   7
  -4  -3  11 869.204 156.645   5
  -4  -3  11 771.634 191.374   3
   4   3 -10 4149.13 390.718   2
   4   3 -10 3162.00 301.973   7
  -4  -3  10 3656.34 313.626   5
   4   3  -9 1375.16 200.963   7
   4   3  -9 1270.06 226.212   2
  -4  -3   9 1056.75 173.865   5
   4   3  -8 2059.53 239.582   7
   4   3  -8 2043.38 264.936   2
  -4  -3   8 1742.22 221.567   5
   4   3  -8 2247.75 216.958   1
  -4  -3   7 3903.94 320.854   5
   4   3  -7 4454.36 394.029   2
   4   3  -7 4505.25 341.295   7
   4   3  -7 4590.60 304.771   1
   4   3  -6 42.6362 69.3422   7
   4   3  -6-94.2266 93.5390   2
   4   3  -6-6.23633 12.0877   4
   4   3  -6 81.3560 49.9431   1
   4   3  -5 2321.22 126.338   4
   4   3  -5 2420.83 215.204   1
   4   3  -5 2161.23 274.374   2
   4   3  -5 2337.69 245.576   7
   4   3  -4 5059.75 212.373   4
   4   3  -4 5381.51 319.042   1
   4   3  -4 5603.08 453.804   2
   4   3  -4 5551.08 373.367   7
   4   3  -3 12677.2 573.910   7
   4   3  -3 12183.7 691.083   2
   4   3  -3 13281.5 399.272   4
   4   3  -3 13305.1 528.933   1
   4   3  -2 1207.18 187.653   7
   4   3  -2 1113.96 117.329   4
   4   3  -2 1301.00 166.987   1
   4   3  -2 684.439 178.499   2
   4   3  -1 1577.98 251.519   2
   4   3  -1 1757.06 152.436   4
   4   3  -1 1692.23 187.547   1
   4   3  -1 1766.57 206.774   7
   4   3   0 17490.3 853.859   2
   4   3   0 16944.9 551.031   4
   4   3   0 18166.9 652.941   1
   4   3   0 17240.0 665.323   7
   4   3   1 3064.25 272.066   7
   4   3   1 2700.75 218.668   4
   4   3   1 3395.50 272.903   1
   4   3   1 2807.91 345.998   2
   4   3   2 12429.7 555.449   1
   4   3   2 12747.9 510.974   4
   4   3   2 12844.7 740.044   2
   4   3   2 12530.2 549.811   7
   4   3   3 19298.9 701.336   7
   4   3   3 21131.4 756.011   1
   4   3   3 20058.1 691.522   4
   4   3   3 19318.8 928.948   2
   4   3   4 726.955 139.764   7
   4   3   4 847.474 168.633   1
   4   3   4 793.992 155.971   4
   4   3   5 52324.5 1347.93   4
   4   3   5 52809.2 1288.73   7
   4   3   6 19499.3 689.296   7
   4   3   6 19427.4 765.219   4
   4   3   7 248.978 92.1723   7
   4   3   7 497.882 147.672   4
   4   3   8 8256.59 416.532   7
   4   3   8 7376.78 486.942   4
   4   3   9 2681.42 310.096   4
   4   3  10 6712.05 499.793   4
   4   3  11 1157.80 225.947   4
   4   3  12 207.981 128.457   4
   4   3  13 3068.93 373.971   4
   4   3  14 26.0588 119.268   4
   4   3  15 770.798 213.804   4
   4   3  16 1599.90 313.976   4
   4   3  17 1291.31 298.309   4
   4   3  18 19.4777 108.373   4
   4   3  19 288.115 173.236   4
  -4  -4  21 370.527 176.982   3
   4   4 -21 277.830 166.545   6
  -4  -4  20 2330.38 371.287   3
   4   4 -20 2451.96 426.797   6
  -4  -4  19 820.706 223.214   3
   4   4 -19 721.077 230.876   6
  -4  -4  18 2367.82 370.032   3
   4   4 -18 2744.80 420.484   6
  -4  -4  17 2322.54 353.175   3
   4   4 -17 2647.60 313.547   7
   4   4 -16 278.885 120.582   7
  -4  -4  16 444.958 162.867   3
  -4  -4  15 2002.82 247.806   5
   4   4 -15 1641.68 246.395   7
  -4  -4  15 1909.43 317.429   3
   4   4 -14 8334.25 544.623   7
  -4  -4  14 8724.05 508.367   5
  -4  -4  14 8788.29 647.906   3
   4   4 -13 597.072 148.172   7
  -4  -4  13 572.189 142.580   5
  -4  -4  13 368.096 167.798   3
   4   4 -12 485.902 136.188   7
  -4  -4  12 557.864 121.741   5
  -4  -4  12 370.519 150.454   3
   4   4 -11 1181.84 203.913   7
  -4  -4  11 1168.91 180.394   5
   4   4 -10 325.214 139.604   2
   4   4 -10 188.985 108.351   7
  -4  -4  10 298.361 103.289   5
   4   4  -9-114.467 98.5727   7
   4   4  -9 54.0744 84.1818   2
   4   4  -9-24.8961 78.5371   1
  -4  -4   9 84.9233 88.4283   5
   4   4  -8 594.228 148.731   7
   4   4  -8 696.195 170.634   2
   4   4  -8 558.931 131.379   1
  -4  -4   8 537.667 126.224   5
   4   4  -7 17776.2 763.916   7
   4   4  -7 17268.1 834.343   2
  -4  -4   7 17972.0 712.769   5
   4   4  -7 18923.3 737.578   1
   4   4  -6 108.670 134.997   7
   4   4  -6 212.247 107.088   1
   4   4  -6 118.152 125.403   2
   4   4  -5 15686.1 797.112   2
   4   4  -5 15132.7 635.340   1
   4   4  -5 14228.2 666.443   7
   4   4  -4 446.010 135.459   1
   4   4  -4 517.443 160.948   7
   4   4  -4 448.618 169.156   2
   4   4  -3 6731.55 527.222   2
   4   4  -3 7008.55 420.503   1
   4   4  -3 7731.98 464.151   7
   4   4  -2 1474.21 207.250   7
   4   4  -2 1430.57 151.060   4
   4   4  -2 1359.57 191.419   1
   4   4  -2 1319.47 255.895   2
   4   4  -1 6358.53 526.876   2
   4   4  -1 6349.79 328.302   4
   4   4  -1 6261.32 412.933   1
   4   4  -1 6099.80 409.514   7
   4   4   0 6573.68 546.063   2
   4   4   0 5890.53 334.874   4
   4   4   0 6063.22 405.286   1
   4   4   0 5250.83 377.115   7
   4   4   1 50.4530 82.1054   2
   4   4   1 84.2283 80.1014   7
   4   4   1 253.571 108.363   1
   4   4   1 38.5797 73.2499   4
   4   4   2 13533.1 613.433   7
   4   4   2 14119.3 649.189   1
   4   4   2 13995.1 815.218   2
   4   4   2 14506.2 582.538   4
   4   4   3 8615.79 476.150   7
   4   4   3 9015.29 519.041   1
   4   4   3 8517.75 454.551   4
   4   4   3 9159.33 666.418   2
   4   4   4 3807.68 348.133   1
   4   4   4 3355.46 294.328   4
   4   4   4 3308.53 294.977   7
   4   4   5 19907.3 828.417   1
   4   4   5 19928.2 785.977   4
   4   4   5 19955.3 746.076   7
   4   4   6 4577.90 371.770   4
   4   4   6 4452.62 334.502   7
   4   4   7 4016.08 364.045   4
   4   4   7 3304.09 287.862   7
   4   4   8 2632.76 301.945   4
   4   4   8 2671.07 254.205   7
   4   4   9 542.715 129.814   7
   4   4   9 443.171 139.634   4
   4   4  10 3598.93 380.040   4
   4   4  11 389.251 156.639   4
   4   4  12 366.896 133.770   4
   4   4  13 2322.10 342.497   4
   4   4  14 153.276 135.789   4
   4   4  15 410.259 178.971   4
   4   4  16 362.110 161.197   4
   4   4  17 694.716 238.470   4
   4   4  18 327.048 159.984   4
  -4  -5  20 2546.49 404.537   3
  -4  -5  19-201.888 141.257   3
   4   5 -19-18.7240 80.5519   7
   4   5 -18 1856.05 287.065   7
  -4  -5  18 2268.50 376.513   3
   4   5 -17 885.129 199.471   7
  -4  -5  17 711.060 206.932   3
   4   5 -16 964.451 212.149   7
  -4  -5  16 1275.58 278.254   3
   4   5 -15 50.0029 87.4917   7
  -4  -5  15 18.5363 100.578   3
   4   5 -14-126.912 114.325   7
  -4  -5  14-6.61833 108.640   3
   4   5 -13 3002.98 341.798   7
  -4  -5  13 2561.71 378.619   3
   4   5 -12-156.590 124.833   7
   4   5 -11 2023.17 282.110   7
   4   5 -10 1.33351 101.043   7
   4   5  -9 309.123 123.381   7
   4   5  -9 520.749 159.436   2
   4   5  -8 12415.5 705.795   2
   4   5  -8 11749.9 656.777   7
   4   5  -8 11730.3 635.385   1
   4   5  -7 5464.15 463.211   2
   4   5  -7 5567.31 424.547   1
   4   5  -7 5041.97 431.021   7
   4   5  -6 23626.4 935.429   7
   4   5  -6 23858.4 1016.68   2
   4   5  -6 22822.1 889.004   1
   4   5  -5 2927.54 323.645   7
   4   5  -5 2273.87 319.802   2
   4   5  -5 2751.80 299.922   1
   4   5  -4 32243.7 1115.27   7
   4   5  -4 32735.9 1264.59   2
   4   5  -4 32198.1 1071.80   1
   4   5  -3 12821.9 778.686   2
   4   5  -3 13296.3 671.944   7
   4   5  -3 13440.8 657.939   1
   4   5  -2 864.622 180.746   1
   4   5  -2 852.647 182.747   7
   4   5  -1 14414.0 855.188   2
   4   5  -1 15056.5 577.066   4
   4   5  -1 14719.4 696.317   7
   4   5  -1 16632.4 752.809   1
   4   5   0 1024.24 238.754   2
   4   5   0 1527.18 234.445   1
   4   5   0 1333.12 175.117   4
   4   5   0 1504.67 231.362   7
   4   5   1 54.2659 120.555   2
   4   5   1 322.931 120.104   1
   4   5   1 313.894 84.1395   4
   4   5   1 257.706 117.545   7
   4   5   2 16316.2 937.060   2
   4   5   2 15535.1 748.383   1
   4   5   2 15491.5 652.064   4
   4   5   2 15556.0 698.946   7
   4   5   3 672.217 182.718   1
   4   5   3 564.213 219.032   2
   4   5   3 666.196 156.052   4
   4   5   3 554.769 159.468   7
   4   5   4 14679.9 737.925   1
   4   5   4 14787.4 670.563   4
   4   5   4 15986.3 951.036   2
   4   5   4 15181.8 682.902   7
   4   5   5 648.525 176.643   1
   4   5   5 811.458 154.031   7
   4   5   5 836.682 171.112   4
   4   5   6 494.945 153.229   1
   4   5   6 284.994 112.926   7
   4   5   6 408.535 115.106   4
   4   5   7 126.443 85.7565   7
   4   5   7 139.094 89.0200   4
   4   5   8 1304.82 200.504   7
   4   5   8 1466.65 245.029   4
   4   5   9 492.496 127.233   7
   4   5   9 254.417 115.861   4
   4   5  10 389.912 131.689   4
   4   5  11 1565.38 274.932   4
   4   5  12 1468.10 272.786   4
   4   5  13 1002.34 229.871   4
   4   5  14 485.086 176.030   4
   4   5  15 179.380 100.092   4
   4   5  16 1820.36 347.505   4
   4   6 -19 14.7488 89.6276   7
   4   6 -18 814.654 205.681   7
  -4  -6  18 830.929 231.779   3
   4   6 -17 126.985 128.519   7
  -4  -6  17-300.652 177.701   3
   4   6 -16 888.492 218.020   7
  -4  -6  16 1508.36 313.044   3
  -4  -6  15 400.270 187.989   3
   4   6 -15 279.540 136.961   7
   4   6 -14 333.003 134.121   7
  -4  -6  14 135.983 107.241   3
   4   6 -13 1564.67 264.215   7
  -4  -6  13 1059.42 249.799   3
   4   6 -12 66.5636 88.5710   7
   4   6 -11 488.974 170.539   7
   4   6 -10 1131.07 225.477   7
   4   6  -9 638.297 187.942   7
   4   6  -8 13494.5 749.661   7
   4   6  -7 5048.44 462.890   2
   4   6  -7 5802.95 481.558   7
   4   6  -6 6447.28 510.227   7
   4   6  -6 5456.68 483.458   2
   4   6  -6 5785.89 460.133   1
   4   6  -5 1784.69 262.195   1
   4   6  -5 1765.56 267.600   7
   4   6  -5 1499.45 277.139   2
   4   6  -4 3696.52 378.988   7
   4   6  -4 3713.62 421.070   2
   4   6  -4 4114.70 385.217   1
   4   6  -3 6575.82 494.143   7
   4   6  -3 6288.95 562.578   2
   4   6  -3 6771.82 504.774   1
   4   6  -2 568.731 168.617   7
   4   6  -2 617.377 167.139   1
   4   6  -2 502.397 183.602   2
   4   6  -1 1429.27 228.092   7
   4   6  -1 1183.70 217.725   1
   4   6  -1 1219.17 263.001   2
   4   6   0-71.0918 118.136   7
   4   6   0-45.5577 89.4701   1
   4   6   0 107.461 123.678   2
   4   6   1 255.043 149.652   2
   4   6   1 248.247 108.264   7
   4   6   1 195.822 116.033   1
   4   6   1 173.155 84.0976   4
   4   6   2 153.381 135.536   2
   4   6   2 223.425 106.056   1
   4   6   2 171.437 99.3482   4
   4   6   2 147.521 85.2879   7
   4   6   3 523.684 197.618   2
   4   6   3 216.777 133.093   1
   4   6   3 133.702 87.9465   7
   4   6   3 296.798 111.870   4
   4   6   4-26.2578 95.2014   1
   4   6   4-80.9780 110.071   2
   4   6   4-80.2409 77.6165   4
   4   6   4 52.4052 78.2461   7
   4   6   5 185.530 115.559   1
   4   6   5 216.147 153.604   2
   4   6   5 106.583 68.6156   7
   4   6   5 97.2905 86.3210   4
   4   6   6-19.4471 94.2559   1
   4   6   6-58.5424 82.6206   4
   4   6   6-102.172 150.207   2
   4   6   6-168.331 115.652   7
   4   6   7 3.41179 76.8010   7
   4   6   7-89.3059 100.177   1
   4   6   7 71.4278 108.548   4
   4   6   8 127.226 84.3838   7
   4   6   8-37.5724 89.3502   4
   4   6   9 1314.26 249.861   4
   4   6  10 429.390 164.991   4
   4   6  11 3615.22 419.726   4
   4   6  12 107.717 143.099   4
   4   6  13 1636.67 300.961   4
   4   6  14 1270.49 287.360   4
   4   7 -17-41.0152 101.568   7
   4   7 -16 492.386 182.394   7
   4   7 -15 563.464 186.656   7
  -4  -7  15 364.439 174.380   3
  -4  -7  14 4021.73 501.573   3
   4   7 -14 4632.59 494.223   7
   4   7 -13 819.220 213.375   7
   4   7 -12 4237.70 461.501   7
   4   7 -11 615.187 172.607   7
   4   7 -10 4937.77 483.595   7
   4   7  -9 749.724 214.340   7
   4   7  -8 2696.40 359.628   7
   4   7  -7 6952.23 558.365   7
   4   7  -6 5603.64 498.896   7
   4   7  -5 3705.20 411.090   7
   4   7  -4 2681.11 340.434   7
   4   7  -4 1867.41 291.630   1
   4   7  -3 320.952 148.645   7
   4   7  -3 120.088 104.372   1
   4   7  -2 88.7463 85.0310   7
   4   7  -2 4.85824 85.4752   1
   4   7  -1 239.650 110.127   1
   4   7  -1 457.866 147.553   7
   4   7   0 571.325 163.582   7
   4   7   0 538.432 168.998   1
   4   7   1 254.830 144.941   7
   4   7   1 113.024 93.5449   1
   4   7   2-44.0695 107.213   7
   4   7   2-34.0945 77.1723   1
   4   7   3 736.037 195.719   1
   4   7   3 519.204 148.865   7
   4   7   4 1070.71 208.006   7
   4   7   4 1348.16 265.369   1
   4   7   4 965.415 196.434   4
   4   7   5 723.500 209.445   1
   4   7   5 1133.20 205.373   7
   4   7   5 989.379 200.444   4
   4   7   6 1250.26 255.745   1
   4   7   6 1511.70 241.702   7
   4   7   6 1266.53 234.214   4
   4   7   7 64.4782 96.6558   7
   4   7   7 248.436 139.588   1
   4   7   7 92.1795 92.2399   4
   4   7   8 3302.91 386.152   4
   4   7   9 192.144 119.322   4
   4   7  10 1336.29 287.904   4
   4   7  11 1671.93 313.165   4
   4   7  12-80.7644 130.997   4
   4   8 -10 3375.12 424.567   7
   4   8  -9 240.836 134.264   7
   4   8  -8 470.988 194.604   7
   4   8  -7 4004.46 452.341   7
   4   8  -6 866.199 222.333   7
   4   8  -5 2029.82 315.566   7
   4   8  -4 3627.21 417.197   7
   4   8  -3 407.244 159.339   7
   4   8  -2 3119.43 382.354   7
   4   8  -2 2854.48 381.174   1
   4   8  -1 443.081 164.856   7
   4   8  -1 605.480 195.498   1
   4   8   0 125.233 111.707   7
   4   8   0 305.054 154.111   1
   4   8   1 75.7888 108.015   7
   4   8   1-19.0263 98.9712   1
   4   8   2 1176.46 228.825   7
   4   8   2 1151.98 249.021   1
   4   8   3-155.076 148.254   1
   4   8   3 68.6771 95.6906   7
   4   8   4 416.283 165.881   1
   4   8   4 242.401 127.280   7
   4   8   5 2298.79 353.660   1
   4   8   5 2763.02 346.225   7
   4   8   6 191.080 146.043   1
   4   8   6 425.032 162.528   7
   4   8   7 1026.55 267.192   1
   4   9   1 2428.32 379.542   1
   4   9   2 634.755 206.685   1
   4   9   3-255.133 155.427   1
   4   9   4 961.648 248.459   1
  -5  12   6 15.8310 129.890   1
  -5  12   5 122.307 118.358   1
  -5  12   4 350.322 205.795   1
  -5  12   3 197.438 163.824   1
  -5  12   2 3087.62 522.859   1
  -5  12   1 3445.96 542.201   1
   5 -12  -1 4504.92 608.105   4
  -5  12   0 744.786 269.100   1
   5 -12   0 698.015 269.067   4
  -5  12  -1 1913.23 413.558   1
   5 -12   1 2362.98 436.790   4
  -5  12  -2-16.6646 138.149   1
   5 -12   2 139.696 171.995   4
   5 -12   3 1434.60 362.937   4
   5 -12   4 2836.34 491.809   4
   5 -12   5 2500.06 477.448   4
   5 -12   6 509.249 226.262   4
   5 -12   7-169.852 166.376   4
   5 -12   8 2866.81 488.568   4
   5 -12   9 217.212 151.342   4
   5 -12  10 1331.94 366.944   4
   5 -12  11 1690.22 391.766   4
  -5  11  11-153.239 166.135   1
  -5  11  10-198.908 166.924   1
  -5  11   9 143.277 109.871   1
  -5  11   8 136.014 160.158   1
  -5  11   7 1103.39 308.327   1
  -5  11   6 591.269 228.278   1
  -5  11   5 90.6525 144.361   1
  -5  11   4 602.240 240.136   1
  -5  11   3 2362.61 422.934   1
   5 -11  -3 2557.70 444.481   4
   5 -11  -2 1016.15 273.232   4
  -5  11   2 764.298 269.072   1
  -5  11   1 479.130 239.918   1
   5 -11  -1 37.9051 121.461   4
   5 -11   0 243.426 160.461   4
  -5  11   0-116.572 127.378   1
   5 -11   1 1229.32 270.716   4
   5 -11   2 1564.69 347.249   4
   5 -11   3 242.911 167.365   4
   5 -11   4 7.47864 126.053   4
   5 -11   5-14.7399 137.221   4
   5 -11   6-73.3754 135.049   4
   5 -11   7 0.25967 123.245   4
   5 -11   8 513.315 264.146   4
   5 -11   9-383.459 202.724   4
   5 -11  10 1538.14 357.005   4
   5 -11  11 19.5444 121.485   4
   5 -11  12 292.805 177.507   4
   5 -11  13 674.250 298.289   4
   5 -11  14 128.178 156.436   4
   5 -11  15 2049.06 427.179   4
  -5  10  15-49.3341 94.0462   1
  -5  10  14 316.920 165.694   1
  -5  10  13 459.365 182.638   1
  -5  10  12 257.943 124.179   1
  -5  10  11 75.5031 130.740   1
  -5  10  10 2801.72 416.465   1
  -5  10   9-3.22155 132.884   1
  -5  10   8 523.785 207.364   1
  -5  10   7 3578.27 466.247   1
  -5  10   6 366.917 179.002   1
  -5  10   5 1779.95 348.845   1
  -5  10   4 394.436 180.859   1
   5 -10  -4 217.448 193.595   4
  -5  10   3 1262.68 318.836   1
   5 -10  -3 2080.65 373.881   4
  -5  10   2 304.839 164.346   1
   5 -10  -2 195.442 143.377   4
  -5  10   1 1350.21 304.296   1
   5 -10  -1 1673.41 327.815   4
   5 -10   0 1.07234 113.055   4
   5 -10   1 1701.00 330.875   4
   5 -10   2 0.44142 131.192   4
   5 -10   3 2560.28 412.202   4
   5 -10   4 2272.04 406.125   4
   5 -10   5 8.21991 158.115   4
   5 -10   6 168.756 114.002   4
   5 -10   7-30.0827 161.924   4
   5 -10   8 98.6515 142.419   4
   5 -10   9 356.917 177.568   4
   5 -10  10 1261.15 311.530   4
   5 -10  11 232.417 172.316   4
   5 -10  12 34.5126 136.915   4
   5 -10  13 124.124 144.176   4
   5 -10  14-151.082 142.926   4
   5 -10  15 472.440 224.935   4
   5 -10  16 139.264 152.138   4
   5 -10  17-44.0462 148.016   4
   5 -10  18 907.814 293.973   4
  -5   9  18 165.283 197.192   5
  -5   9  17 276.307 159.181   1
  -5   9  17 44.6248 108.100   5
  -5   9  16 1343.95 278.986   1
  -5   9  16 1590.97 306.264   5
  -5   9  15 786.010 216.804   1
  -5   9  15-49.9094 112.245   5
  -5   9  14 296.718 145.818   1
  -5   9  14 328.612 164.126   5
  -5   9  13 7623.07 591.138   5
  -5   9  13 6704.49 596.698   1
  -5   9  12 197.556 142.433   1
  -5   9  12 356.842 172.996   5
  -5   9  11 4121.30 415.265   5
  -5   9  11 4229.00 477.077   1
  -5   9  10 1497.60 242.352   5
  -5   9  10 749.941 210.526   1
  -5   9   9 385.735 155.640   1
  -5   9   9 552.975 143.490   5
  -5   9   8 2166.44 338.604   1
  -5   9   8 2460.51 291.220   5
  -5   9   7 94.6344 95.9572   1
  -5   9   7 56.7418 86.8050   5
  -5   9   6 250.604 100.548   5
  -5   9   6 443.774 169.908   1
  -5   9   5-2.86704 112.976   1
  -5   9   5 4.13183 70.0047   5
   5  -9  -5-131.756 151.287   4
  -5   9   4 2518.08 260.991   5
  -5   9   4 3474.96 453.364   1
   5  -9  -4 2448.17 377.996   4
  -5   9   3 8294.34 477.114   5
   5  -9  -3 8441.95 691.832   4
  -5   9   3 8160.06 688.389   1
  -5   9   2 5073.30 545.546   1
   5  -9  -2 5493.52 561.460   4
   5  -9  -1 9606.18 739.028   4
   5  -9   0 540.175 175.878   4
   5  -9   1 62.1458 128.958   4
   5  -9   2 241.671 121.633   4
   5  -9   3 21.4006 152.505   4
   5  -9   4 1857.40 337.255   4
   5  -9   5 2158.22 358.724   4
   5  -9   6 423.805 182.915   4
   5  -9   7 4931.39 552.737   4
   5  -9   8 7866.18 708.522   4
   5  -9   9 8718.37 745.192   4
   5  -9  10 8612.07 749.726   4
   5  -9  11 581.640 216.708   4
   5  -9  12 953.365 275.855   4
   5  -9  13 2711.56 442.537   4
   5  -9  14 193.482 154.999   4
   5  -9  15-233.695 167.975   4
   5  -9  16 1191.25 317.019   4
   5  -9  17 457.092 211.236   4
   5  -9  18 715.658 263.341   4
   5  -9  19 153.070 186.628   4
  -5   8  19 304.670 152.556   5
  -5   8  19 375.167 171.525   4
  -5   8  18-64.2732 147.241   5
  -5   8  17 607.923 206.806   5
  -5   8  16 84.9141 83.4497   1
  -5   8  16 205.346 122.639   5
  -5   8  15 1131.94 247.197   1
  -5   8  15 1288.21 272.244   5
  -5   8  14 3204.66 386.642   1
  -5   8  14 3381.34 402.848   5
  -5   8  13 2977.29 374.683   1
  -5   8  13 3267.71 380.963   5
  -5   8  12 1542.00 279.125   1
  -5   8  12 1981.48 300.390   5
  -5   8  11 1322.98 248.834   1
  -5   8  11 1242.09 230.614   5
  -5   8  10 1129.59 217.333   5
  -5   8  10 1105.58 239.390   1
  -5   8   9-176.670 134.794   1
  -5   8   9-33.1556 86.1875   5
  -5   8   8 360.043 152.319   1
  -5   8   8 463.373 129.150   5
  -5   8   7 374.760 154.462   1
  -5   8   7 319.193 113.123   5
  -5   8   6 2231.99 267.302   5
  -5   8   6 2189.97 338.152   1
  -5   8   5 494.970 185.276   1
  -5   8   5 552.299 132.809   5
   5  -8  -5 955.290 225.546   4
  -5   8   4-76.2469 121.395   1
  -5   8   4-41.8775 84.1375   5
   5  -8  -4 60.2593 96.7513   4
  -5   8   3 4256.15 347.451   5
   5  -8  -3 3512.56 418.816   4
  -5   8   3 3762.40 444.486   1
  -5   8   2 166.445 109.081   5
   5  -8  -2 274.315 143.022   4
  -5   8   1 16527.9 693.705   5
   5  -8  -1 15950.5 929.975   4
  -5   8   0 14155.3 636.579   5
   5  -8   0 14467.7 876.116   4
  -5   8  -1-3.14204 99.3330   5
   5  -8   1 30.1976 107.463   4
   5  -8   2 121.245 134.754   4
   5  -8   3 847.978 234.106   4
   5  -8   4 3073.24 401.116   4
   5  -8   5 4485.46 493.603   4
   5  -8   6 370.768 148.261   4
   5  -8   7 16455.2 966.960   4
   5  -8   8 371.583 186.406   4
   5  -8   9 4631.22 521.036   4
   5  -8  10 10432.4 793.239   4
   5  -8  11 526.371 184.747   4
   5  -8  12 638.348 212.567   4
   5  -8  13 632.055 222.633   4
   5  -8  14 779.046 251.717   4
   5  -8  15 512.907 204.737   4
   5  -8  16 3049.80 476.107   4
   5  -8  17 546.992 216.376   4
   5  -8  18 355.516 168.321   4
   5  -8  19 151.614 128.331   4
   5  -8  20 369.979 198.086   4
  -5   7  21-66.8200 108.743   4
  -5   7  20 155.610 131.251   5
  -5   7  20 251.412 142.357   4
  -5   7  19 2364.73 374.290   5
  -5   7  19 2050.08 340.380   4
  -5   7  18 495.491 200.341   5
  -5   7  18 418.831 161.368   4
  -5   7  17 691.879 211.519   5
  -5   7  16 80.9002 92.6443   1
  -5   7  16 96.8633 122.471   5
  -5   7  15 2598.75 338.270   1
  -5   7  15 2505.41 344.942   5
  -5   7  14 725.974 185.111   1
  -5   7  14 385.237 138.221   5
  -5   7  13 1024.67 217.809   1
  -5   7  13 1189.65 232.184   5
  -5   7  12 261.681 132.029   1
  -5   7  12 63.7252 99.1833   5
  -5   7  11 185.691 76.6287   1
  -5   7  11 394.109 140.281   5
  -5   7  10 961.517 211.753   5
  -5   7  10 553.465 155.972   1
  -5   7   9 323.915 128.154   5
  -5   7   9 194.759 93.9659   1
  -5   7   8 6515.22 476.495   5
  -5   7   8 5924.45 492.236   1
  -5   7   7 5615.74 436.771   5
  -5   7   7 5067.36 452.946   1
  -5   7   6 418.813 154.899   1
  -5   7   6 518.496 139.523   5
   5  -7  -6 285.590 137.525   4
  -5   7   5 1535.91 259.914   1
  -5   7   5 1315.06 205.759   5
   5  -7  -5 1081.40 238.406   4
  -5   7   4 1215.98 198.902   5
  -5   7   4 1142.84 233.849   1
   5  -7  -4 1035.51 228.457   4
  -5   7   3 559.993 140.652   5
   5  -7  -3 342.565 152.374   4
  -5   7   2 11850.6 596.130   5
   5  -7  -2 11198.1 717.256   4
  -5   7   1 20543.3 802.446   5
   5  -7  -1 20216.8 994.938   4
   5  -7   0 8160.14 617.031   4
   5  -7   1 4542.42 469.658   4
   5  -7   2 3530.95 225.125   2
   5  -7   2 3332.58 396.089   4
   5  -7   3 3508.07 223.295   2
   5  -7   3 3822.17 420.235   4
   5  -7   4 431.723 158.941   4
   5  -7   4 271.897 68.4004   2
   5  -7   5 1171.16 248.995   4
   5  -7   5 1014.63 129.056   2
   5  -7   6 14572.2 559.599   2
   5  -7   6 15062.4 427.968   3
   5  -7   6 16051.1 889.895   4
   5  -7   7-2.81716 52.8635   2
   5  -7   7-26.6734 106.402   4
   5  -7   8 999.491 279.701   4
   5  -7   8 765.487 145.837   2
   5  -7   9 444.732 179.766   4
   5  -7  10 300.219 149.110   4
   5  -7  11-31.1418 149.055   4
   5  -7  12 14719.5 948.590   4
   5  -7  13 72.4189 138.645   4
   5  -7  14 717.547 229.949   4
   5  -7  15 3415.80 483.435   4
   5  -7  16 35.1878 113.524   4
   5  -7  17 1669.54 353.869   4
   5  -7  18 1293.50 331.824   4
   5  -7  19 1023.30 289.683   4
   5  -7  20 552.625 253.272   4
   5  -7  21 408.807 216.525   4
  -5   6  22 117.695 124.625   4
  -5   6  21 850.506 248.023   5
  -5   6  21 805.876 229.220   4
  -5   6  20 278.183 163.129   5
  -5   6  20 266.069 144.632   4
  -5   6  19 3137.88 421.395   5
  -5   6  19 2955.53 373.049   4
  -5   6  18 303.527 194.300   5
  -5   6  18 44.5346 79.0450   4
  -5   6  17-15.8071 129.288   5
  -5   6  16 1843.12 299.381   5
  -5   6  15 4.37892 114.623   5
  -5   6  14 865.344 189.639   1
  -5   6  14 678.130 193.310   5
  -5   6  13-23.9368 87.2679   1
  -5   6  13-40.2845 97.4865   5
  -5   6  12 659.494 161.513   1
  -5   6  12 938.578 207.659   5
  -5   6  11 525.622 148.163   1
  -5   6  11 778.916 197.374   5
  -5   6  10 788.521 171.707   1
  -5   6  10 845.696 177.413   5
  -5   6   9 4832.29 419.763   5
  -5   6   9 5650.13 429.593   1
  -5   6   8 17378.3 795.171   5
  -5   6   8 17224.1 768.744   1
  -5   6   7 884.929 175.654   1
  -5   6   7 1208.69 214.558   5
  -5   6   6 3946.58 357.688   5
   5  -6  -6 3187.34 356.419   4
  -5   6   6 3417.53 345.995   1
  -5   6   5 15100.8 713.938   5
   5  -6  -5 14763.6 767.493   4
  -5   6   5 15837.5 760.781   1
  -5   6   4 14690.4 697.207   5
   5  -6  -4 14231.9 756.222   4
  -5   6   4 15049.3 741.036   1
  -5   6   3 10279.8 571.853   5
   5  -6  -3 9729.54 635.504   4
   5  -6  -2 15577.7 814.598   4
   5  -6  -1 34269.6 936.673   2
   5  -6  -1 34833.3 1256.83   4
   5  -6   0 6425.75 350.136   2
   5  -6   0 7194.43 534.895   4
   5  -6   1 1493.60 239.284   4
   5  -6   1 1177.86 147.844   2
   5  -6   2 7051.12 371.470   2
   5  -6   2 7034.70 537.942   4
   5  -6   3 10203.7 467.328   2
   5  -6   3 10625.3 662.153   4
   5  -6   4 171.557 129.106   4
   5  -6   4 141.920 67.0181   2
   5  -6   5 13558.5 584.453   2
   5  -6   5 12885.0 279.004   3
   5  -6   5 14038.1 792.562   4
   5  -6   6 6716.75 419.869   2
   5  -6   6 6173.27 169.483   3
   5  -6   6 6866.17 552.458   4
   5  -6   7 172.191 109.124   4
   5  -6   7 199.554 68.7723   2
   5  -6   8 384.166 162.898   4
   5  -6   9-79.6055 108.800   4
   5  -6  10 2763.36 375.358   4
   5  -6  11 26388.3 1214.62   4
   5  -6  12 17525.5 993.994   4
   5  -6  13 7997.63 678.724   4
   5  -6  14 569.305 229.372   4
   5  -6  15 13859.2 926.676   4
   5  -6  16 440.414 216.646   4
   5  -6  17 277.259 165.301   4
   5  -6  18 174.917 169.299   4
   5  -6  19 1217.33 308.905   4
   5  -6  20 212.809 158.501   4
   5  -6  21 3403.76 532.732   4
   5  -6  22-109.977 123.518   4
  -5   5  22-113.905 141.309   5
  -5   5  22 110.677 115.840   4
  -5   5  21 201.346 165.917   5
  -5   5  21 44.8595 107.190   4
  -5   5  20 808.739 230.344   5
  -5   5  20 530.667 181.944   4
  -5   5  19-48.8435 110.687   5
  -5   5  19 107.974 100.113   4
  -5   5  18 1009.40 232.227   5
  -5   5  18 955.631 207.876   4
  -5   5  17 17.9282 104.426   5
  -5   5  17-129.354 76.7953   4
  -5   5  16 320.498 149.292   5
  -5   5  15 1593.76 283.138   5
  -5   5  14 418.501 153.858   5
  -5   5  13 3978.62 349.305   1
  -5   5  13 4277.61 421.630   5
  -5   5  12 2566.30 269.481   1
  -5   5  12 2627.02 325.248   5
  -5   5  11 5292.56 384.573   1
  -5   5  11 4272.38 401.915   5
  -5   5  10 4620.30 414.904   5
  -5   5  10 4975.22 372.701   1
  -5   5   9 17944.6 824.592   5
  -5   5   9 18684.8 746.905   1
  -5   5   8 3521.55 351.682   5
  -5   5   8 2851.95 274.021   1
  -5   5   7 436.825 107.544   1
  -5   5   7 652.373 160.532   5
  -5   5   6 1846.43 245.511   5
  -5   5   6 1811.74 222.754   1
   5  -5  -6 1779.60 242.818   4
  -5   5   5 926.192 191.059   5
   5  -5  -5 645.213 171.565   4
  -5   5   5 789.101 160.842   1
  -5   5   4 848.109 169.738   5
   5  -5  -4 657.750 159.715   4
   5  -5  -3 6770.89 396.395   2
   5  -5  -3 6756.19 478.860   4
   5  -5  -2 761.997 130.081   2
   5  -5  -2 894.083 183.452   4
   5  -5  -1 218.063 111.607   4
   5  -5  -1 99.7140 36.9158   3
   5  -5  -1 61.9316 48.7548   2
   5  -5   0 979.521 192.561   4
   5  -5   0 1179.13 160.879   2
   5  -5   0 1411.39 97.6201   3
   5  -5   1 2916.94 255.726   2
   5  -5   1 2553.25 112.664   3
   5  -5   1 2624.34 300.746   4
   5  -5   2 1505.71 233.393   4
   5  -5   2 1294.02 174.252   2
   5  -5   3 1830.04 260.881   4
   5  -5   3 2528.51 249.320   2
   5  -5   4 504.623 128.843   2
   5  -5   4 561.842 144.626   4
   5  -5   5 58.4565 93.3684   4
   5  -5   5 123.376 81.2202   2
   5  -5   6 49864.4 1437.43   2
   5  -5   6 52649.0 1586.40   4
   5  -5   7-291.122 133.902   4
   5  -5   8 532.077 141.986   4
   5  -5   9 9903.07 655.013   4
   5  -5  10 8966.26 643.273   4
   5  -5  11 2063.42 316.915   4
   5  -5  12 9005.35 669.742   4
   5  -5  13 19492.5 1026.41   4
   5  -5  14 234.191 156.323   4
   5  -5  15 20470.3 1112.39   4
   5  -5  16 353.450 162.875   4
   5  -5  17 2562.84 414.886   4
   5  -5  18 1494.63 324.582   4
   5  -5  19 356.200 180.038   4
   5  -5  20 1114.65 292.793   4
   5  -5  21 207.710 196.243   4
   5  -5  22 1841.48 392.417   4
  -5   4  22-74.6711 128.952   5
  -5   4  21 817.754 260.334   5
  -5   4  20-103.289 138.457   5
  -5   4  20-87.1041 96.3172   4
  -5   4  19 2782.70 383.472   5
  -5   4  19 2969.80 336.361   4
  -5   4  18 763.819 227.051   5
  -5   4  18 621.568 167.333   4
  -5   4  17 913.962 238.897   5
  -5   4  17 850.157 189.104   4
  -5   4  16 2522.70 286.225   4
  -5   4  16 2309.53 339.801   5
  -5   4  15 1463.03 260.059   5
  -5   4  15 1579.95 225.777   4
  -5   4  14-76.2731 135.986   5
  -5   4  13 5246.97 453.809   5
  -5   4  12 2346.39 301.178   5
  -5   4  11 5218.03 338.013   1
  -5   4  11 4450.79 415.485   5
  -5   4  10 375.813 92.0039   1
  -5   4  10 279.258 132.015   5
  -5   4   9 6261.46 363.196   1
  -5   4   9 5546.05 444.528   5
  -5   4   8-44.2411 53.3774   1
  -5   4   8-32.3924 97.6346   5
  -5   4   7 3181.20 324.563   5
  -5   4   7 3122.30 246.691   1
  -5   4   6 21.8183 45.5939   1
  -5   4   6-139.986 128.151   5
   5  -4  -6 7.57014 59.1246   4
   5  -4  -5 7000.76 437.154   2
  -5   4   5 7143.17 474.575   5
   5  -4  -5 6954.16 435.152   4
  -5   4   5 6768.05 381.385   1
   5  -4  -4 8655.57 479.227   2
   5  -4  -4 9830.46 526.211   4
   5  -4  -3 19683.7 747.442   2
   5  -4  -3 21361.7 810.168   4
   5  -4  -2 8235.01 461.706   2
   5  -4  -2 7774.62 303.530   3
   5  -4  -2 8066.32 481.081   4
   5  -4  -1 79.2948 63.0637   4
   5  -4  -1-49.2087 64.0600   2
   5  -4  -1 24.2459 26.4430   3
   5  -4   0 9064.55 497.551   2
   5  -4   0 8909.17 513.504   4
   5  -4   1 533.891 135.622   4
   5  -4   1 487.181 126.389   2
   5  -4   2 137.266 78.2832   2
   5  -4   2 38.7617 78.3896   4
   5  -4   3 370.284 117.083   2
   5  -4   3 210.404 108.796   4
   5  -4   4 4241.00 366.563   2
   5  -4   4 4996.45 400.830   4
   5  -4   5 41467.1 1295.95   2
   5  -4   5 43179.1 1323.58   4
   5  -4   6 34187.3 1169.89   4
   5  -4   7 15057.4 755.687   4
   5  -4   8 476.361 140.741   4
   5  -4   9 491.015 142.036   4
   5  -4  10 10725.0 671.856   4
   5  -4  11 6818.49 549.634   4
   5  -4  12 11176.4 725.385   4
   5  -4  13 663.928 193.791   4
   5  -4  14 760.579 210.691   4
   5  -4  15 1783.06 317.653   4
   5  -4  16 1998.50 341.082   4
   5  -4  17 73.6034 169.589   4
   5  -4  18 192.064 179.316   4
   5  -4  19 262.372 191.824   4
   5  -4  20 230.858 151.235   4
   5  -4  21 658.112 230.157   4
   5  -4  22-70.8629 171.020   4
  -5   3  23 181.325 183.015   5
  -5   3  22 77.2279 104.036   5
  -5   3  21 1032.76 253.899   5
  -5   3  20-31.0408 115.705   5
  -5   3  19 172.871 109.557   4
  -5   3  19 322.751 153.037   5
  -5   3  18 37.1157 118.034   5
  -5   3  18 129.907 78.1158   4
  -5   3  17 4726.97 380.670   4
  -5   3  17 4510.18 473.503   5
  -5   3  16 1376.47 261.836   5
  -5   3  16 1622.85 219.093   4
  -5   3  15 219.325 134.339   5
  -5   3  15 119.773 70.4491   4
  -5   3  14 114.969 114.415   5
  -5   3  14 450.284 117.650   4
  -5   3  13 2258.69 307.581   5
  -5   3  12 15628.8 785.878   5
  -5   3  11 229.749 122.488   5
  -5   3  10 836.851 187.853   5
  -5   3   9 861.118 109.223   1
  -5   3   9 800.700 171.503   5
  -5   3   8 1431.61 138.442   1
  -5   3   8 1269.68 219.174   5
   5  -3  -7 23.6001 79.3875   2
  -5   3   7 0.85058 30.0058   1
  -5   3   7-48.0616 98.1950   5
   5  -3  -6 4852.88 379.289   2
  -5   3   6 5138.50 410.777   5
  -5   3   6 5490.51 268.339   1
   5  -3  -6 5506.44 341.882   4
  -5   3   6 5061.93 291.355   3
   5  -3  -5 3293.24 306.629   2
   5  -3  -5 2809.95 244.320   4
  -5   3   5 3684.24 224.047   1
  -5   3   5 3344.53 223.457   3
   5  -3  -4 12378.2 601.198   2
   5  -3  -4 11517.7 528.642   4
  -5   3   4 12192.3 422.537   3
   5  -3  -3 9464.55 526.892   2
   5  -3  -3 10043.4 483.470   4
  -5   3   3 10261.7 362.053   3
   5  -3  -2 21017.5 815.180   2
   5  -3  -2 19939.5 723.393   4
  -5   3   2 21139.3 528.192   3
   5  -3  -1 5415.76 398.657   2
   5  -3  -1 5308.29 350.859   4
  -5   3   1 5338.05 213.500   3
   5  -3   0 18672.6 785.361   2
  -5   3   0 19748.6 442.707   3
   5  -3   0 20365.1 751.705   4
   5  -3   1 4386.94 369.336   2
  -5   3  -1 3951.30 145.958   3
   5  -3   1 4211.77 326.691   4
   5  -3   2-23.1594 71.8241   2
   5  -3   2-36.3542 60.3372   4
  -5   3  -2 37.2976 14.0279   3
   5  -3   3 233.240 103.766   2
   5  -3   3 298.639 105.663   4
  -5   3  -3 70.8235 16.0055   3
   5  -3   4 55173.0 1463.24   4
   5  -3   4 55986.7 1569.08   2
   5  -3   5 9784.08 547.485   4
   5  -3   6 30870.4 1044.40   4
  -5   3  -6 29461.5 579.014   3
  -5   3  -7 92.9236 28.9078   3
   5  -3   7 6.47884 93.3025   4
   5  -3   8 5807.86 443.339   4
  -5   3  -8 5643.90 227.969   3
   5  -3   9 10253.3 621.425   4
   5  -3  10 423.032 142.949   4
   5  -3  11 2619.72 332.483   4
   5  -3  12 6340.82 524.231   4
   5  -3  13 245.294 146.115   4
   5  -3  14 183.664 152.494   4
   5  -3  15 1890.66 312.650   4
   5  -3  16 911.248 235.334   4
   5  -3  17 252.502 163.840   4
   5  -3  18 4170.95 500.153   4
   5  -3  19 1216.64 297.116   4
   5  -3  20 820.553 280.570   4
   5  -3  21 1580.97 347.817   4
   5  -3  22 107.384 137.390   4
  -5   2  23-129.269 151.591   5
  -5   2  22 1566.89 312.020   5
  -5   2  21 753.121 222.927   5
  -5   2  20 170.949 138.114   5
  -5   2  19 1961.95 322.142   5
  -5   2  18 1040.58 235.976   5
  -5   2  17 8437.03 611.407   5
  -5   2  16 561.952 122.962   4
  -5   2  16 753.877 185.998   5
  -5   2  15 325.283 86.2070   4
  -5   2  15 273.530 142.543   5
  -5   2  14 475.195 104.241   4
  -5   2  14 315.264 126.557   5
  -5   2  13 21831.4 672.955   4
  -5   2  13 20859.8 925.150   5
  -5   2  13 19679.6 826.788   3
  -5   2  12 29533.0 791.228   4
  -5   2  12 29300.3 1104.06   5
  -5   2  12 29495.1 994.617   3
  -5   2  11 8498.10 559.201   5
  -5   2  11 8265.65 475.788   3
  -5   2  10 2233.04 289.209   5
  -5   2  10 1736.74 207.914   3
  -5   2   9 288.015 90.5387   3
  -5   2   9 100.820 91.2264   5
  -5   2   8 442.003 105.367   3
   5  -2  -8 551.014 152.132   2
  -5   2   8 349.297 138.723   5
   5  -2  -7 19090.6 811.141   2
  -5   2   7 18548.8 817.236   5
  -5   2   7 19880.7 663.130   3
   5  -2  -6 4252.35 364.547   2
  -5   2   6 4423.24 283.909   3
  -5   2   5 1424.18 85.4185   1
   5  -2  -5 1966.12 246.547   2
   5  -2  -5 1991.98 172.377   4
  -5   2   5 1725.01 167.948   3
   5  -2  -4 3178.68 312.528   2
   5  -2  -4 3038.48 219.966   4
  -5   2   4 3184.35 217.779   3
  -5   2   4 2316.07 129.072   1
   5  -2  -3 2684.53 292.749   2
  -5   2   3 2382.31 180.365   3
   5  -2  -3 1940.43 181.530   4
   5  -2  -2 51173.0 1442.89   2
  -5   2   2 51358.1 1071.92   3
   5  -2  -2 50488.1 1177.29   4
   5  -2  -1 518.138 126.717   4
   5  -2  -1 562.575 163.998   2
  -5   2   1 418.769 80.5647   3
   5  -2   0 23491.5 924.543   2
   5  -2   0 23671.4 755.692   4
   5  -2   1 49155.3 1438.56   2
   5  -2   1 48639.4 1218.79   4
   5  -2   2 1734.45 218.329   4
   5  -2   2 1678.61 264.932   2
   5  -2   3 24633.6 824.074   4
   5  -2   3 23750.9 961.265   2
   5  -2   4 119.709 78.0701   4
   5  -2   5 290.827 102.175   4
   5  -2   6 17492.9 726.610   4
   5  -2   7 14.2279 64.0761   4
   5  -2   8-15.7150 66.4395   4
   5  -2   9 7465.53 507.294   4
   5  -2  10 1271.09 220.693   4
   5  -2  11 821.930 198.539   4
   5  -2  12 138.437 107.632   4
   5  -2  13 766.480 198.654   4
   5  -2  14 1490.69 290.039   4
   5  -2  15 853.347 214.918   4
   5  -2  16 96.9619 158.299   4
   5  -2  17 4669.31 522.642   4
   5  -2  18 3203.97 430.650   4
   5  -2  19 56.1383 113.243   4
   5  -2  20 419.831 200.047   4
   5  -2  21 1204.80 312.756   4
   5  -2  22-17.4367 136.970   4
  -5   1  24 791.444 233.341   5
  -5   1  23 155.647 152.739   5
  -5   1  22 1855.27 330.262   5
  -5   1  21 280.957 179.741   5
  -5   1  20 265.905 158.076   5
  -5   1  19 470.321 179.749   5
  -5   1  18 3479.26 403.802   5
  -5   1  17 962.473 194.779   3
  -5   1  17 1020.16 215.968   5
  -5   1  16 1586.98 256.939   3
  -5   1  16 1886.25 297.391   5
  -5   1  15 160.784 104.214   3
  -5   1  15-110.217 113.932   5
  -5   1  14 680.418 161.089   3
  -5   1  14 912.837 119.565   4
  -5   1  14 1148.90 216.579   5
  -5   1  13 4387.30 244.490   4
  -5   1  13 4844.44 427.744   5
  -5   1  13 4800.88 389.118   3
  -5   1  12 18578.6 518.887   4
  -5   1  12 18517.8 846.284   5
  -5   1  12 17924.9 761.463   3
  -5   1  11 7880.69 290.543   4
  -5   1  11 8135.38 546.555   5
  -5   1  11 8461.09 492.775   3
  -5   1  10 1256.84 189.612   3
  -5   1  10 967.454 88.6137   4
  -5   1  10 1385.30 226.826   5
  -5   1   9 1176.52 176.284   3
   5  -1  -9 1206.01 212.982   2
  -5   1   9 1182.31 92.3792   4
  -5   1   9 1669.40 243.597   5
  -5   1   9 1000.55 115.661   4
   5  -1  -8 2616.84 303.990   2
  -5   1   8 2201.22 120.490   4
  -5   1   8 2923.27 316.642   5
  -5   1   8 2587.00 245.142   3
  -5   1   8 1930.95 146.304   4
   5  -1  -7 28883.0 1047.91   2
  -5   1   7 30348.9 889.836   3
  -5   1   7 27208.1 634.459   4
  -5   1   6 6949.30 249.258   4
   5  -1  -6 7612.63 505.650   2
  -5   1   6 7845.85 409.083   3
  -5   1   5 26619.4 572.458   4
   5  -1  -5 29476.3 1042.64   2
   5  -1  -5 25387.2 593.986   4
  -5   1   5 28423.9 817.050   3
  -5   1   4 3845.88 173.175   4
   5  -1  -4 3499.36 351.879   2
  -5   1   4 3951.42 272.186   3
   5  -1  -4 3523.59 193.181   4
  -5   1   3 2645.87 149.558   4
   5  -1  -3 3124.31 333.040   2
   5  -1  -3 2706.47 178.360   4
  -5   1   2 2566.38 156.261   4
   5  -1  -2 2930.26 319.964   2
  -5   1   2 2381.51 122.336   1
   5  -1  -2 2532.45 189.195   4
   5  -1  -1 13850.8 703.460   2
  -5   1   1 11490.4 338.192   1
   5  -1  -1 12487.0 463.690   4
   5  -1   0 23157.4 694.778   4
   5  -1   0 22375.1 930.980   2
   5  -1   1 1284.63 158.572   4
   5  -1   1 1267.87 229.267   2
   5  -1   2 71.7884 83.1680   2
   5  -1   2-6.88444 42.1365   4
   5  -1   3 89211.9 1858.81   4
   5  -1   3 90526.7 2239.89   2
   5  -1   4 414.597 116.250   4
   5  -1   5 14900.3 629.331   4
   5  -1   6 6221.38 408.324   4
   5  -1   7 1764.98 225.972   4
   5  -1   8 4334.30 367.003   4
   5  -1   9 2688.63 299.938   4
   5  -1  10 5222.73 433.597   4
   5  -1  11 3354.11 358.891   4
   5  -1  12 581.624 155.803   4
   5  -1  13-218.343 140.635   4
   5  -1  14 1962.35 307.234   4
   5  -1  15 726.797 197.815   4
   5  -1  16 2217.49 354.432   4
   5  -1  17 8941.61 704.687   4
   5  -1  18 98.9196 122.641   4
   5  -1  19 320.686 141.355   4
   5  -1  20 688.086 241.019   4
   5  -1  21 1206.42 320.550   4
  -5   0  24 85.6573 102.270   5
  -5   0  23 1153.12 261.246   5
  -5   0  22 3037.66 404.915   5
  -5   0  21 1587.36 295.693   5
  -5   0  20 4807.45 485.364   5
  -5   0  20 3875.56 436.089   3
  -5   0  19 273.898 146.978   3
  -5   0  19 227.310 132.520   5
  -5   0  18 6875.93 552.687   5
  -5   0  18 5905.95 519.166   3
  -5   0  17 6231.64 520.516   5
  -5   0  17 5537.41 484.495   3
  -5   0  16 84.6664 78.2167   3
  -5   0  16 102.337 106.360   5
  -5   0  15 4089.57 404.819   5
  -5   0  15 4110.16 392.411   3
  -5   0  14-66.4928 93.3395   3
  -5   0  14-30.9335 90.3365   5
  -5   0  13 530.034 134.893   3
  -5   0  13 667.829 161.819   5
  -5   0  12 1564.50 222.905   3
  -5   0  12 2090.94 272.362   5
  -5   0  11 4702.92 416.988   5
  -5   0  11 6249.70 437.394   3
   5   0 -10 6499.86 500.714   2
  -5   0  10 6559.70 481.127   5
  -5   0  10 6246.96 425.717   3
   5   0  -9 6908.27 513.698   2
  -5   0   9 7079.36 494.619   5
  -5   0   9 7246.79 456.386   3
   5   0  -8 24590.6 983.331   2
  -5   0   8 22329.2 912.091   5
  -5   0   8 23999.7 854.077   3
   5   0  -7 9688.02 595.086   2
  -5   0   7 9272.20 497.506   3
   5   0  -6 44208.9 1368.83   2
  -5   0   6 41884.7 1181.45   3
   5   0  -5 13937.5 726.016   2
   5   0  -4 1027.98 205.879   2
   5   0  -3 16118.6 779.967   2
   5   0  -3 13274.6 381.805   4
   5   0  -2 28386.0 674.006   4
   5   0  -2 29693.3 1107.69   2
  -5   0   2 26660.2 575.815   4
  -5   0   2 28463.2 683.538   1
   5   0  -1 2445.84 182.910   4
  -5   0   1 2333.31 145.117   4
  -5   0   1 2049.09 165.743   1
   5   0  -1 2496.73 314.325   2
   5   0   0 77653.1 1532.31   4
   5   0   0 77359.8 2026.09   2
   5   0   1 11377.2 451.669   4
   5   0   1 11666.3 683.161   2
   5   0   2 7.36186 87.2744   2
   5   0   2 117.145 76.5597   4
   5   0   3 65734.3 1469.28   4
   5   0   3 66774.1 1863.52   2
   5   0   4 1334.76 174.594   4
   5   0   5 911.526 153.254   4
   5   0   6 22.4611 71.4519   4
   5   0   7 6315.72 430.704   4
   5   0   8 7063.56 466.982   4
   5   0   9 310.859 118.856   4
   5   0  10 31521.5 1138.40   4
   5   0  11-11.2104 109.267   4
   5   0  12 1936.98 288.675   4
   5   0  13 2069.84 315.365   4
   5   0  14 6389.99 554.526   4
   5   0  15 9031.74 686.171   4
   5   0  16 4768.45 512.572   4
   5   0  17 2726.38 405.012   4
   5   0  18 1436.45 300.805   4
   5   0  19 934.607 257.845   4
   5   0  20 2501.94 409.187   4
   5   0  21 50.6518 131.938   4
  -5  -1  24 357.892 161.900   5
  -5  -1  23 1740.75 330.657   5
  -5  -1  22 187.599 148.068   3
  -5  -1  22 144.250 130.968   5
  -5  -1  21 908.730 243.211   3
  -5  -1  21 969.284 237.057   5
  -5  -1  20 126.707 132.140   3
  -5  -1  20 9.03019 91.5203   5
  -5  -1  19 179.066 132.177   3
  -5  -1  19 33.3492 109.590   5
  -5  -1  18 708.282 178.741   3
  -5  -1  18 423.711 142.164   5
  -5  -1  17 27.5681 88.3878   3
  -5  -1  17 124.315 99.0022   5
  -5  -1  16 1991.72 289.240   3
  -5  -1  16 1511.38 248.268   5
  -5  -1  15 1226.65 229.899   3
  -5  -1  15 955.620 196.755   5
  -5  -1  14 1745.04 261.760   3
  -5  -1  14 1641.84 250.022   5
  -5  -1  13 12045.3 672.378   5
  -5  -1  13 14053.5 731.430   3
  -5  -1  12 5489.54 445.918   5
  -5  -1  12 4956.49 426.833   3
  -5  -1  11 7620.17 515.662   5
  -5  -1  11 7832.09 525.763   3
   5   1 -10 1295.31 233.146   2
  -5  -1  10 1598.78 240.597   5
  -5  -1  10 1416.39 219.624   3
   5   1  -9 12977.2 719.748   2
  -5  -1   9 12846.5 671.421   5
  -5  -1   9 13478.0 676.968   3
   5   1  -8 16551.2 815.078   2
  -5  -1   8 16826.3 777.717   5
  -5  -1   8 16779.3 758.109   3
   5   1  -7 4709.82 426.893   2
   5   1  -6 69532.9 1873.06   2
   5   1  -5 11847.2 688.886   2
   5   1  -4 1723.38 263.656   2
   5   1  -3 25558.7 563.733   4
   5   1  -3 29307.1 1113.08   2
   5   1  -2 928.171 103.198   4
   5   1  -2 727.965 214.611   2
   5   1  -1 1700.22 142.777   4
   5   1  -1 1336.18 233.208   2
   5   1   0 2409.53 189.937   4
   5   1   0 2637.40 333.823   2
   5   1   1 260.995 130.791   2
   5   1   1 425.990 90.2115   4
   5   1   2 17.5082 81.4157   2
   5   1   2 142.132 56.3908   4
   5   1   3 15089.5 585.770   4
   5   1   3 14174.9 797.750   2
   5   1   4 11413.7 524.531   4
   5   1   5 204.549 89.3950   4
   5   1   6 8194.11 478.367   4
   5   1   7 452.394 121.493   4
   5   1   8 8517.04 529.659   4
   5   1   9 28133.6 1047.60   4
   5   1  10 11405.9 663.995   4
   5   1  11 11330.7 687.037   4
   5   1  12-194.263 120.713   4
   5   1  13 2665.85 359.536   4
   5   1  14 6624.56 569.995   4
   5   1  15 4663.45 487.898   4
   5   1  16 1065.82 243.170   4
   5   1  17 169.477 123.557   4
   5   1  18-86.5761 141.302   4
   5   1  19 1732.49 348.826   4
   5   1  20 247.243 175.972   4
  -5  -2  24 2032.52 348.458   5
  -5  -2  23 375.484 161.917   5
  -5  -2  22 235.133 151.967   3
  -5  -2  22 439.391 179.453   5
  -5  -2  21 483.700 189.208   3
  -5  -2  21 160.566 128.008   5
  -5  -2  20 197.176 114.866   3
  -5  -2  20 1.06068 103.405   5
  -5  -2  19 3910.98 417.440   5
  -5  -2  19 3905.99 457.519   3
  -5  -2  18 182.242 91.0751   3
  -5  -2  18 78.7353 92.8805   5
  -5  -2  17 509.178 185.924   3
  -5  -2  17 686.022 178.201   5
  -5  -2  16-45.4822 92.0423   3
  -5  -2  16 19.5825 93.6402   5
  -5  -2  15 24.5998 91.6903   3
  -5  -2  15 60.4938 79.4213   5
  -5  -2  14 6697.10 500.116   5
  -5  -2  14 6289.70 521.989   3
  -5  -2  13 4188.04 396.118   5
  -5  -2  13 4402.19 426.485   3
  -5  -2  12 6987.84 492.858   5
  -5  -2  12 6970.02 540.375   3
  -5  -2  11 2787.38 314.607   5
  -5  -2  11 3108.35 351.704   3
   5   2 -10 2600.33 334.334   2
  -5  -2  10 2779.00 311.213   5
  -5  -2  10 2814.35 338.741   3
   5   2  -9 1731.39 276.864   2
   5   2  -9 2334.25 268.550   7
  -5  -2   9 2182.35 269.933   5
  -5  -2   9 1974.14 275.671   3
   5   2  -8 6548.88 519.308   2
   5   2  -8 7152.33 457.809   7
  -5  -2   8 7003.58 489.286   5
   5   2  -7 965.684 179.510   7
   5   2  -7 976.047 99.5006   1
   5   2  -6 16183.1 700.721   7
   5   2  -6 16825.6 846.697   2
   5   2  -6 17347.0 481.402   1
   5   2  -5 2327.74 255.723   7
   5   2  -5 2469.29 168.115   1
   5   2  -5 2148.49 304.921   2
   5   2  -4 1057.96 77.6645   4
   5   2  -4 1328.99 197.338   7
   5   2  -4 1471.06 134.451   1
   5   2  -4 1159.19 214.355   2
   5   2  -3 1761.66 124.898   4
   5   2  -3 1355.90 190.586   7
   5   2  -3 1763.83 153.542   1
   5   2  -3 1754.13 272.552   2
   5   2  -2 1331.88 121.705   4
   5   2  -2 1605.20 157.617   1
   5   2  -2 1437.34 199.431   7
   5   2  -2 1009.01 218.806   2
   5   2  -1-37.1909 76.2951   7
   5   2  -1 76.0258 46.7870   4
   5   2  -1-24.0165 90.7911   2
   5   2   0 654.717 184.091   2
   5   2   0 722.024 135.655   7
   5   2   0 753.665 114.193   4
   5   2   1 1662.43 280.561   2
   5   2   1 1778.73 177.246   4
   5   2   1 1619.91 205.649   7
   5   2   2 531.437 158.925   2
   5   2   2 673.629 123.313   4
   5   2   2 600.485 131.386   7
   5   2   3 60.5692 119.692   2
   5   2   3 195.150 83.5197   7
   5   2   3 289.592 96.6249   4
   5   2   4 762.283 134.831   7
   5   2   4 777.211 144.976   4
   5   2   4 472.743 166.095   2
   5   2   5 3015.88 265.919   7
   5   2   5 3189.23 292.708   4
   5   2   6 39792.4 1075.04   7
   5   2   6 37033.8 1150.22   4
   5   2   7 6870.01 394.646   7
   5   2   7 6642.05 457.335   4
   5   2   8 14494.6 713.391   4
   5   2   9 63.3288 111.742   4
   5   2  10 3149.00 350.754   4
   5   2  11 540.813 150.785   4
   5   2  12 3454.27 395.146   4
   5   2  13 1428.40 264.116   4
   5   2  14 2736.80 386.857   4
   5   2  15-51.3407 107.105   4
   5   2  16 533.067 166.169   4
   5   2  17 153.943 126.094   4
   5   2  18 242.220 177.675   4
   5   2  19 192.997 166.200   4
  -5  -3  21 50.9160 115.345   3
  -5  -3  20 1490.63 309.498   3
  -5  -3  19 121.917 111.586   3
  -5  -3  19 135.018 125.490   5
  -5  -3  18 535.429 182.272   3
  -5  -3  18 178.879 109.092   5
  -5  -3  17 7398.29 535.864   5
  -5  -3  17 8257.99 655.138   3
  -5  -3  16 3158.75 403.276   3
  -5  -3  16 2436.81 305.243   5
  -5  -3  15-13.6407 102.268   5
  -5  -3  15 255.169 139.129   3
  -5  -3  14 2014.06 270.733   5
  -5  -3  14 1851.24 311.032   3
   5   3 -13 1974.88 267.378   7
  -5  -3  13 1951.57 271.214   5
  -5  -3  13 1971.81 314.243   3
   5   3 -12 2738.85 315.994   7
  -5  -3  12 2677.04 303.066   5
  -5  -3  12 3173.93 381.211   3
   5   3 -11 203.759 125.575   7
   5   3 -11 318.712 145.188   2
  -5  -3  11 287.841 109.435   5
  -5  -3  11 366.828 158.482   3
   5   3 -10 1855.78 257.285   7
   5   3 -10 1492.64 266.382   2
  -5  -3  10 1912.91 260.368   5
   5   3  -9 25926.5 1102.11   2
   5   3  -9 25639.8 977.864   7
  -5  -3   9 27941.3 1014.70   5
   5   3  -8 3278.24 377.352   2
   5   3  -8 2333.86 284.612   7
  -5  -3   8 3313.00 357.736   5
   5   3  -7 9838.98 570.709   7
   5   3  -7 11663.8 711.696   2
   5   3  -6 9031.67 533.292   7
   5   3  -6 9032.84 634.185   2
   5   3  -6 9702.70 418.364   1
   5   3  -5 6907.92 460.015   7
   5   3  -5 6715.80 548.790   2
   5   3  -5 6860.52 351.640   1
   5   3  -4 14856.4 691.270   7
   5   3  -4 15665.7 857.394   2
   5   3  -4 16687.6 581.285   1
   5   3  -3 2241.63 267.432   7
   5   3  -3 2327.38 210.195   1
   5   3  -3 1457.05 260.322   2
   5   3  -2 437.476 105.015   1
   5   3  -2 484.182 137.481   7
   5   3  -2 421.840 82.9002   4
   5   3  -2 284.590 149.683   2
   5   3  -1 7590.63 462.674   7
   5   3  -1 6734.55 572.251   2
   5   3  -1 7044.66 387.939   1
   5   3  -1 6812.47 331.440   4
   5   3   0 13070.4 619.783   7
   5   3   0 12761.6 498.820   4
   5   3   0 14168.5 576.203   1
   5   3   0 11753.4 764.503   2
   5   3   1 367.161 141.762   2
   5   3   1 956.393 175.639   7
   5   3   1 1105.79 176.636   1
   5   3   1 780.895 131.942   4
   5   3   2 3898.55 323.939   7
   5   3   2 3527.29 281.051   4
   5   3   2 3246.40 405.640   2
   5   3   3 3564.63 292.750   4
   5   3   3 3635.60 432.654   2
   5   3   3 3345.47 305.003   7
   5   3   4 1616.78 214.848   7
   5   3   4 1231.35 264.066   2
   5   3   4 1419.36 199.356   4
   5   3   5 14876.8 643.141   7
   5   3   5 13675.7 644.248   4
   5   3   6 10580.6 581.421   4
   5   3   6 12195.5 575.867   7
   5   3   7 14422.3 625.509   7
   5   3   7 12712.4 665.701   4
   5   3   8 4247.78 392.267   4
   5   3   8 4419.25 336.622   7
   5   3   9 1881.40 212.288   7
   5   3   9 1884.54 275.515   4
   5   3  10 503.279 167.832   4
   5   3  11 5456.39 491.851   4
   5   3  12-30.7322 101.842   4
   5   3  13 325.319 166.804   4
   5   3  14 314.469 159.217   4
   5   3  15-35.7769 92.7182   4
   5   3  16 586.857 215.828   4
   5   3  17 123.573 123.303   4
   5   3  18-113.643 160.609   4
  -5  -4  19 310.032 155.960   3
  -5  -4  18 1214.18 266.399   3
  -5  -4  17 1554.85 310.591   3
  -5  -4  16 1383.12 292.519   3
   5   4 -15 1026.94 213.536   7
  -5  -4  15 1516.70 290.357   3
   5   4 -14 219.971 111.057   7
  -5  -4  14 740.947 230.296   3
   5   4 -13-97.5126 97.0142   7
  -5  -4  13 266.665 157.284   3
   5   4 -12 3053.79 346.979   7
  -5  -4  12 3782.74 435.074   3
   5   4 -11 173.382 89.4439   7
  -5  -4  11 11.6331 73.1029   5
   5   4 -10 1573.12 246.370   7
   5   4 -10 1861.42 292.905   2
  -5  -4  10 1840.95 240.905   5
   5   4  -9 261.068 110.419   7
   5   4  -9 235.477 117.314   2
  -5  -4   9 354.326 124.079   5
   5   4  -8 461.743 144.981   7
   5   4  -8 511.087 170.802   2
  -5  -4   8 271.164 116.918   5
   5   4  -7 8723.62 563.249   7
   5   4  -7 9480.27 664.245   2
   5   4  -6 5397.89 433.651   7
   5   4  -6 4510.63 462.892   2
   5   4  -5 299.008 126.149   7
   5   4  -5 156.163 113.152   2
   5   4  -4 5715.31 438.013   7
   5   4  -4 5909.86 540.168   2
   5   4  -4 6226.94 387.332   1
   5   4  -3 10751.9 606.137   7
   5   4  -3 10700.0 527.023   1
   5   4  -3 9818.13 704.266   2
   5   4  -2 2345.29 248.900   1
   5   4  -2 1933.80 318.166   2
   5   4  -2 2460.65 285.862   7
   5   4  -1 17055.1 762.099   7
   5   4  -1 16270.5 942.756   2
   5   4  -1 17517.4 711.957   1
   5   4   0 11836.8 623.361   7
   5   4   0 11786.7 506.936   4
   5   4   0 11542.9 793.787   2
   5   4   0 12035.2 588.073   1
   5   4   1 537.431 178.529   2
   5   4   1 689.302 157.803   1
   5   4   1 606.250 164.165   7
   5   4   1 659.464 137.135   4
   5   4   2 9784.44 554.021   7
   5   4   2 10055.6 556.818   1
   5   4   2 10583.7 520.119   4
   5   4   2 10368.1 760.776   2
   5   4   3-8.67674 106.467   2
   5   4   3 95.9468 101.167   7
   5   4   3 15.6891 93.6204   4
   5   4   4 12008.5 612.810   7
   5   4   4 12184.6 600.617   4
   5   4   4 12160.4 851.226   2
   5   4   5 5485.06 405.122   7
   5   4   5 4709.21 381.720   4
   5   4   5 4543.02 537.571   2
   5   4   6 357.786 115.305   4
   5   4   6 462.641 127.163   7
   5   4   7 4110.77 347.663   7
   5   4   7 4071.25 382.819   4
   5   4   8 21.8863 76.4635   7
   5   4   8 78.1850 104.832   4
   5   4   9 137.520 86.3308   4
   5   4  10 336.024 141.233   4
   5   4  11 560.964 183.590   4
   5   4  12 787.790 210.873   4
   5   4  13 28.7057 98.8335   4
   5   4  14 273.051 155.315   4
   5   4  15-158.004 123.308   4
   5   4  16 466.336 209.371   4
   5   5 -17 156.920 138.957   7
  -5  -5  17 695.607 230.409   3
   5   5 -16 299.179 142.313   7
  -5  -5  16 846.846 246.710   3
   5   5 -15 1090.36 234.932   7
  -5  -5  15 1318.12 283.313   3
   5   5 -14 132.319 101.213   7
  -5  -5  14 239.378 145.268   3
   5   5 -13-47.2762 105.109   7
  -5  -5  13-162.172 177.958   3
   5   5 -12 146.359 112.065   7
   5   5 -11 1947.77 294.873   7
   5   5 -10 343.786 144.321   7
   5   5 -10 342.256 150.046   2
   5   5  -9-47.4863 87.1596   7
   5   5  -9-10.0672 111.292   2
   5   5  -8 467.536 140.154   7
   5   5  -8 318.692 142.100   2
   5   5  -7 209.344 113.038   7
   5   5  -7 102.000 107.339   2
   5   5  -6 1826.30 277.737   7
   5   5  -6 1558.37 286.204   2
   5   5  -5 675.976 176.218   7
   5   5  -5 813.558 213.304   2
   5   5  -4 5148.84 441.881   7
   5   5  -4 4542.83 496.279   2
   5   5  -3 356.348 118.824   1
   5   5  -3 261.493 136.590   2
   5   5  -2 5784.68 467.327   7
   5   5  -2 7364.37 649.357   2
   5   5  -2 7066.94 471.200   1
   5   5  -1 16760.7 792.072   7
   5   5  -1 17315.6 1012.72   2
   5   5  -1 16568.7 745.721   1
   5   5   0 528.412 158.291   1
   5   5   0 422.220 151.783   7
   5   5   0 201.264 160.678   2
   5   5   1 991.550 251.549   2
   5   5   1 613.408 156.181   1
   5   5   1 824.624 170.104   7
   5   5   2 1038.84 195.193   1
   5   5   2 673.362 221.441   2
   5   5   2 1038.54 191.012   7
   5   5   3 1732.00 258.263   1
   5   5   3 1742.74 343.795   2
   5   5   3 1840.89 254.009   7
   5   5   3 1390.50 206.098   4
   5   5   4-57.0839 91.4860   7
   5   5   4 180.639 119.716   1
   5   5   4 42.2415 73.8578   4
   5   5   5 2741.37 300.646   7
   5   5   5 2738.29 434.647   2
   5   5   5 2344.30 279.254   4
   5   5   6 1083.87 198.189   7
   5   5   6 996.043 268.969   2
   5   5   6 1048.24 201.963   4
   5   5   7 488.674 143.857   7
   5   5   7 293.681 105.333   4
   5   5   8-8.28907 76.4071   7
   5   5   8 63.7324 110.250   4
   5   5   9 82.5850 98.4329   4
   5   5  10 52.6583 89.7508   4
   5   5  11 214.074 117.164   4
   5   5  12 239.457 176.683   4
   5   5  13 3136.44 436.523   4
   5   5  14 1010.54 285.231   4
   5   5  15 1040.67 269.466   4
   5   6 -17-50.6354 95.3785   7
   5   6 -16 892.883 236.538   7
   5   6 -15-16.3885 107.963   7
  -5  -6  15-16.4733 118.096   3
   5   6 -14 2027.16 327.381   7
  -5  -6  14 2813.42 415.347   3
   5   6 -13-107.524 136.095   7
  -5  -6  13-9.74535 149.387   3
   5   6 -12 1343.31 266.182   7
   5   6 -11 1558.88 280.210   7
   5   6 -10 1341.12 263.756   7
   5   6  -9-30.9028 96.2696   7
   5   6  -8-141.834 125.628   7
   5   6  -7 1848.65 280.324   7
   5   6  -6 2049.12 301.452   7
   5   6  -5 2015.83 304.802   7
   5   6  -4 6400.40 521.842   7
   5   6  -4 6767.16 631.749   2
   5   6  -3-73.7437 154.700   2
   5   6  -3 439.119 175.746   7
   5   6  -2 1306.62 242.229   7
   5   6  -2 1444.37 312.203   2
   5   6  -1 2191.61 286.302   1
   5   6  -1 2154.28 298.634   7
   5   6  -1 2651.34 405.471   2
   5   6   0-32.3280 72.6578   1
   5   6   0-41.1243 76.0306   7
   5   6   0 183.005 137.148   2
   5   6   1 117.629 89.7139   1
   5   6   1 128.863 97.0901   7
   5   6   1 93.2453 109.890   2
   5   6   2 291.516 151.033   2
   5   6   2 370.328 137.654   1
   5   6   2 379.771 142.088   7
   5   6   3 880.139 206.050   1
   5   6   3 618.276 221.993   2
   5   6   3 811.551 189.161   7
   5   6   4 2972.31 474.144   2
   5   6   4 2929.49 334.386   7
   5   6   4 3149.04 369.169   1
   5   6   5 937.216 272.202   2
   5   6   5 491.456 149.324   7
   5   6   6 1035.90 282.088   2
   5   6   6 1251.03 247.776   7
   5   6   6 806.840 186.540   4
   5   6   7 824.241 261.772   2
   5   6   7 552.016 139.486   7
   5   6   7 396.290 136.752   4
   5   6   8-460.679 216.937   2
   5   6   8 176.592 118.051   4
   5   6   9 50.0805 90.5198   4
   5   6  10 1494.36 273.057   4
   5   6  11-26.0678 122.593   4
   5   6  12 1038.20 265.999   4
   5   6  13 3078.61 440.079   4
   5   7 -11 131.014 137.366   7
   5   7 -10 5910.62 556.903   7
   5   7  -9 670.191 202.607   7
   5   7  -8-80.5156 119.211   7
   5   7  -7 288.359 177.108   7
   5   7  -6 5108.16 502.001   7
   5   7  -5 2170.02 323.565   7
   5   7  -4 4548.25 471.567   7
   5   7  -3 689.116 206.626   7
   5   7  -2 6885.68 565.187   7
   5   7  -1 1468.86 268.762   7
   5   7   0 246.734 134.595   7
   5   7   1 826.953 196.944   7
   5   7   2 32.5464 72.4790   1
   5   7   2 174.219 110.768   7
   5   7   3 84.9987 110.703   1
   5   7   3-27.2207 106.427   7
   5   7   4-19.6735 104.643   1
   5   7   4 28.6248 78.8746   7
   5   7   5 155.171 109.623   7
   5   7   5-14.5829 84.2814   1
   5   7   6 531.635 169.489   7
   5   8   1 267.968 140.378   7
   5   8   2 704.340 203.286   7
   5   8   3 1561.91 279.738   7
   5   8   4-122.244 132.346   7
  -6  12   7 704.322 270.834   1
  -6  12   6 359.976 194.896   1
  -6  12   5 700.136 256.678   1
  -6  12   4-55.8573 131.280   1
  -6  12   3 686.914 278.733   1
   6 -12  -3 945.360 293.623   4
  -6  12   2 69.5395 147.036   1
   6 -12  -2 724.883 284.360   4
  -6  12   1 295.274 193.009   1
   6 -12  -1 364.862 197.219   4
  -6  12   0 4244.26 614.046   1
   6 -12   0 4459.97 614.116   4
  -6  12  -1 3814.86 606.871   1
   6 -12   1 3393.38 527.385   4
   6 -12   2 4221.39 575.088   4
   6 -12   3 1823.89 354.454   4
   6 -12   4-79.6488 154.226   4
   6 -12   5 291.827 221.089   4
   6 -12   6 177.155 204.079   4
   6 -12   7 135.499 164.850   4
   6 -12   8 115.206 130.658   4
   6 -12   9 33.8981 136.513   4
   6 -12  10-27.0247 169.518   4
  -6  11  12-142.807 99.2522   1
  -6  11  11-347.376 180.731   1
  -6  11  10-74.2767 123.295   1
  -6  11   9 297.537 187.412   1
  -6  11   8-96.2680 149.484   1
  -6  11   7 189.251 146.195   1
  -6  11   6-116.211 177.753   1
  -6  11   5 615.067 236.877   1
  -6  11   4-26.0782 147.345   1
   6 -11  -4-79.4352 123.804   4
  -6  11   3 179.345 148.236   1
   6 -11  -3 71.4910 142.856   4
  -6  11   2 1621.60 364.196   1
   6 -11  -2 1341.41 314.735   4
  -6  11   1 1101.85 298.355   1
   6 -11  -1 1153.13 299.416   4
   6 -11   0 846.365 266.464   4
   6 -11   1 1584.93 342.587   4
   6 -11   2-0.24937 154.550   4
   6 -11   3 659.313 240.708   4
   6 -11   4 2203.50 407.536   4
   6 -11   5-64.0602 164.874   4
   6 -11   6-118.503 115.964   4
   6 -11   7 1001.46 272.592   4
   6 -11   8 439.948 207.426   4
   6 -11   9 586.331 245.287   4
   6 -11  10-116.522 164.955   4
   6 -11  11 153.040 163.048   4
   6 -11  12 469.068 237.203   4
   6 -11  13 1164.30 335.054   4
   6 -11  14 1013.68 290.670   4
  -6  10  16-14.3245 86.5569   1
  -6  10  15 54.2703 122.186   1
  -6  10  14 80.1244 112.831   1
  -6  10  13-34.5713 98.7040   1
  -6  10  12 174.636 128.253   1
  -6  10  11 3387.39 447.188   1
  -6  10  10-72.6971 112.159   1
  -6  10   9 1157.73 266.545   1
  -6  10   8 897.274 257.958   1
  -6  10   7 212.065 151.065   1
  -6  10   6 2298.25 385.059   1
  -6  10   5 572.337 195.062   1
   6 -10  -5 782.346 238.577   4
  -6  10   4 3350.36 481.421   1
   6 -10  -4 3329.21 484.963   4
  -6  10   3-87.3741 142.535   1
   6 -10  -3-107.483 131.828   4
   6 -10  -2 1695.07 345.988   4
  -6  10   2 2376.72 404.233   1
   6 -10  -1 2134.72 384.747   4
   6 -10   0 195.628 144.333   4
   6 -10   1 1314.59 291.046   4
   6 -10   2-41.9732 154.440   4
   6 -10   3 44.6235 137.459   4
   6 -10   4 2355.06 402.873   4
   6 -10   5 2731.68 445.827   4
   6 -10   6 2376.40 407.523   4
   6 -10   7 381.119 158.352   4
   6 -10   8 3520.30 515.159   4
   6 -10   9 2499.25 444.424   4
   6 -10  10 2376.44 430.502   4
   6 -10  11 206.974 159.751   4
   6 -10  12 1439.09 343.438   4
   6 -10  13 2541.24 457.234   4
   6 -10  14-181.619 164.416   4
   6 -10  15 521.265 290.362   4
   6 -10  16-20.9819 209.895   4
  -6   9  18-142.358 147.167   5
  -6   9  17-112.264 110.616   1
  -6   9  17 37.5151 106.728   5
  -6   9  16 77.2940 102.893   1
  -6   9  16-274.994 155.781   5
  -6   9  15 62.9981 120.797   1
  -6   9  15-10.7778 106.822   5
  -6   9  14-152.105 116.079   1
  -6   9  14 110.453 101.017   5
  -6   9  13 107.893 129.597   1
  -6   9  13 12.1668 116.978   5
  -6   9  12 1232.13 264.785   1
  -6   9  12 1676.04 277.973   5
  -6   9  11 74.4074 118.022   5
  -6   9  11 225.308 149.520   1
  -6   9  10-156.324 134.766   5
  -6   9  10-98.3686 113.264   1
  -6   9   9 324.831 147.682   1
  -6   9   9 405.576 158.685   5
  -6   9   8 325.597 124.976   1
  -6   9   8 511.005 172.915   5
  -6   9   7 338.160 155.491   1
  -6   9   7 470.516 137.819   5
  -6   9   6 186.991 124.694   5
   6  -9  -6-22.9380 125.458   4
  -6   9   6 117.085 121.894   1
  -6   9   5 5886.81 462.987   5
   6  -9  -5 4455.04 518.183   4
  -6   9   5 5320.95 561.947   1
  -6   9   4 826.946 225.741   1
  -6   9   4 762.447 172.165   5
   6  -9  -4 681.634 228.047   4
  -6   9   3 2048.14 354.908   1
  -6   9   3 1621.20 236.627   5
   6  -9  -3 2410.41 382.741   4
  -6   9   2 5446.06 419.609   5
   6  -9  -2 4121.45 492.874   4
  -6   9   1 5189.94 410.550   5
   6  -9  -1 4984.03 545.227   4
  -6   9   0 613.865 150.641   5
   6  -9   0 579.660 171.164   4
  -6   9  -1 319.344 112.689   5
   6  -9   1 240.316 139.054   4
   6  -9   2-88.4281 128.328   4
   6  -9   3 1450.14 332.614   4
   6  -9   4 2259.81 384.005   4
   6  -9   5 1660.05 322.443   4
   6  -9   6 2498.44 399.659   4
   6  -9   7 1062.73 275.661   4
   6  -9   8 2356.88 401.357   4
   6  -9   9-47.3436 114.524   4
   6  -9  10 2207.41 391.056   4
   6  -9  11 2921.41 463.183   4
   6  -9  12 284.370 185.451   4
   6  -9  13-48.0811 131.174   4
   6  -9  14-66.8992 154.419   4
   6  -9  15 227.765 153.515   4
   6  -9  16 142.563 157.789   4
   6  -9  17 441.309 223.515   4
   6  -9  18-139.300 134.930   4
  -6   8  19 288.489 179.028   5
  -6   8  19 64.7449 112.359   4
  -6   8  18 7.77341 126.571   5
  -6   8  17 430.926 192.212   5
  -6   8  16 397.768 155.639   1
  -6   8  16 377.214 183.073   5
  -6   8  15 384.070 151.135   1
  -6   8  15 310.880 164.475   5
  -6   8  14 126.070 109.969   1
  -6   8  14-127.907 144.033   5
  -6   8  13 329.252 138.274   1
  -6   8  13 59.0236 105.899   5
  -6   8  12 190.405 123.881   1
  -6   8  12-47.2129 133.994   5
  -6   8  11 5387.12 485.103   5
  -6   8  11 4861.40 468.979   1
  -6   8  10 1140.54 222.286   5
  -6   8  10 777.463 194.558   1
  -6   8   9 2574.50 339.536   1
  -6   8   9 2728.88 340.364   5
  -6   8   8 5695.78 480.384   5
  -6   8   8 5195.07 485.442   1
  -6   8   7 378.413 132.128   1
  -6   8   7 807.090 203.983   5
  -6   8   6 5635.16 462.262   5
   6  -8  -6 4760.68 508.835   4
  -6   8   6 5029.11 497.373   1
  -6   8   5 9363.64 593.206   5
   6  -8  -5 9563.31 702.847   4
  -6   8   5 9452.29 676.620   1
  -6   8   4 1842.71 260.908   5
  -6   8   4 1658.19 281.405   1
   6  -8  -4 1498.01 293.334   4
  -6   8   3 680.296 174.606   5
   6  -8  -3 181.359 171.384   4
  -6   8   2 34381.7 1165.11   5
   6  -8  -2 30500.7 1347.75   4
  -6   8   1 8583.59 545.430   5
   6  -8  -1 8771.23 692.006   4
   6  -8   0 2630.21 379.584   4
   6  -8   1 4525.72 503.256   4
   6  -8   2 196.481 128.164   4
   6  -8   3 3232.55 430.351   4
   6  -8   4 3198.99 420.041   4
   6  -8   5 428.203 171.240   4
   6  -8   6 1157.20 269.712   4
   6  -8   7-35.3255 149.860   4
   6  -8   8 5702.12 590.573   4
   6  -8   9 1223.31 307.520   4
   6  -8  10 9338.54 773.143   4
   6  -8  11 7015.00 686.786   4
   6  -8  12 3550.37 492.112   4
   6  -8  13-44.2986 122.680   4
   6  -8  14 417.747 206.437   4
   6  -8  15 453.533 195.804   4
   6  -8  16 704.427 253.899   4
   6  -8  17-158.906 197.497   4
   6  -8  18-12.0153 114.701   4
   6  -8  19-5.66799 149.608   4
  -6   7  21 559.916 183.561   4
  -6   7  20 331.719 146.941   4
  -6   7  19-28.5124 115.518   5
  -6   7  19-165.671 124.659   4
  -6   7  18 68.6322 114.626   5
  -6   7  17 1230.23 276.271   5
  -6   7  16-23.5821 129.940   5
  -6   7  15 498.242 164.175   1
  -6   7  15 189.815 123.441   5
  -6   7  14-12.2833 96.4559   1
  -6   7  14-93.5222 125.205   5
  -6   7  13 4457.49 420.197   1
  -6   7  13 4954.49 483.219   5
  -6   7  12 3463.53 401.545   5
  -6   7  12 3464.02 370.465   1
  -6   7  11 10583.1 681.658   5
  -6   7  11 9469.68 609.013   1
  -6   7  10 3672.76 401.939   5
  -6   7  10 3491.70 366.282   1
  -6   7   9 1408.20 232.074   1
  -6   7   9 1330.80 238.017   5
  -6   7   8 2018.22 277.982   1
  -6   7   8 1509.02 255.023   5
  -6   7   7 6071.59 491.752   5
  -6   7   7 5129.67 447.407   1
   6  -7  -7 5369.73 501.487   4
  -6   7   6 440.528 155.673   1
  -6   7   6 103.981 98.0775   5
   6  -7  -6 168.812 107.383   4
  -6   7   5 280.281 127.855   1
  -6   7   5 226.836 122.283   5
   6  -7  -5 419.837 154.334   4
  -6   7   4 17.9079 93.3529   1
  -6   7   4 55.0811 94.2460   5
   6  -7  -4-12.7987 98.3003   4
  -6   7   3-50.7427 107.034   5
   6  -7  -3 129.832 134.477   4
   6  -7  -2 472.046 160.299   4
   6  -7  -1 1639.55 189.656   2
   6  -7  -1 1745.58 298.521   4
   6  -7   0 11107.0 512.459   2
   6  -7   0 11951.1 758.969   4
   6  -7   1 28260.2 873.631   2
   6  -7   1 28028.5 1217.92   4
   6  -7   2 3889.42 294.364   2
   6  -7   2 4085.69 446.609   4
   6  -7   3-57.8108 107.271   4
   6  -7   3 22.6787 49.2323   2
   6  -7   4 60.5388 114.942   4
   6  -7   4 71.6910 53.0228   2
   6  -7   5 7815.56 462.175   2
   6  -7   5 8466.52 654.201   4
   6  -7   6 4250.63 346.894   2
   6  -7   6 4023.43 459.640   4
   6  -7   7 5852.16 426.977   2
   6  -7   7 6668.37 592.604   4
   6  -7   8-41.4902 79.9865   2
   6  -7   8 62.2716 132.722   4
   6  -7   9 8458.77 565.027   2
   6  -7   9 7383.97 654.481   4
   6  -7  10 579.746 206.845   4
   6  -7  11 6604.99 634.138   4
   6  -7  12-191.080 181.509   4
   6  -7  13 1310.78 300.796   4
   6  -7  14 965.884 290.893   4
   6  -7  15 108.735 163.813   4
   6  -7  16 548.279 222.001   4
   6  -7  17 0.25761 119.968   4
   6  -7  18 524.627 240.692   4
   6  -7  19 1132.91 320.977   4
   6  -7  20 829.665 291.931   4
  -6   6  20 231.128 169.004   5
  -6   6  20 346.806 138.997   4
  -6   6  19 289.967 172.793   5
  -6   6  19 336.103 140.194   4
  -6   6  18 705.199 218.760   5
  -6   6  18 990.129 230.827   4
  -6   6  17 698.112 218.720   5
  -6   6  16 439.371 184.591   5
  -6   6  15 2132.35 328.700   5
  -6   6  14 5650.16 441.922   1
  -6   6  14 4876.97 490.225   5
  -6   6  13-0.76408 101.895   1
  -6   6  13 54.0818 120.092   5
  -6   6  12 2620.52 295.242   1
  -6   6  12 2584.01 359.916   5
  -6   6  11 6628.27 460.479   1
  -6   6  11 5974.35 518.356   5
  -6   6  10 6456.33 531.303   5
  -6   6  10 6410.04 461.657   1
  -6   6   9 4597.18 443.720   5
  -6   6   9 4312.40 368.464   1
  -6   6   8 629.565 146.628   1
  -6   6   8 767.358 203.003   5
  -6   6   7 245.082 96.4046   1
  -6   6   7 203.608 115.177   5
   6  -6  -7 295.545 120.408   4
  -6   6   6 6857.91 533.529   5
   6  -6  -6 7367.12 558.396   4
  -6   6   6 6305.76 469.048   1
  -6   6   5 3209.58 348.734   5
   6  -6  -5 3233.16 355.864   4
  -6   6   5 3272.91 338.216   1
  -6   6   4 8016.89 548.291   5
   6  -6  -4 8170.35 576.173   4
   6  -6  -3 1769.15 221.918   2
   6  -6  -3 1860.81 282.584   4
   6  -6  -2 5443.55 378.242   2
   6  -6  -2 5990.54 496.096   4
   6  -6  -1 1189.45 235.403   4
   6  -6  -1 1140.29 166.793   2
   6  -6   0 19111.9 730.476   2
   6  -6   0 17773.4 446.419   3
   6  -6   0 19482.3 921.739   4
   6  -6   1 1502.04 263.537   4
   6  -6   1 1794.26 215.085   2
   6  -6   1 1180.65 80.9071   3
   6  -6   2 4947.42 369.727   2
   6  -6   2 4885.21 450.984   4
   6  -6   3 2958.64 288.693   2
   6  -6   3 3081.98 384.283   4
   6  -6   4 1004.58 208.745   4
   6  -6   4 986.232 178.088   2
   6  -6   5 13914.7 689.793   2
   6  -6   5 13614.3 806.254   4
   6  -6   6 696.624 157.546   2
   6  -6   6 617.822 189.823   4
   6  -6   7 1518.60 275.556   4
   6  -6   7 1520.33 237.165   2
   6  -6   8 1005.80 228.840   4
   6  -6   8 993.900 209.207   2
   6  -6   9 1626.86 306.727   4
   6  -6  10 3030.26 408.674   4
   6  -6  11 963.895 257.450   4
   6  -6  12 865.715 247.609   4
   6  -6  13 799.116 238.092   4
   6  -6  14 65.4757 125.115   4
   6  -6  15 12191.9 903.550   4
   6  -6  16 278.922 176.063   4
   6  -6  17 1455.54 348.307   4
   6  -6  18 1799.86 373.197   4
   6  -6  19 295.833 179.433   4
   6  -6  20 1500.42 371.865   4
   6  -6  21 507.073 259.888   4
  -6   5  21 702.417 230.079   5
  -6   5  20 195.797 173.409   5
  -6   5  19 1473.42 304.779   5
  -6   5  18 518.849 201.914   5
  -6   5  18 703.328 179.790   4
  -6   5  17 7083.10 606.238   5
  -6   5  17 7418.47 524.201   4
  -6   5  16 1265.67 263.057   5
  -6   5  15 856.976 230.352   5
  -6   5  14 3115.57 401.258   5
  -6   5  13 5201.45 492.353   5
  -6   5  12 354.285 107.217   1
  -6   5  12-82.3132 124.183   5
  -6   5  11 1339.62 191.276   1
  -6   5  11 1087.74 245.711   5
  -6   5  10 671.976 136.196   1
  -6   5  10 810.137 205.948   5
  -6   5   9 1494.69 197.232   1
  -6   5   9 1449.71 261.205   5
  -6   5   8 3191.14 368.617   5
  -6   5   8 3990.51 312.091   1
  -6   5   7 612.235 122.034   1
  -6   5   7 552.623 158.970   5
   6  -5  -7 412.916 128.351   4
  -6   5   6 188.993 92.9685   1
  -6   5   6 273.773 100.976   5
   6  -5  -6 302.313 119.038   4
   6  -5  -5 2221.48 262.964   2
  -6   5   5 1830.80 270.660   5
   6  -5  -5 1732.44 244.510   4
  -6   5   5 1770.18 216.798   1
   6  -5  -4 99.2993 62.1766   2
   6  -5  -4 152.481 88.0034   4
   6  -5  -3 10384.6 557.159   2
   6  -5  -3 9640.53 586.518   4
   6  -5  -2 1897.64 266.605   4
   6  -5  -2 2184.63 249.041   2
   6  -5  -1 12013.6 608.731   2
   6  -5  -1 13594.1 714.085   4
   6  -5   0 1270.80 225.532   4
   6  -5   0 990.791 170.781   2
   6  -5   1 1730.34 264.906   4
   6  -5   1 2152.04 257.813   2
   6  -5   2 21627.4 877.776   2
   6  -5   2 23051.2 967.065   4
   6  -5   3 18155.0 810.728   2
   6  -5   3 18668.9 879.031   4
   6  -5   4 113.302 84.4869   2
   6  -5   4 81.1918 122.997   4
   6  -5   5 15629.7 794.912   2
   6  -5   5 14996.1 800.379   4
   6  -5   6 76.6164 101.420   4
   6  -5   6 385.472 144.271   2
   6  -5   7 5258.32 481.976   2
   6  -5   7 6069.18 520.227   4
   6  -5   8 3747.87 426.978   4
   6  -5   9 4042.49 445.305   4
   6  -5  10 4358.72 464.218   4
   6  -5  11 429.258 155.773   4
   6  -5  12 7491.06 644.907   4
   6  -5  13 2240.42 372.242   4
   6  -5  14 6215.97 607.710   4
   6  -5  15 1457.62 326.395   4
   6  -5  16 593.635 236.565   4
   6  -5  17 12780.9 946.659   4
   6  -5  18 1602.17 346.275   4
   6  -5  19 320.606 194.233   4
   6  -5  20 399.392 196.858   4
   6  -5  21 300.148 205.509   4
  -6   4  21 264.932 199.046   5
  -6   4  20 3103.08 434.581   5
  -6   4  19 161.658 173.928   5
  -6   4  18 607.639 198.909   5
  -6   4  17 16.3153 103.994   5
  -6   4  17 180.888 91.7984   4
  -6   4  16 246.392 168.023   5
  -6   4  16 52.6971 80.1234   4
  -6   4  15 630.794 198.627   5
  -6   4  15 869.638 166.744   4
  -6   4  14 289.800 171.249   5
  -6   4  13 950.122 226.625   5
  -6   4  12 57.9201 103.023   5
  -6   4  11-143.272 122.949   5
  -6   4  10 2157.85 198.873   1
  -6   4  10 1453.93 252.825   5
  -6   4   9 2332.82 204.305   1
  -6   4   9 2189.77 306.467   5
  -6   4   8 4824.09 440.991   5
  -6   4   8 5176.36 308.240   1
   6  -4  -7 53.0987 79.5457   2
  -6   4   7-124.237 141.096   5
   6  -4  -7 93.0562 79.2780   4
   6  -4  -6 5658.79 433.883   2
  -6   4   6 5061.34 452.368   5
  -6   4   6 5229.30 309.964   1
   6  -4  -6 5492.61 386.930   4
   6  -4  -5 486.336 142.057   2
  -6   4   5 306.703 82.5410   1
   6  -4  -5 197.111 93.9542   4
   6  -4  -4 14963.2 718.566   2
   6  -4  -4 16120.5 701.982   4
   6  -4  -3 34701.1 1154.47   2
   6  -4  -3 36156.8 1129.29   4
   6  -4  -2 97.2076 81.9125   4
   6  -4  -2-108.987 113.582   2
   6  -4  -1 20406.0 866.624   2
   6  -4  -1 22201.0 855.891   4
   6  -4   0 15426.4 751.268   2
   6  -4   0 16189.7 730.542   4
   6  -4   1 4768.19 415.689   2
   6  -4   1 5524.51 426.345   4
   6  -4   2 13168.9 705.104   2
   6  -4   2 12223.3 657.733   4
   6  -4   3 10395.7 637.342   2
   6  -4   3 10027.9 592.305   4
   6  -4   4 7161.05 536.622   2
   6  -4   4 6127.82 473.954   4
   6  -4   5 38.1127 80.1428   2
   6  -4   5-48.4644 105.758   4
   6  -4   6 26205.0 1117.31   2
   6  -4   6 26021.3 1042.40   4
   6  -4   7 571.254 189.153   4
   6  -4   8 7243.66 554.597   4
   6  -4   9 1490.21 264.483   4
   6  -4  10 138.094 99.1264   4
   6  -4  11 11362.9 748.579   4
   6  -4  12 73.0838 117.966   4
   6  -4  13 418.477 158.640   4
   6  -4  14 12502.9 845.156   4
   6  -4  15 6227.89 615.698   4
   6  -4  16 3655.99 495.550   4
   6  -4  17 6722.17 660.155   4
   6  -4  18 1970.07 369.634   4
   6  -4  19 79.6091 133.049   4
   6  -4  20 150.520 179.173   4
   6  -4  21-405.214 244.764   4
  -6   3  22 186.111 132.031   5
  -6   3  21 1690.44 326.306   5
  -6   3  20 180.920 128.954   5
  -6   3  19 17.6327 134.797   5
  -6   3  18 834.390 217.098   5
  -6   3  17 166.568 141.830   5
  -6   3  16 36.6590 119.716   5
  -6   3  15-171.710 156.950   5
  -6   3  14 6811.78 391.049   4
  -6   3  14 5729.71 514.710   5
  -6   3  13 5022.85 470.613   5
  -6   3  12-140.724 162.591   5
  -6   3  11 1083.23 225.260   5
  -6   3  10 105.951 64.3504   3
  -6   3  10 325.360 148.774   5
  -6   3   9 363.053 95.9584   3
  -6   3   9 404.346 149.529   5
   6  -3  -8 3507.01 368.076   2
  -6   3   8 2629.14 336.696   5
  -6   3   8 3367.73 269.612   3
   6  -3  -7 2504.10 302.140   2
  -6   3   7 2334.49 146.180   1
  -6   3   7 2321.22 301.968   5
  -6   3   7 2642.16 231.354   3
   6  -3  -6 1470.74 238.553   2
  -6   3   6 1070.82 102.953   1
  -6   3   6 1291.46 156.468   3
   6  -3  -6 1458.08 178.188   4
   6  -3  -5 5550.83 444.920   2
  -6   3   5 5285.49 252.614   1
   6  -3  -5 5886.55 359.145   4
  -6   3   5 5973.86 315.310   3
  -6   3   4 153.307 61.7368   3
   6  -3  -4 182.076 107.892   2
   6  -3  -4 281.097 97.3568   4
   6  -3  -3 10754.8 641.400   2
   6  -3  -3 12320.5 554.095   4
  -6   3   3 10227.8 395.428   3
   6  -3  -2 2127.33 282.449   2
  -6   3   2 2019.78 154.406   3
   6  -3  -2 2000.01 230.534   4
   6  -3  -1 31243.9 1147.25   2
  -6   3   1 30737.0 712.858   3
   6  -3  -1 32118.1 995.682   4
   6  -3   0 4201.35 401.717   2
  -6   3   0 3931.99 196.158   3
   6  -3   0 4314.72 345.184   4
   6  -3   1 5198.35 454.169   2
  -6   3  -1 4633.45 203.739   3
   6  -3   1 4968.90 377.186   4
   6  -3   2 2129.93 292.934   2
  -6   3  -2 2105.61 128.814   3
   6  -3   2 2497.31 269.314   4
   6  -3   3 5482.70 472.995   2
   6  -3   3 5404.08 406.403   4
   6  -3   4 325.349 132.554   2
   6  -3   4 334.683 103.778   4
   6  -3   5 31.2243 104.840   2
   6  -3   5-55.4986 70.8676   4
   6  -3   6 9152.82 579.457   4
   6  -3   7-27.5263 95.1118   4
   6  -3   8 50590.3 1555.14   4
   6  -3   9 980.484 219.682   4
   6  -3  10 448.378 160.693   4
   6  -3  11 6210.61 546.426   4
   6  -3  12 370.873 171.935   4
   6  -3  13 6153.33 556.821   4
   6  -3  14 4236.87 503.773   4
   6  -3  15 2016.49 350.833   4
   6  -3  16 6487.85 623.973   4
   6  -3  17 405.638 189.979   4
   6  -3  18 3322.17 470.531   4
   6  -3  19 50.1369 151.157   4
   6  -3  20 212.163 198.599   4
   6  -3  21 573.808 274.043   4
  -6   2  22 1260.17 292.767   5
  -6   2  21 1152.66 273.368   5
  -6   2  20 494.029 176.560   5
  -6   2  19-0.34380 99.5582   5
  -6   2  18-18.4871 117.069   5
  -6   2  17 513.038 172.513   5
  -6   2  16-211.697 170.982   5
  -6   2  15 1001.14 202.828   3
  -6   2  15 1140.21 244.969   5
  -6   2  14 801.448 176.857   3
  -6   2  14 670.553 209.069   5
  -6   2  13 877.688 176.880   3
  -6   2  13 735.747 191.311   5
  -6   2  12 17846.2 895.354   5
  -6   2  12 17969.4 769.713   3
  -6   2  11 11439.0 406.813   4
  -6   2  11 12237.5 721.539   5
  -6   2  11 11319.3 583.012   3
  -6   2  10 3567.77 400.276   5
  -6   2  10 4075.93 330.451   3
   6  -2  -9 10453.8 651.071   2
  -6   2   9 10846.1 666.579   5
  -6   2   9 9453.00 494.963   3
  -6   2   8 81.8121 65.5808   3
   6  -2  -8 158.202 115.158   2
  -6   2   8-94.0017 140.212   5
  -6   2   7 771.520 133.061   3
   6  -2  -7 1143.43 212.269   2
   6  -2  -6 5944.84 304.638   4
  -6   2   6 5772.98 344.198   3
   6  -2  -6 5031.33 438.699   2
  -6   2   5-50.8133 53.6925   3
   6  -2  -5-36.5152 95.0838   2
   6  -2  -5 154.890 59.5041   4
   6  -2  -4 1980.83 284.300   2
  -6   2   4 1571.37 167.271   3
   6  -2  -4 1411.17 156.311   4
   6  -2  -3 174.273 58.9028   4
   6  -2  -3 426.097 129.501   2
  -6   2   3 338.853 83.1037   3
   6  -2  -2 2794.41 332.082   2
  -6   2   2 2707.76 208.034   3
   6  -2  -2 2797.64 238.179   4
   6  -2  -1 5415.66 468.208   2
   6  -2  -1 6492.69 381.234   4
   6  -2   0 5664.65 482.099   2
   6  -2   0 5689.52 369.292   4
   6  -2   1 1581.78 279.011   2
   6  -2   1 1512.39 192.992   4
   6  -2   2 1502.57 265.546   2
   6  -2   2 1587.27 202.424   4
   6  -2   3 1437.03 253.620   2
   6  -2   3 1279.17 193.192   4
   6  -2   4 1051.61 229.999   2
   6  -2   4 729.019 158.992   4
   6  -2   5 1249.30 246.752   2
   6  -2   5 1212.30 196.461   4
   6  -2   6 1252.69 209.580   4
   6  -2   7 421.048 126.717   4
   6  -2   8 264.600 135.994   4
   6  -2   9 36.4836 91.6902   4
   6  -2  10 1292.51 234.377   4
   6  -2  11 3079.73 369.274   4
   6  -2  12 23.1539 117.526   4
   6  -2  13 3871.81 437.955   4
   6  -2  14 654.195 200.901   4
   6  -2  15 1738.70 324.482   4
   6  -2  16 117.774 135.897   4
   6  -2  17 159.229 119.995   4
   6  -2  18 2631.20 452.722   4
   6  -2  19 658.233 231.558   4
   6  -2  20 1123.91 312.957   4
   6  -2  21 212.711 197.998   4
  -6   1  23 44.6113 122.866   5
  -6   1  22 1197.66 282.260   5
  -6   1  21 131.862 136.284   5
  -6   1  20 1319.50 278.615   5
  -6   1  19-408.101 161.524   3
  -6   1  19 84.4449 113.435   5
  -6   1  18 956.696 225.801   3
  -6   1  18 1145.00 252.422   5
  -6   1  17 1645.92 273.148   3
  -6   1  17 2592.92 358.608   5
  -6   1  16-137.215 126.547   3
  -6   1  16 15.0980 108.456   5
  -6   1  15 6338.50 537.607   5
  -6   1  15 6344.92 495.014   3
  -6   1  14 145.375 94.0519   3
  -6   1  14 216.080 141.841   5
  -6   1  13 92.8050 91.0075   3
  -6   1  13 143.201 116.774   5
  -6   1  12 8783.87 625.243   5
  -6   1  12 9482.28 559.412   3
  -6   1  11 2587.92 338.422   5
  -6   1  11 2591.75 282.735   3
   6  -1 -10 27106.5 1116.52   2
  -6   1  10 27678.1 1106.96   5
  -6   1  10 25789.2 928.045   3
   6  -1  -9 3696.98 394.466   2
  -6   1   9 3280.50 370.781   5
  -6   1   9 4025.49 337.375   3
   6  -1  -8 2330.98 319.759   2
  -6   1   8 1784.36 277.053   5
  -6   1   8 2073.32 236.717   3
   6  -1  -7 2103.63 296.528   2
  -6   1   7 2598.48 253.795   3
  -6   1   6 1740.98 89.0457   4
   6  -1  -6 1775.19 269.308   2
  -6   1   6 1750.82 205.065   3
  -6   1   5 100.187 27.7682   4
   6  -1  -5 134.292 125.464   2
   6  -1  -5 23.4979 19.7079   4
  -6   1   5 89.5728 64.3933   3
  -6   1   4 1774.84 112.287   4
   6  -1  -4 1756.92 270.890   2
   6  -1  -4 1532.51 134.132   4
  -6   1   4 1570.68 185.890   3
  -6   1   3 15108.2 394.512   4
   6  -1  -3 15071.0 480.969   4
  -6   1   2 1590.31 121.800   1
   6  -1  -2 2290.54 317.131   2
   6  -1  -2 1954.86 185.150   4
  -6   1   1 1248.41 119.848   1
   6  -1  -1 1826.13 290.944   2
   6  -1  -1 1859.91 186.953   4
   6  -1   0 7979.78 414.054   4
   6  -1   0 9062.07 630.638   2
   6  -1   1 1281.70 252.938   2
   6  -1   1 1226.61 166.068   4
   6  -1   2 2703.44 250.608   4
   6  -1   2 2202.81 326.583   2
   6  -1   3-56.7177 99.4145   2
   6  -1   3 34.7188 68.6181   4
   6  -1   4 2735.37 267.344   4
   6  -1   4 2346.01 339.010   2
   6  -1   5 2263.16 252.409   4
   6  -1   5 1934.17 313.148   2
   6  -1   6 3150.75 317.020   4
   6  -1   7 1978.48 265.115   4
   6  -1   8 17480.3 811.741   4
   6  -1   9 348.424 157.806   4
   6  -1  10 703.431 184.443   4
   6  -1  11 151.580 92.3488   4
   6  -1  12-1.84167 118.380   4
   6  -1  13-13.9194 116.904   4
   6  -1  14 910.905 216.502   4
   6  -1  15 49.1347 107.795   4
   6  -1  16 1665.10 326.299   4
   6  -1  17 2652.41 415.158   4
   6  -1  18 157.289 132.818   4
   6  -1  19 882.398 266.639   4
   6  -1  20 1070.56 313.763   4
  -6   0  23-3.68449 112.550   5
  -6   0  22 3.52588 112.279   5
  -6   0  21 1335.93 298.891   3
  -6   0  21 626.921 204.500   5
  -6   0  20 1226.76 270.083   3
  -6   0  20 1009.31 241.979   5
  -6   0  19 431.996 157.810   3
  -6   0  19 742.475 216.094   5
  -6   0  18 1860.68 297.175   3
  -6   0  18 1735.22 288.338   5
  -6   0  17 71.2392 95.2652   3
  -6   0  17 124.864 131.292   5
  -6   0  16 7508.17 582.683   5
  -6   0  16 7102.73 550.773   3
  -6   0  15 6172.81 531.571   5
  -6   0  15 7179.87 540.158   3
  -6   0  14 5383.50 485.290   5
  -6   0  14 5260.40 452.869   3
  -6   0  13 1886.99 268.996   3
  -6   0  13 1581.46 270.207   5
  -6   0  12 339.525 140.292   3
  -6   0  12 461.119 171.930   5
  -6   0  11 294.960 112.744   3
   6   0 -11 547.530 174.160   2
  -6   0  11 347.344 156.374   5
   6   0 -10 5950.01 517.354   2
  -6   0  10 5762.92 488.072   5
  -6   0  10 5633.54 430.739   3
   6   0  -9 3328.57 384.486   2
  -6   0   9 3688.79 384.182   5
  -6   0   9 3188.95 319.324   3
   6   0  -8 571.892 165.083   2
  -6   0   8 421.550 132.386   3
   6   0  -7 24.6318 92.4333   2
  -6   0   7 29.1364 69.0896   3
   6   0  -6 18561.3 902.258   2
  -6   0   6 16425.0 724.702   3
   6   0  -5 684.686 204.617   2
   6   0  -4 7031.62 551.833   2
   6   0  -4 3240.29 142.773   4
   6   0  -3 14802.8 821.678   2
   6   0  -3 11382.8 383.017   4
   6   0  -2 3498.64 392.505   2
   6   0  -2 3201.57 214.209   4
   6   0  -1 6808.81 339.602   4
   6   0  -1 7174.14 579.039   2
   6   0   0 2123.84 334.490   2
   6   0   0 1520.60 173.954   4
   6   0   1 571.196 182.155   2
   6   0   1 729.628 124.191   4
   6   0   2 5285.55 345.682   4
   6   0   2 5058.22 499.693   2
   6   0   3 4361.23 327.731   4
   6   0   3 5437.56 527.495   2
   6   0   4 80.1217 109.593   2
   6   0   4 97.6978 76.3666   4
   6   0   5 29918.5 993.858   4
   6   0   5 29394.6 1293.68   2
   6   0   6 5506.50 415.654   4
   6   0   7 8441.66 531.861   4
   6   0   8 31996.6 1140.00   4
   6   0   9 13336.8 723.522   4
   6   0  10 3349.64 371.832   4
   6   0  11 4353.05 442.778   4
   6   0  12 761.390 203.611   4
   6   0  13 2550.11 361.110   4
   6   0  14 4655.06 492.876   4
   6   0  15 337.097 151.021   4
   6   0  16 4352.15 510.018   4
   6   0  17 2199.08 382.102   4
   6   0  18 1801.83 350.146   4
   6   0  19 849.198 294.033   4
  -6  -1  23 73.3469 116.683   5
  -6  -1  22 185.358 131.605   5
  -6  -1  21 3002.73 416.063   3
  -6  -1  21 3059.97 404.861   5
  -6  -1  20 754.437 222.055   3
  -6  -1  20 1005.69 239.689   5
  -6  -1  19 709.486 214.079   3
  -6  -1  19 445.519 168.586   5
  -6  -1  18 3182.32 398.922   5
  -6  -1  18 3590.06 425.121   3
  -6  -1  17 3808.88 421.463   5
  -6  -1  17 4347.24 459.642   3
  -6  -1  16 1485.63 261.482   3
  -6  -1  16 1769.96 297.999   5
  -6  -1  15 45.7622 111.447   3
  -6  -1  15 90.3867 95.5023   5
  -6  -1  14 3449.02 394.331   5
  -6  -1  14 3827.74 408.680   3
  -6  -1  13 997.378 217.223   3
  -6  -1  13 1079.53 222.390   5
  -6  -1  12 2445.47 320.283   5
  -6  -1  12 2404.90 313.655   3
   6   1 -11-5.25814 126.127   2
  -6  -1  11-41.6977 117.270   5
  -6  -1  11 42.6835 87.0190   3
   6   1 -10 13699.7 805.886   2
  -6  -1  10 13642.1 761.637   5
  -6  -1  10 14758.6 762.628   3
   6   1  -9 6412.96 545.567   2
  -6  -1   9 6610.36 517.433   5
  -6  -1   9 6353.48 484.956   3
   6   1  -8 107.529 128.905   2
  -6  -1   8-25.9089 93.7278   3
   6   1  -7 441.126 169.342   2
   6   1  -6 1939.19 298.540   2
   6   1  -5 354.410 165.457   2
   6   1  -4 41501.9 1488.06   2
   6   1  -3 456.423 204.807   2
   6   1  -2 1051.83 114.823   4
   6   1  -2 971.185 222.234   2
   6   1  -1 13572.9 481.879   4
   6   1  -1 13475.8 812.320   2
   6   1   0 221.617 146.711   2
   6   1   0 348.742 89.6369   4
   6   1   1 5381.81 332.565   4
   6   1   1 5834.76 536.495   2
   6   1   2 1004.31 247.501   2
   6   1   2 916.443 147.118   4
   6   1   3-92.3650 131.152   2
   6   1   3 62.2063 66.9198   4
   6   1   4 7098.65 438.812   4
   6   1   4 7256.16 629.384   2
   6   1   5 1497.20 301.645   2
   6   1   5 1756.65 230.880   4
   6   1   6 20402.7 838.587   4
   6   1   7 6928.66 489.214   4
   6   1   8 1101.88 209.040   4
   6   1   9 1511.92 249.480   4
   6   1  10 754.078 187.523   4
   6   1  11 159.953 149.111   4
   6   1  12-49.2204 101.901   4
   6   1  13 8272.83 654.373   4
   6   1  14 2589.66 388.436   4
   6   1  15 524.821 190.383   4
   6   1  16 3162.28 450.406   4
   6   1  17-31.7846 127.266   4
   6   1  18 773.042 233.967   4
   6   1  19 202.214 136.074   4
  -6  -2  22 669.819 204.056   5
  -6  -2  21 2756.23 375.642   5
  -6  -2  20 375.305 197.650   3
  -6  -2  20 986.022 246.289   5
  -6  -2  19 589.642 205.415   3
  -6  -2  19 444.006 158.655   5
  -6  -2  18 334.160 145.695   3
  -6  -2  18 167.951 111.645   5
  -6  -2  17 3358.88 422.726   3
  -6  -2  17 3702.94 423.104   5
  -6  -2  16 1015.44 241.298   3
  -6  -2  16 634.378 192.940   5
  -6  -2  15 3032.81 389.794   3
  -6  -2  15 3186.91 372.296   5
  -6  -2  14 1011.93 220.861   5
  -6  -2  14 682.126 195.356   3
  -6  -2  13 1168.68 229.742   5
  -6  -2  13 1302.22 256.321   3
  -6  -2  12 2142.27 304.361   5
  -6  -2  12 1894.92 300.325   3
   6   2 -11 1768.46 308.489   2
  -6  -2  11 2009.40 290.549   5
  -6  -2  11 1545.62 273.266   3
   6   2 -10 20602.5 1033.34   2
  -6  -2  10 20530.2 943.218   5
  -6  -2  10 20606.3 984.693   3
   6   2  -9 7669.88 604.990   2
  -6  -2   9 7091.97 549.044   5
  -6  -2   9 7952.14 587.098   3
   6   2  -8 39.2118 125.101   2
   6   2  -7 13952.7 829.838   2
   6   2  -6 5922.36 552.240   2
   6   2  -5 1774.64 305.371   2
   6   2  -4 25351.1 1168.13   2
   6   2  -4 26828.1 981.005   7
   6   2  -3 1719.94 251.519   7
   6   2  -3 768.737 225.660   2
   6   2  -2 4310.81 373.600   7
   6   2  -2 3961.43 451.440   2
   6   2  -1 444.738 136.028   7
   6   2  -1 342.196 167.053   2
   6   2   0 1176.98 256.425   2
   6   2   0 1437.94 168.096   4
   6   2   0 1223.84 191.840   7
   6   2   1 6192.33 362.378   4
   6   2   1 6373.67 437.425   7
   6   2   1 5881.08 572.073   2
   6   2   2 379.665 180.282   2
   6   2   2 473.841 117.661   4
   6   2   3 9468.09 500.935   4
   6   2   3 9188.65 723.944   2
   6   2   4 1454.85 296.447   2
   6   2   4 1363.88 196.468   4
   6   2   5 751.307 220.188   2
   6   2   5 440.596 131.013   4
   6   2   6 16568.3 757.278   4
   6   2   7 11049.3 630.837   4
   6   2   8 8142.89 559.772   4
   6   2   9 318.484 126.821   4
   6   2  10 7950.13 588.003   4
   6   2  11 6720.28 558.546   4
   6   2  12 71.8089 117.599   4
   6   2  13 720.505 200.199   4
   6   2  14 1255.01 268.710   4
   6   2  15-82.0831 130.700   4
   6   2  16-52.0231 134.216   4
   6   2  17-244.176 167.394   4
  -6  -3  19 154.137 146.964   3
  -6  -3  18 1258.67 271.501   3
  -6  -3  17 716.681 222.465   3
  -6  -3  16 3360.34 380.429   5
  -6  -3  16 3755.17 458.708   3
  -6  -3  15 727.799 186.302   5
  -6  -3  15 1150.72 260.066   3
  -6  -3  14-79.5155 114.555   5
  -6  -3  14 35.4969 105.687   3
  -6  -3  13 1324.42 230.768   5
  -6  -3  13 796.281 220.297   3
  -6  -3  12 5478.36 469.577   5
  -6  -3  12 4549.63 477.409   3
   6   3 -11 45.5491 118.968   2
  -6  -3  11 288.395 129.228   5
  -6  -3  11 214.846 114.737   3
   6   3 -10 10051.1 719.884   2
   6   3 -10 9879.20 628.995   7
  -6  -3  10 10634.5 663.412   5
   6   3  -9 80.9997 119.892   2
   6   3  -9 114.456 84.9191   7
  -6  -3   9 322.333 144.516   5
   6   3  -8 3960.07 456.774   2
   6   3  -8 4289.70 407.339   7
   6   3  -7 767.737 171.870   7
   6   3  -7 812.083 209.383   2
   6   3  -6 3440.38 348.883   7
   6   3  -6 3024.51 407.814   2
   6   3  -5 11124.8 638.514   7
   6   3  -5 10719.4 760.662   2
   6   3  -4 814.242 194.784   7
   6   3  -4 327.367 161.979   2
   6   3  -3 7725.35 647.564   2
   6   3  -3 7118.29 502.684   7
   6   3  -2 2003.98 275.028   7
   6   3  -2 1676.72 312.344   2
   6   3  -1 6934.34 628.133   2
   6   3  -1 7272.36 499.280   7
   6   3   0 5352.62 427.140   7
   6   3   0 5360.65 556.079   2
   6   3   1 6255.78 458.136   7
   6   3   1 5578.41 568.666   2
   6   3   2 5449.06 421.184   7
   6   3   2 4811.15 343.770   4
   6   3   2 4926.04 537.886   2
   6   3   3 613.056 219.420   2
   6   3   3 442.646 133.755   7
   6   3   3 455.824 127.862   4
   6   3   4 6554.61 460.376   7
   6   3   4 5879.20 422.119   4
   6   3   4 6591.71 649.214   2
   6   3   5 1641.97 339.478   2
   6   3   5 1598.54 227.219   7
   6   3   5 2114.89 261.407   4
   6   3   6 1960.18 250.530   7
   6   3   6 1796.20 257.520   4
   6   3   7 7507.28 531.745   4
   6   3   8 5011.05 448.033   4
   6   3   9 362.716 152.835   4
   6   3  10 1327.82 248.764   4
   6   3  11 3550.44 415.158   4
   6   3  12 315.606 147.675   4
   6   3  13 1914.81 328.381   4
   6   3  14 562.776 200.470   4
   6   3  15 981.512 268.597   4
   6   3  16 155.611 138.358   4
  -6  -4  17 115.794 158.373   3
  -6  -4  16 1355.65 298.532   3
  -6  -4  15 1471.94 307.129   3
  -6  -4  14-11.4763 103.469   3
   6   4 -13 22.3019 87.3666   7
  -6  -4  13-154.296 148.655   3
   6   4 -12 673.323 190.174   7
  -6  -4  12 659.682 203.874   3
   6   4 -11 3265.77 423.453   2
   6   4 -11 2948.16 362.473   7
   6   4 -10 388.151 129.209   7
   6   4 -10 458.834 157.672   2
   6   4  -9-5.54239 123.015   7
   6   4  -9 193.010 130.626   2
   6   4  -8 4358.68 488.296   2
   6   4  -8 3844.14 398.285   7
   6   4  -7 489.166 156.955   7
   6   4  -7 591.732 197.127   2
   6   4  -6 382.029 149.383   7
   6   4  -6 532.831 183.209   2
   6   4  -5 3761.51 465.366   2
   6   4  -5 2930.89 339.506   7
   6   4  -4 9.05388 90.9273   7
   6   4  -4-160.150 141.110   2
   6   4  -3 2165.81 294.720   7
   6   4  -3 1747.17 331.239   2
   6   4  -2 2090.12 285.907   7
   6   4  -2 1757.12 331.104   2
   6   4  -1 7616.89 530.840   7
   6   4  -1 7267.55 667.526   2
   6   4   0 614.429 158.085   7
   6   4   0 358.845 182.779   2
   6   4   1 3590.47 374.005   7
   6   4   1 3967.27 506.184   2
   6   4   2 209.053 139.550   2
   6   4   2 446.128 136.626   7
   6   4   3 2022.21 370.486   2
   6   4   3 2124.59 278.501   7
   6   4   4 2053.44 398.913   2
   6   4   4 2318.03 288.212   7
   6   4   5 6324.57 472.158   7
   6   4   5 5597.43 439.420   4
   6   4   5 5579.34 619.473   2
   6   4   6 8.36869 82.9064   7
   6   4   6 35.9939 71.7518   4
   6   4   7 3071.78 327.091   7
   6   4   7 3010.90 476.848   2
   6   4   7 2706.82 334.328   4
   6   4   8 1480.87 349.752   2
   6   4   8 1271.12 234.934   4
   6   4   9 1905.53 306.461   4
   6   4  10 485.209 184.984   4
   6   4  11 385.757 169.340   4
   6   4  12 2814.11 395.458   4
   6   4  13 290.108 172.079   4
   6   4  14 92.0891 111.812   4
   6   4  15 1015.85 275.217   4
   6   5 -15 22.7749 127.241   7
   6   5 -14 3110.62 406.858   7
  -6  -5  14 2910.58 430.928   3
   6   5 -13-104.795 140.323   7
  -6  -5  13 27.9485 115.172   3
   6   5 -12-11.7377 101.337   7
  -6  -5  12 295.558 144.023   3
   6   5 -11 2352.76 366.044   2
   6   5 -11 2047.27 319.513   7
   6   5 -10 1583.27 270.850   7
   6   5 -10 1817.43 319.716   2
   6   5  -9 86.0112 123.411   7
   6   5  -9-68.1518 137.915   2
   6   5  -8-160.294 116.199   7
   6   5  -8 36.2869 97.6787   2
   6   5  -7 40.8374 102.285   2
   6   5  -7-168.752 132.888   7
   6   5  -6 528.993 173.093   7
   6   5  -6 844.720 249.395   2
   6   5  -5 62.5467 112.891   7
   6   5  -5 140.719 107.111   2
   6   5  -4 483.907 164.862   7
   6   5  -4 400.320 176.707   2
   6   5  -3 106.905 112.570   7
   6   5  -3 3.49902 127.992   2
   6   5  -2 2983.72 351.067   7
   6   5  -2 2945.20 443.844   2
   6   5  -1 815.820 187.304   7
   6   5  -1 497.778 191.735   2
   6   5   0 253.257 125.893   7
   6   5   0 539.819 224.821   2
   6   5   1 2319.48 306.359   7
   6   5   1 2897.74 449.835   2
   6   5   2 1953.01 378.966   2
   6   5   2 2852.54 338.695   7
   6   5   3 979.370 266.362   2
   6   5   3 911.001 208.414   7
   6   5   4 4971.53 444.821   7
   6   5   4 5019.00 610.710   2
   6   5   5 590.967 240.201   2
   6   5   5 952.407 192.496   7
   6   5   6 1794.60 392.627   2
   6   5   6 1833.80 267.068   7
   6   5   7 1501.50 366.257   2
   6   5   8 161.489 165.607   2
   6   5   9 608.808 273.401   2
   6   5   9 518.833 168.597   4
   6   5  10 287.322 150.146   4
   6   5  11-55.4490 94.2420   4
   6   5  12 306.351 162.093   4
   6   5  13 86.6348 121.707   4
   6   6 -11 185.669 99.0381   7
   6   6 -10 2816.47 395.299   7
   6   6  -9 134.286 97.5428   7
   6   6  -8 374.338 174.563   7
   6   6  -7-103.908 108.034   7
   6   6  -6 6558.13 567.884   7
   6   6  -5 1824.77 310.332   7
   6   6  -4 6050.68 538.766   7
   6   6  -3 314.613 139.165   7
   6   6  -2 1761.95 295.847   7
   6   6  -1 844.443 202.075   7
   6   6   0 449.221 156.591   7
   6   6   0 175.370 189.882   2
   6   6   1 614.750 181.272   7
   6   6   1 451.064 219.785   2
   6   6   2 123.023 108.713   7
   6   6   2-158.515 169.164   2
   6   6   3 188.354 167.361   2
   6   6   3 27.3882 75.8271   7
   6   6   4 1012.41 301.794   2
   6   6   4 789.985 191.921   7
   6   6   5-48.3205 142.341   2
   6   6   5-13.5004 80.5311   7
   6   6   6 525.173 234.088   2
   6   6   6 548.909 158.484   7
   6   6   7-28.0733 129.678   2
   6   6   8 765.120 295.742   2
   6   6   9 45.0810 162.130   2
   6   6  10 1136.90 352.251   2
   6   7  -1-110.479 122.287   7
   6   7   0 199.666 147.672   7
   6   7   1-74.9583 118.109   7
   6   7   2-21.7846 98.0371   7
   6   7   3 205.974 136.946   7
   6   7   4 225.727 117.704   7
  -7  12   8 384.522 198.484   1
  -7  12   7 359.698 238.477   1
  -7  12   6 63.1910 147.672   1
  -7  12   5 5.45172 134.513   1
  -7  12   4 48.1423 130.838   1
   7 -12  -4-86.0655 171.120   4
  -7  12   3 1856.80 406.117   1
   7 -12  -3 2028.03 389.154   4
  -7  12   2 50.8306 126.604   1
   7 -12  -2-72.7988 150.468   4
   7 -12  -1 477.740 224.977   4
  -7  12   1 618.543 277.376   1
  -7  12   0 282.482 177.195   1
   7 -12   0 416.832 209.490   4
   7 -12   1 109.216 149.807   4
   7 -12   2 1457.23 363.617   4
   7 -12   3 829.098 276.912   4
   7 -12   4 135.159 186.809   4
   7 -12   5 235.188 191.743   4
   7 -12   6 3617.85 564.147   4
   7 -12   7 1178.40 358.231   4
   7 -12   8 755.979 302.215   4
  -7  11  13-198.377 144.478   1
  -7  11  12 154.206 111.354   1
  -7  11  11-12.9091 94.3217   1
  -7  11  10-172.107 141.325   1
  -7  11   9 606.729 208.606   1
  -7  11   8 776.644 230.189   1
  -7  11   7 654.651 224.259   1
  -7  11   6 219.743 141.271   1
  -7  11   5 2742.07 449.960   1
   7 -11  -5 3409.19 501.487   4
  -7  11   4 406.319 211.034   1
   7 -11  -4 201.763 164.089   4
  -7  11   3 1112.37 313.604   1
   7 -11  -3 1038.95 310.374   4
  -7  11   2 1354.53 331.778   1
   7 -11  -2 491.910 212.683   4
  -7  11   1 148.791 137.414   1
   7 -11  -1 544.625 234.448   4
   7 -11   0 1119.48 295.081   4
   7 -11   1 1033.73 295.071   4
   7 -11   2 497.302 224.655   4
   7 -11   3 2218.36 425.777   4
   7 -11   4 931.778 316.386   4
   7 -11   5 1334.85 339.189   4
   7 -11   6 3585.76 538.239   4
   7 -11   7 462.487 223.356   4
   7 -11   8 1301.30 327.684   4
   7 -11   9 32.5140 130.554   4
   7 -11  10 1428.89 369.406   4
   7 -11  11 15.3815 120.335   4
   7 -11  12-58.5879 168.761   4
  -7  10  15 184.927 138.289   5
  -7  10  14 51.2995 139.331   1
  -7  10  14 31.0902 107.596   5
  -7  10  13 542.898 192.104   1
  -7  10  13 311.533 156.281   5
  -7  10  12-19.7649 105.574   1
  -7  10  12 134.440 123.967   5
  -7  10  11 191.954 159.250   5
  -7  10  11 160.923 133.913   1
  -7  10  10 929.028 219.060   5
  -7  10  10 828.837 237.642   1
  -7  10   9 63.1165 105.498   1
  -7  10   9 283.905 106.744   5
  -7  10   8 514.904 206.560   1
  -7  10   8 310.035 127.360   5
  -7  10   7 283.046 160.516   1
  -7  10   7 481.992 161.711   5
   7 -10  -6 159.557 193.122   4
  -7  10   6 285.864 160.207   1
  -7  10   5 351.323 166.961   1
   7 -10  -5 1124.32 298.777   4
   7 -10  -4 305.238 170.921   4
  -7  10   4 147.351 136.065   1
  -7  10   3-23.7372 106.622   1
   7 -10  -3 158.049 146.527   4
  -7  10   2 2005.57 373.860   1
   7 -10  -2 2044.74 376.263   4
   7 -10  -1 788.744 250.835   4
   7 -10   0 1643.10 349.473   4
   7 -10   1 107.926 136.608   4
   7 -10   2 621.569 236.834   4
   7 -10   3 3019.81 482.999   4
   7 -10   4 625.167 228.666   4
   7 -10   5 86.9724 129.556   4
   7 -10   6 447.873 211.664   4
   7 -10   7 2030.29 396.911   4
   7 -10   8 795.805 301.145   4
   7 -10   9-48.8608 172.674   4
   7 -10  10 183.965 159.668   4
   7 -10  11 2229.09 429.540   4
   7 -10  12 72.3618 130.414   4
   7 -10  13 943.822 294.580   4
   7 -10  14 2393.12 455.143   4
   7 -10  15 2708.17 495.371   4
  -7   9  17 73.8280 120.982   5
  -7   9  16-143.640 126.357   5
  -7   9  15 257.241 143.052   5
  -7   9  14-21.8145 100.835   1
  -7   9  14 116.684 146.587   5
  -7   9  13 253.236 142.811   1
  -7   9  13-44.0780 113.543   5
  -7   9  12 907.656 220.026   1
  -7   9  12 574.998 198.681   5
  -7   9  11 4501.15 476.291   5
  -7   9  11 4482.83 468.496   1
  -7   9  10 1019.01 240.185   5
  -7   9  10 1003.70 230.811   1
  -7   9   9 499.210 173.856   1
  -7   9   9 558.639 175.188   5
  -7   9   8 2077.69 338.729   1
  -7   9   8 2157.66 309.046   5
  -7   9   7 445.974 163.283   5
  -7   9   7 581.983 184.111   1
  -7   9   6 3679.50 449.567   1
  -7   9   6 4579.66 440.294   5
   7  -9  -6 4367.88 514.696   4
  -7   9   5 2855.94 410.256   1
  -7   9   5 2550.66 339.024   5
   7  -9  -5 2526.15 399.542   4
  -7   9   4 490.937 171.092   1
  -7   9   4 547.687 157.581   5
   7  -9  -4 333.810 186.647   4
  -7   9   3 6864.63 636.413   1
  -7   9   3 6159.38 510.326   5
   7  -9  -3 6887.98 649.752   4
  -7   9   2 13198.0 742.577   5
   7  -9  -2 13325.5 908.758   4
  -7   9   1 6752.37 531.535   5
   7  -9  -1 5092.40 568.670   4
  -7   9   0 14576.8 776.709   5
   7  -9   0 14376.3 951.596   4
   7  -9   1 655.832 233.483   4
   7  -9   2 64.0523 158.218   4
   7  -9   3 94.2892 149.181   4
   7  -9   4 109.444 114.267   4
   7  -9   5 616.007 213.008   4
   7  -9   6 59.8520 147.035   4
   7  -9   7 870.774 269.633   4
   7  -9   8 3521.62 499.785   4
   7  -9   9 4225.95 554.392   4
   7  -9  10 2050.86 398.854   4
   7  -9  11 3846.25 530.606   4
   7  -9  12 145.118 160.188   4
   7  -9  13 47.2995 132.122   4
   7  -9  14 1859.25 417.673   4
   7  -9  15 606.829 273.096   4
   7  -9  16 92.8166 135.845   4
   7  -9  17 2178.60 453.317   4
  -7   8  18 96.8109 170.177   5
  -7   8  17 182.795 153.285   5
  -7   8  16 12.9157 106.897   5
  -7   8  15 185.756 165.606   5
  -7   8  14 92.0425 112.703   5
  -7   8  13 8.41933 83.0669   1
  -7   8  13-4.33138 117.585   5
  -7   8  12 1539.84 259.392   1
  -7   8  12 1060.19 255.293   5
  -7   8  11 8199.46 635.431   5
  -7   8  11 8703.58 611.892   1
  -7   8  10 595.988 200.036   5
  -7   8  10 428.149 162.400   1
  -7   8   9 2615.54 338.354   1
  -7   8   9 3056.67 389.954   5
  -7   8   8 1111.51 225.995   1
  -7   8   8 1694.59 282.224   5
  -7   8   7 2082.88 310.703   5
  -7   8   7 2037.72 313.824   1
   7  -8  -7 1692.33 305.397   4
  -7   8   6 12586.4 763.022   5
   7  -8  -6 11510.7 797.245   4
  -7   8   6 13375.0 805.320   1
  -7   8   5-35.0490 106.315   1
  -7   8   5 110.371 111.028   5
   7  -8  -5 232.475 160.565   4
  -7   8   4 1736.37 284.464   5
  -7   8   4 2156.12 338.230   1
   7  -8  -4 1815.72 309.902   4
  -7   8   3 17922.4 900.287   5
   7  -8  -3 17985.5 1007.57   4
  -7   8   2 4422.02 435.987   5
   7  -8  -2 3861.29 470.491   4
   7  -8  -1 6375.44 595.998   4
   7  -8   0 30.9325 70.7113   2
   7  -8   0-119.344 137.830   4
   7  -8   1 3525.84 294.152   2
   7  -8   1 3842.55 468.388   4
   7  -8   2 1477.34 310.694   4
   7  -8   2 1210.35 175.202   2
   7  -8   3 2666.24 402.420   4
   7  -8   3 3013.25 273.497   2
   7  -8   4 58.5895 112.149   4
   7  -8   5 77.4661 135.748   4
   7  -8   6 344.984 177.995   4
   7  -8   7 7745.91 688.107   4
   7  -8   8 14225.7 955.888   4
   7  -8   9 1524.83 323.347   4
   7  -8  10 57.0778 158.359   4
   7  -8  11 6120.59 660.581   4
   7  -8  12 686.468 258.919   4
   7  -8  13 1409.82 347.748   4
   7  -8  14 1372.41 335.140   4
   7  -8  15 1296.19 364.561   4
   7  -8  16 47.3170 168.160   4
   7  -8  17 2041.94 429.741   4
   7  -8  18 698.577 244.857   4
  -7   7  19 231.910 155.838   5
  -7   7  18 477.272 197.877   5
  -7   7  17 730.054 230.032   5
  -7   7  16 401.785 220.729   5
  -7   7  15 492.737 167.536   5
  -7   7  14 5166.74 527.638   5
  -7   7  13 1437.73 296.283   5
  -7   7  12 5104.37 429.664   1
  -7   7  12 5010.98 506.565   5
  -7   7  11 3578.16 472.136   5
  -7   7  11 3517.21 366.747   1
  -7   7  10 416.476 236.874   5
  -7   7  10 511.394 234.035   1
  -7   7   9 12538.0 772.156   5
  -7   7   9 12159.9 660.164   1
  -7   7   8 1234.96 224.008   1
  -7   7   8 1775.29 298.825   5
  -7   7   7 10191.0 705.053   5
  -7   7   7 10901.4 648.125   1
   7  -7  -7 11603.8 745.970   4
  -7   7   6 2629.88 349.899   5
  -7   7   6 3380.51 361.083   1
   7  -7  -6 3045.10 384.563   4
  -7   7   5-2.37881 86.3519   1
  -7   7   5-147.717 150.396   5
   7  -7  -5-21.1096 101.014   4
  -7   7   4 10181.5 676.778   5
   7  -7  -4 9969.45 686.473   4
   7  -7  -3 1085.94 196.986   2
   7  -7  -3 1085.67 248.768   4
   7  -7  -2 1894.39 241.303   2
   7  -7  -2 1581.28 280.138   4
   7  -7  -1 1714.94 306.720   4
   7  -7  -1 1777.48 224.278   2
   7  -7   0 544.919 190.677   4
   7  -7   0 725.895 156.166   2
   7  -7   1 21381.9 843.304   2
   7  -7   1 21371.1 1067.97   4
   7  -7   2 6084.75 434.515   2
   7  -7   2 5776.06 549.929   4
   7  -7   3 3090.14 411.948   4
   7  -7   3 2921.96 304.121   2
   7  -7   4-0.34931 111.065   4
   7  -7   4-89.6587 95.7586   2
   7  -7   5 11173.2 642.384   2
   7  -7   5 12549.2 825.519   4
   7  -7   6 6069.56 480.761   2
   7  -7   6 6026.07 584.384   4
   7  -7   7 56.9419 75.6555   2
   7  -7   7 211.903 166.090   4
   7  -7   8 9203.68 637.299   2
   7  -7   8 8967.86 740.005   4
   7  -7   9 5288.98 489.158   2
   7  -7   9 4942.07 555.615   4
   7  -7  10 3220.95 412.922   2
   7  -7  10 3913.44 500.592   4
   7  -7  11 20867.8 1057.67   2
   7  -7  11 19806.9 1164.55   4
   7  -7  12 713.952 251.175   4
   7  -7  13 7046.75 701.753   4
   7  -7  14 3191.88 476.613   4
   7  -7  15 426.366 228.123   4
   7  -7  16 5201.70 653.526   4
   7  -7  17 615.921 266.079   4
   7  -7  18 353.708 230.936   4
   7  -7  19 1460.22 382.342   4
  -7   6  19 223.499 153.773   5
  -7   6  18 106.549 163.236   5
  -7   6  17 1802.30 351.856   5
  -7   6  16 164.152 139.820   5
  -7   6  15 7125.54 621.764   5
  -7   6  14 1084.08 258.796   5
  -7   6  13 2062.96 337.252   5
  -7   6  12 2849.14 388.097   5
  -7   6  11 4512.45 366.824   1
  -7   6  11 4121.60 467.291   5
  -7   6  10 3842.40 334.275   1
  -7   6  10 3464.87 421.418   5
  -7   6   9 1246.06 250.773   5
  -7   6   9 1242.42 191.403   1
  -7   6   8 20.9454 75.1823   1
  -7   6   8 19.5464 117.738   5
  -7   6   7 8305.49 627.371   5
  -7   6   7 9674.96 535.529   1
   7  -6  -7 8491.95 598.256   4
  -7   6   6 1424.80 212.787   1
  -7   6   6 1215.23 236.688   5
   7  -6  -6 1301.96 234.711   4
   7  -6  -5 1003.05 192.008   2
  -7   6   5 1236.26 203.141   1
  -7   6   5 1134.24 246.822   5
   7  -6  -5 1400.02 243.353   4
   7  -6  -4 42.5858 69.4258   2
   7  -6  -4-103.496 118.618   4
   7  -6  -3 675.814 156.885   2
   7  -6  -3 569.673 166.045   4
   7  -6  -2 1612.63 269.197   4
   7  -6  -2 1515.69 230.411   2
   7  -6  -1 34.5010 94.9744   4
   7  -6  -1 231.482 127.077   2
   7  -6   0 924.639 218.820   4
   7  -6   0 654.826 161.532   2
   7  -6   1 13113.2 693.524   2
   7  -6   1 12227.6 757.599   4
   7  -6   2 41773.2 1356.18   2
   7  -6   2 41508.9 1475.23   4
   7  -6   3 14245.6 753.000   2
   7  -6   3 15703.2 865.639   4
   7  -6   4 7282.19 538.151   2
   7  -6   4 6866.20 579.728   4
   7  -6   5 32572.9 1221.51   2
   7  -6   5 30597.7 1299.38   4
   7  -6   6 25148.3 1084.96   2
   7  -6   6 24861.0 1164.83   4
   7  -6   7 3562.98 439.639   4
   7  -6   7 3397.57 401.032   2
   7  -6   8 9039.28 660.232   2
   7  -6   8 8014.86 665.080   4
   7  -6   9 22.3778 116.714   4
   7  -6   9-23.6057 92.2813   2
   7  -6  10 6790.34 632.009   4
   7  -6  11 1903.38 351.402   4
   7  -6  12 437.979 191.742   4
   7  -6  13 793.592 248.068   4
   7  -6  14 271.483 145.626   4
   7  -6  15 62.5517 138.658   4
   7  -6  16-78.6397 150.801   4
   7  -6  17 3211.50 523.764   4
   7  -6  18 110.584 125.315   4
   7  -6  19 730.135 279.777   4
  -7   5  20 216.838 174.128   5
  -7   5  19 1078.76 271.696   5
  -7   5  18 2133.44 371.854   5
  -7   5  17 1730.54 328.566   5
  -7   5  16 1955.28 335.392   5
  -7   5  15 124.504 138.154   5
  -7   5  14 60.1370 106.609   5
  -7   5  13 1784.07 317.861   5
  -7   5  12 7.92345 112.789   5
  -7   5  11 1788.82 299.291   5
  -7   5  10 428.969 164.877   5
  -7   5   9 3173.62 266.442   1
  -7   5   9 2986.69 387.175   5
  -7   5   8 5341.38 503.864   5
  -7   5   8 6128.63 371.151   1
  -7   5   7 1801.53 199.940   1
  -7   5   7 1609.73 291.213   5
   7  -5  -7 1702.88 251.543   4
   7  -5  -6 2718.98 321.407   2
  -7   5   6 1617.91 277.548   5
   7  -5  -6 2569.20 299.672   4
  -7   5   6 2665.48 252.217   1
  -7   5   5 233.134 89.9149   1
   7  -5  -5 448.635 143.004   2
   7  -5  -5 415.795 119.682   4
   7  -5  -4 3274.51 341.782   2
   7  -5  -4 3445.42 351.318   4
   7  -5  -3 280.443 134.179   2
   7  -5  -3 223.896 111.868   4
   7  -5  -2 775.895 188.855   4
   7  -5  -2 681.334 165.243   2
   7  -5  -1 8472.67 569.451   2
   7  -5  -1 9402.10 599.800   4
   7  -5   0 10792.9 650.657   2
   7  -5   0 9807.86 633.560   4
   7  -5   1 7025.03 529.320   2
   7  -5   1 7244.89 550.974   4
   7  -5   2 22182.5 991.561   2
   7  -5   2 23473.5 1018.72   4
   7  -5   3 705.374 203.759   4
   7  -5   3 290.424 157.347   2
   7  -5   4 11320.9 716.194   2
   7  -5   4 11447.1 716.477   4
   7  -5   5 9072.15 651.310   2
   7  -5   5 8264.79 623.220   4
   7  -5   6-60.2895 114.459   2
   7  -5   6 263.682 147.173   4
   7  -5   7 23589.8 1133.85   2
   7  -5   7 22356.0 1072.47   4
   7  -5   8 348.081 171.751   4
   7  -5   8 536.953 189.041   2
   7  -5   9 744.313 186.476   4
   7  -5  10 2128.09 350.146   4
   7  -5  11 416.946 164.229   4
   7  -5  12 1582.54 313.632   4
   7  -5  13 3525.14 471.619   4
   7  -5  14 374.107 191.318   4
   7  -5  15 1364.90 328.358   4
   7  -5  16 575.802 241.567   4
   7  -5  17 3302.54 500.973   4
   7  -5  18 751.510 266.718   4
   7  -5  19 621.457 280.090   4
   7  -5  20 405.680 233.789   4
  -7   4  20 138.056 140.311   5
  -7   4  19 1784.79 327.984   5
  -7   4  18 1071.28 274.977   5
  -7   4  17 939.690 253.251   5
  -7   4  16 534.010 197.429   5
  -7   4  15-81.1107 148.574   5
  -7   4  14-64.7346 129.246   5
  -7   4  13 5720.25 541.761   5
  -7   4  12 1501.73 293.058   5
  -7   4  11 551.467 189.881   5
  -7   4  10 4414.13 471.167   5
  -7   4   9 14221.0 839.982   5
   7  -4  -8 2489.44 332.697   2
  -7   4   8 2362.94 343.432   5
   7  -4  -7 19731.0 932.968   2
  -7   4   7 20893.5 1016.39   5
  -7   4   7 22476.1 633.469   1
   7  -4  -7 21065.4 810.104   4
   7  -4  -6 4500.25 424.167   2
  -7   4   6 4664.46 268.429   1
   7  -4  -6 4337.83 349.443   4
   7  -4  -5 14600.9 782.845   2
   7  -4  -5 15477.8 689.027   4
  -7   4   5 15568.4 550.476   1
   7  -4  -4 18553.0 889.065   2
   7  -4  -4 20108.8 808.632   4
  -7   4   4 19243.2 593.812   3
   7  -4  -3 1405.56 214.592   4
   7  -4  -3 1562.33 266.878   2
  -7   4   3 1785.06 156.077   3
   7  -4  -2 12559.9 725.804   2
   7  -4  -2 12049.1 631.802   4
  -7   4   2 12163.7 407.136   3
   7  -4  -1 42773.4 1431.07   2
   7  -4  -1 42656.0 1289.95   4
  -7   4   1 39136.5 840.465   3
   7  -4   0 1289.08 240.943   4
   7  -4   0 957.297 227.762   2
  -7   4   0 750.420 86.7619   3
   7  -4   1 21090.2 983.986   2
  -7   4  -1 19519.1 446.180   3
   7  -4   1 20689.6 898.272   4
   7  -4   2 829.285 199.237   4
  -7   4  -2 791.578 61.6175   3
   7  -4   2 813.724 230.993   2
   7  -4   3 1199.62 252.187   2
   7  -4   3 1762.49 263.298   4
   7  -4   4 8514.28 643.316   2
   7  -4   4 8263.89 581.687   4
   7  -4   5-97.7236 112.687   2
   7  -4   5-123.098 108.754   4
   7  -4   6 4375.80 484.483   2
   7  -4   6 4678.03 451.590   4
   7  -4   7 3857.94 420.783   4
   7  -4   7 4223.31 491.442   2
   7  -4   8 7091.75 576.574   4
   7  -4   9 103.102 115.930   4
   7  -4  10 1053.00 239.435   4
   7  -4  11 2522.23 370.879   4
   7  -4  12 1612.12 332.936   4
   7  -4  13 1892.05 352.527   4
   7  -4  14 1221.74 284.039   4
   7  -4  15 1986.05 379.215   4
   7  -4  16 552.426 219.058   4
   7  -4  17 5286.80 615.027   4
   7  -4  18 1925.60 388.744   4
   7  -4  19 1292.42 346.497   4
   7  -4  20-213.245 168.448   4
  -7   3  21 1140.09 279.095   5
  -7   3  20 5.91947 139.678   5
  -7   3  19 503.415 190.640   5
  -7   3  18 627.198 197.085   5
  -7   3  17 321.477 193.895   5
  -7   3  16 918.295 236.271   5
  -7   3  15-17.1373 136.019   5
  -7   3  14 1003.32 255.386   5
  -7   3  13 2724.49 375.160   5
  -7   3  12 867.921 174.900   3
  -7   3  12 816.546 214.951   5
  -7   3  11 1347.00 207.544   3
  -7   3  11 1392.75 276.909   5
  -7   3  10 14706.4 855.043   5
  -7   3  10 13724.2 636.802   3
   7  -3  -9 11791.7 727.360   2
  -7   3   9 12108.4 763.583   5
  -7   3   9 10789.5 543.437   3
  -7   3   8 682.917 133.612   3
   7  -3  -8 717.334 189.807   2
  -7   3   8 648.876 194.031   5
   7  -3  -7 19610.6 946.928   2
   7  -3  -7 21134.9 724.222   4
  -7   3   7 19248.4 698.208   3
   7  -3  -6 3587.07 392.446   2
   7  -3  -6 3540.49 278.415   4
  -7   3   6 4061.74 288.147   3
   7  -3  -5 1294.22 242.298   2
  -7   3   5 869.447 82.5057   1
  -7   3   5 1355.49 161.041   3
   7  -3  -5 1053.08 157.760   4
   7  -3  -4 13847.0 784.219   2
   7  -3  -4 13879.6 603.381   4
  -7   3   4 13822.4 516.293   3
  -7   3   3 724.025 110.045   3
   7  -3  -3 572.767 134.583   4
   7  -3  -3 666.401 199.708   2
  -7   3   2 326.754 72.2566   3
   7  -3  -2 182.793 70.2371   4
   7  -3  -2 298.288 117.734   2
   7  -3  -1 5869.40 517.831   2
  -7   3   1 5128.34 269.123   3
   7  -3  -1 5330.16 388.456   4
   7  -3   0 7505.94 588.821   2
  -7   3   0 6259.92 286.360   3
   7  -3   0 6719.54 457.571   4
   7  -3   1 11759.7 752.023   2
  -7   3  -1 11854.3 404.622   3
   7  -3   1 13509.6 668.928   4
   7  -3   2 5140.34 512.431   2
   7  -3   2 5358.75 430.014   4
   7  -3   3 7597.09 618.657   2
   7  -3   3 7856.17 522.864   4
   7  -3   4 355.525 166.664   2
   7  -3   4 209.072 110.492   4
   7  -3   5 142.638 98.0585   2
   7  -3   5 192.114 108.462   4
   7  -3   6 386.741 189.448   2
   7  -3   6 470.179 155.042   4
   7  -3   7 2787.90 405.482   2
   7  -3   7 2463.93 324.785   4
   7  -3   8 4087.24 424.911   4
   7  -3   9 7285.59 579.751   4
   7  -3  10 8085.86 635.278   4
   7  -3  11 855.377 226.171   4
   7  -3  12 1356.26 293.183   4
   7  -3  13 4571.29 513.097   4
   7  -3  14-247.431 168.831   4
   7  -3  15 575.712 217.604   4
   7  -3  16 1784.68 368.897   4
   7  -3  17 233.904 160.347   4
   7  -3  18 2228.76 441.145   4
   7  -3  19 359.699 237.026   4
  -7   2  21 122.515 126.729   5
  -7   2  20 143.071 155.522   5
  -7   2  19 3457.08 444.657   5
  -7   2  18-234.315 150.067   5
  -7   2  17 1915.66 284.953   3
  -7   2  17 1687.07 316.585   5
  -7   2  16 192.127 96.4990   3
  -7   2  16 237.039 122.338   5
  -7   2  15 3469.43 432.266   5
  -7   2  15 2693.76 328.537   3
  -7   2  14 235.205 96.8917   3
  -7   2  14 183.942 148.624   5
  -7   2  13 4109.08 471.963   5
  -7   2  13 3647.61 360.633   3
  -7   2  12 100.131 71.4233   3
  -7   2  12 302.049 186.981   5
  -7   2  11 1197.63 189.734   3
  -7   2  11 1020.51 256.491   5
   7  -2 -10 39849.0 1459.22   2
  -7   2  10 40666.2 1498.67   5
  -7   2  10 39873.0 1203.29   3
  -7   2   9 1566.19 217.599   3
   7  -2  -9 1390.08 268.084   2
  -7   2   9 1548.80 288.096   5
   7  -2  -8 9513.70 662.075   2
  -7   2   8 10110.7 523.087   3
   7  -2  -7 21286.7 1011.22   2
  -7   2   7 19873.4 743.352   3
  -7   2   6 1388.58 184.550   3
   7  -2  -6 897.700 229.093   2
   7  -2  -6 1019.28 125.721   4
   7  -2  -5 5891.15 524.410   2
   7  -2  -5 5364.02 304.877   4
  -7   2   5 5709.60 359.134   3
   7  -2  -4 9791.19 673.280   2
  -7   2   4 8752.83 437.952   3
   7  -2  -4 7959.84 393.201   4
   7  -2  -3 3119.05 388.036   2
  -7   2   3 2859.61 249.218   3
   7  -2  -3 2560.49 232.731   4
  -7   2   2 3033.58 243.362   3
   7  -2  -2 2995.18 384.026   2
   7  -2  -2 2760.25 252.737   4
   7  -2  -1 5958.44 534.938   2
   7  -2  -1 6534.83 411.459   4
   7  -2   0 2862.29 279.248   4
   7  -2   0 2733.10 371.639   2
   7  -2   1 2609.78 361.693   2
   7  -2   1 2802.09 285.358   4
   7  -2   2-0.50425 125.068   2
   7  -2   2 372.139 117.243   4
   7  -2   3 955.284 229.721   2
   7  -2   3 1163.60 202.720   4
   7  -2   4 484.714 185.619   2
   7  -2   4 283.019 113.802   4
   7  -2   5 4238.28 388.757   4
   7  -2   5 4674.97 517.491   2
   7  -2   6 13262.1 718.558   4
   7  -2   6 13041.7 903.618   2
   7  -2   7 17889.9 872.500   4
   7  -2   7 20534.0 1125.59   2
   7  -2   8 31487.4 1214.85   4
   7  -2   9-61.8783 96.6125   4
   7  -2  10 11916.0 758.122   4
   7  -2  11 4420.38 471.588   4
   7  -2  12 2886.58 393.436   4
   7  -2  13 3232.92 437.591   4
   7  -2  14 257.519 118.505   4
   7  -2  15 2320.99 390.927   4
   7  -2  16 1108.71 296.405   4
   7  -2  17 2553.15 427.774   4
   7  -2  18 1257.51 305.634   4
   7  -2  19-172.106 175.917   4
  -7   1  21 199.816 154.938   5
  -7   1  20 479.034 163.047   3
  -7   1  20 415.474 184.338   5
  -7   1  19 26.7999 94.4144   3
  -7   1  19-64.1269 124.830   5
  -7   1  18 1028.16 241.773   3
  -7   1  18 985.317 255.912   5
  -7   1  17 1459.34 256.381   3
  -7   1  17 1461.18 288.472   5
  -7   1  16 4938.74 512.282   5
  -7   1  16 4564.79 445.413   3
  -7   1  15 3442.95 430.767   5
  -7   1  15 3223.14 363.905   3
  -7   1  14 596.327 153.484   3
  -7   1  14 1007.25 250.165   5
  -7   1  13 986.974 201.010   3
  -7   1  13 1175.63 268.614   5
  -7   1  12 1142.82 207.771   3
  -7   1  12 1147.77 237.928   5
   7  -1 -11 2751.94 373.268   2
  -7   1  11 2982.10 389.768   5
  -7   1  11 3627.67 349.451   3
   7  -1 -10 10853.3 733.326   2
  -7   1  10 11933.3 764.164   5
  -7   1  10 10780.5 607.507   3
  -7   1   9 1030.80 190.916   3
   7  -1  -9 1303.03 255.842   2
  -7   1   9 1040.33 239.619   5
   7  -1  -8 10160.0 705.957   2
  -7   1   8 10465.9 572.560   3
   7  -1  -7 11785.8 753.138   2
  -7   1   7 11449.8 586.566   3
   7  -1  -6 370.939 178.859   2
  -7   1   6 664.900 152.659   3
   7  -1  -5 13715.6 819.339   2
  -7   1   5 13458.7 621.612   3
   7  -1  -4 1318.13 263.937   2
  -7   1   4 1257.15 186.064   3
   7  -1  -3 1197.16 135.016   4
   7  -1  -3 924.690 213.935   2
   7  -1  -2 97.7034 61.0606   4
   7  -1  -2-386.853 167.150   2
   7  -1  -1 664.990 122.703   4
   7  -1  -1 140.506 107.052   2
   7  -1   0 790.126 144.262   4
   7  -1   0 674.663 204.424   2
   7  -1   1 977.563 237.657   2
   7  -1   1 927.697 149.375   4
   7  -1   2 51.7568 96.7757   2
   7  -1   2 25.7697 57.0590   4
   7  -1   3 3645.86 328.501   4
   7  -1   3 3292.66 424.399   2
   7  -1   4 4625.33 385.363   4
   7  -1   4 4142.89 490.307   2
   7  -1   5 16420.0 770.717   4
   7  -1   5 17031.5 1019.18   2
   7  -1   6 16769.3 794.734   4
   7  -1   6 16721.3 1026.80   2
   7  -1   7 837.958 184.598   4
   7  -1   8 4469.54 435.130   4
   7  -1   9 5202.74 476.059   4
   7  -1  10 146.271 123.554   4
   7  -1  11 788.477 220.537   4
   7  -1  12 1830.86 312.120   4
   7  -1  13 1650.89 311.967   4
   7  -1  14 240.135 155.392   4
   7  -1  15 330.017 167.573   4
   7  -1  16 409.914 186.111   4
   7  -1  17 3187.44 472.265   4
   7  -1  18 53.6781 151.787   4
   7  -1  19 336.403 236.716   4
  -7   0  22-231.821 151.881   5
  -7   0  21 734.647 236.076   5
  -7   0  20 722.138 210.696   3
  -7   0  20 978.942 251.163   5
  -7   0  19 2721.38 381.537   3
  -7   0  19 2873.96 401.716   5
  -7   0  18 2277.49 341.513   3
  -7   0  18 2454.65 369.422   5
  -7   0  17-16.6629 109.257   3
  -7   0  17 302.499 162.127   5
  -7   0  16 4791.72 495.300   5
  -7   0  16 4637.55 463.549   3
  -7   0  15 134.647 105.689   3
  -7   0  15 246.760 149.454   5
  -7   0  14 617.901 181.781   3
  -7   0  14 1109.08 251.921   5
  -7   0  13 3886.21 443.810   5
  -7   0  13 4163.35 417.386   3
  -7   0  12 340.886 122.387   3
  -7   0  12 206.424 119.782   5
   7   0 -11 2790.78 396.823   2
  -7   0  11 2793.30 391.990   5
  -7   0  11 2311.52 301.883   3
   7   0 -10 8113.24 656.060   2
  -7   0  10 9018.59 666.092   5
  -7   0  10 7540.79 537.640   3
   7   0  -9 3499.79 429.733   2
  -7   0   9 2505.43 356.624   5
  -7   0   9 3679.59 364.779   3
   7   0  -8 8539.49 660.225   2
  -7   0   8 9049.26 562.490   3
   7   0  -7 2321.18 348.113   2
  -7   0   7 2370.82 287.789   3
   7   0  -6 3.52246 130.024   2
  -7   0   6-54.5051 109.123   3
   7   0  -5 150.832 127.109   2
   7   0  -4 1369.28 286.801   2
   7   0  -3 113.892 97.1043   2
   7   0  -2 2927.35 408.850   2
   7   0  -1 507.555 103.361   4
   7   0  -1 467.835 207.534   2
   7   0   0 4378.85 316.152   4
   7   0   0 4924.89 522.834   2
   7   0   1 1946.97 332.879   2
   7   0   1 1380.43 196.244   4
   7   0   2 5567.24 387.891   4
   7   0   2 6036.35 578.335   2
   7   0   3 2382.01 261.351   4
   7   0   3 2794.95 413.021   2
   7   0   4 1229.16 363.833   2
   7   0   4 1322.63 203.875   4
   7   0   5 11312.4 624.774   4
   7   0   5 12857.0 893.906   2
   7   0   6 2845.69 319.425   4
   7   0   6 2863.17 437.522   2
   7   0   7 1684.50 372.095   2
   7   0   7 961.656 210.390   4
   7   0   8 1972.49 289.835   4
   7   0   9 1763.05 281.489   4
   7   0  10 5914.67 524.196   4
   7   0  11 356.364 160.159   4
   7   0  12-4.92460 102.344   4
   7   0  13 51.3060 104.838   4
   7   0  14 284.401 176.952   4
   7   0  15 95.4617 140.301   4
   7   0  16-142.323 173.279   4
   7   0  17 214.670 162.413   4
   7   0  18 707.711 261.591   4
  -7  -1  22 1342.37 291.477   5
  -7  -1  21 95.7648 104.129   5
  -7  -1  20 43.0127 136.061   5
  -7  -1  19 4304.65 482.570   5
  -7  -1  19 3861.60 471.908   3
  -7  -1  18 960.365 252.954   3
  -7  -1  18 469.913 170.949   5
  -7  -1  17 2886.89 383.580   5
  -7  -1  17 3306.38 439.204   3
  -7  -1  16 559.592 192.278   3
  -7  -1  16 780.864 214.103   5
  -7  -1  15 871.248 208.561   3
  -7  -1  15 767.200 215.588   5
  -7  -1  14 3229.79 390.707   3
  -7  -1  14 2739.28 375.924   5
  -7  -1  13 2939.20 393.149   5
  -7  -1  13 4128.65 434.532   3
  -7  -1  12 418.912 169.034   5
  -7  -1  12 398.320 148.281   3
   7   1 -11 2902.09 410.345   2
  -7  -1  11 2949.53 377.595   5
  -7  -1  11 2724.42 344.746   3
   7   1 -10 774.407 249.228   2
  -7  -1  10 437.760 158.888   5
  -7  -1  10 569.012 160.752   3
   7   1  -9 9725.90 720.000   2
  -7  -1   9 9025.38 654.316   5
  -7  -1   9 8967.89 617.588   3
   7   1  -8 695.204 216.116   2
  -7  -1   8 791.891 194.395   3
   7   1  -7 930.768 239.244   2
   7   1  -6 14763.2 897.826   2
   7   1  -5 1559.27 307.740   2
   7   1  -4 2320.62 357.505   2
   7   1  -3 37.5452 121.617   2
   7   1  -2 2763.10 400.192   2
   7   1  -1 11394.7 807.231   2
   7   1   0 3547.03 454.987   2
   7   1   1-533.503 199.194   2
   7   1   2 537.427 213.201   2
   7   1   2 1194.98 183.829   4
   7   1   3 6464.50 428.878   4
   7   1   3 6104.38 616.685   2
   7   1   4 1187.58 286.825   2
   7   1   4 933.939 177.551   4
   7   1   5 5085.94 411.995   4
   7   1   5 5289.55 600.563   2
   7   1   6 310.214 224.704   2
   7   1   6 322.368 106.347   4
   7   1   7 5812.87 474.435   4
   7   1   7 5320.73 621.164   2
   7   1   8 2624.15 326.763   4
   7   1   9-181.710 150.498   4
   7   1  10 312.237 166.793   4
   7   1  11 1756.52 316.395   4
   7   1  12 130.811 120.304   4
   7   1  13-34.4510 136.030   4
   7   1  14 68.2536 108.748   4
   7   1  15 9.04637 131.378   4
   7   1  16 41.0474 113.326   4
   7   1  17 1132.28 290.687   4
  -7  -2  19 688.900 206.395   5
  -7  -2  18-163.493 154.695   3
  -7  -2  18-32.7522 118.272   5
  -7  -2  17 1077.65 265.948   3
  -7  -2  17 1253.31 257.205   5
  -7  -2  16 0.56263 112.211   3
  -7  -2  16 102.344 110.875   5
  -7  -2  15-1.27892 110.071   3
  -7  -2  15 307.508 143.367   5
  -7  -2  14 427.384 161.842   5
  -7  -2  14 313.902 147.439   3
  -7  -2  13 1129.97 239.375   5
  -7  -2  13 874.792 220.494   3
   7   2 -12 3624.45 459.888   2
  -7  -2  12 3158.78 394.576   5
  -7  -2  12 2863.75 385.882   3
   7   2 -11 11.0929 108.946   2
  -7  -2  11 91.6349 103.012   5
  -7  -2  11-76.7293 95.2566   3
   7   2 -10-22.9949 99.6696   2
  -7  -2  10-43.8447 111.708   5
  -7  -2  10 7.47994 98.0483   3
   7   2  -9-93.3546 141.883   2
  -7  -2   9-133.115 134.424   3
  -7  -2   9 33.2983 112.770   5
   7   2  -8 496.452 184.473   2
   7   2  -7 546.904 212.582   2
   7   2  -6 1600.03 311.814   2
   7   2  -5 283.597 153.855   2
   7   2  -4 11175.3 811.666   2
   7   2  -3 11036.3 810.138   2
   7   2  -2 13201.5 905.372   2
   7   2  -1 485.288 224.605   2
   7   2   0 1739.67 336.199   2
   7   2   1 74.2188 109.104   2
   7   2   2 915.548 263.469   2
   7   2   3 122.872 106.206   2
   7   2   4 299.757 198.665   2
   7   2   4 225.569 102.579   4
   7   2   5 691.157 251.072   2
   7   2   5 476.071 141.907   4
   7   2   6 269.727 184.948   2
   7   2   6-28.1156 102.051   4
   7   2   7 117.021 127.953   2
   7   2   7 210.366 105.776   4
   7   2   8 2801.72 475.714   2
   7   2   8 1850.60 286.489   4
   7   2   9 244.178 140.340   4
   7   2  10 87.3485 105.877   4
   7   2  11 1562.71 289.278   4
   7   2  12-37.6009 116.460   4
   7   2  13 892.032 244.172   4
   7   2  14-183.359 147.569   4
   7   2  15 97.5283 112.694   4
   7   2  16 543.950 227.023   4
  -7  -3  16-46.0861 139.269   3
  -7  -3  15 2899.97 422.873   3
  -7  -3  14 343.762 175.592   3
  -7  -3  13 686.151 208.049   3
   7   3 -12 389.731 187.078   2
  -7  -3  12 178.802 138.866   5
  -7  -3  12-36.1767 107.362   3
   7   3 -11 1272.30 279.426   2
  -7  -3  11 1479.58 267.393   5
  -7  -3  11 982.190 247.739   3
   7   3 -10 1922.42 343.846   2
  -7  -3  10 1756.67 303.932   5
  -7  -3  10 1669.10 308.560   3
   7   3  -9 53.4396 90.3342   2
  -7  -3   9 30.4051 84.2550   5
   7   3  -8 2770.10 399.940   2
   7   3  -7 924.317 257.587   2
   7   3  -6 1102.88 265.004   2
   7   3  -5 851.226 255.868   2
   7   3  -4 394.029 220.753   2
   7   3  -3 4964.32 557.519   2
   7   3  -2 2147.98 395.073   2
   7   3  -1 333.228 180.137   2
   7   3   0 314.704 172.487   2
   7   3   1 4582.07 554.380   2
   7   3   2-134.972 128.258   2
   7   3   3 3186.35 474.884   2
   7   3   4 1373.46 323.020   2
   7   3   5 112.458 164.682   2
   7   3   6 2358.16 423.377   2
   7   3   7 708.606 366.813   2
   7   3   8 4272.24 603.498   2
   7   3   8 2867.75 362.995   4
   7   3   9 1253.76 359.286   2
   7   3   9 1106.70 251.012   4
   7   3  10 505.643 161.218   4
   7   3  11 1114.77 252.789   4
   7   3  12 135.799 98.0569   4
   7   3  13 300.606 180.225   4
   7   3  14 396.678 181.892   4
   7   3  15 1721.55 352.188   4
  -7  -4  14 6165.27 629.219   3
  -7  -4  13 431.235 171.629   3
   7   4 -12 293.870 162.734   2
  -7  -4  12 154.341 102.753   3
   7   4 -11 2022.63 389.151   2
  -7  -4  11 459.419 182.557   3
   7   4 -10 738.695 224.995   2
   7   4  -9 289.695 147.239   2
   7   4  -8 1016.17 258.692   7
   7   4  -8 798.705 260.524   2
   7   4  -7 685.093 174.713   7
   7   4  -7 653.769 237.265   2
   7   4  -6 2427.66 335.849   7
   7   4  -6 1998.30 359.836   2
   7   4  -5 255.654 144.521   7
   7   4  -5 772.727 250.119   2
   7   4  -4 53.9766 94.1296   7
   7   4  -4-105.592 152.119   2
   7   4  -3 681.763 181.716   7
   7   4  -3 639.116 218.786   2
   7   4  -2 1086.24 219.760   7
   7   4  -2 1339.34 316.147   2
   7   4  -1 2440.57 329.394   7
   7   4  -1 1900.47 373.561   2
   7   4   0 399.123 140.335   7
   7   4   0 259.895 158.379   2
   7   4   1 305.143 108.716   7
   7   4   1 342.651 189.976   2
   7   4   2 638.275 225.982   2
   7   4   2 679.417 179.227   7
   7   4   3 135.016 125.210   2
   7   4   3 416.450 156.675   7
   7   4   4 461.596 227.448   2
   7   4   4 147.691 97.6624   7
   7   4   5 3.24442 130.191   2
   7   4   6-21.5245 136.379   2
   7   4   7 1341.00 344.344   2
   7   4   8 203.289 184.840   2
   7   4   9 1024.83 344.251   2
   7   4  10 368.256 215.679   2
   7   4  11-2.03843 168.005   2
   7   4  12 66.2694 128.115   4
   7   5 -10 129.082 125.711   7
   7   5  -9 451.439 172.365   7
   7   5  -9 439.585 204.294   2
   7   5  -8-84.5018 126.462   7
   7   5  -8 69.6148 170.322   2
   7   5  -7 88.1852 114.056   7
   7   5  -7 151.578 142.872   2
   7   5  -6 1786.77 296.451   7
   7   5  -6 1567.48 347.554   2
   7   5  -5-347.244 178.152   7
   7   5  -5-215.952 179.863   2
   7   5  -4 2446.31 346.772   7
   7   5  -4 3791.56 540.241   2
   7   5  -3 1424.40 267.120   7
   7   5  -3 1362.27 340.655   2
   7   5  -2 129.927 145.520   7
   7   5  -2 187.414 182.483   2
   7   5  -1 3668.00 417.236   7
   7   5  -1 3424.28 514.685   2
   7   5   0 206.812 136.444   7
   7   5   0 175.653 186.497   2
   7   5   1 1031.91 230.190   7
   7   5   1 1267.06 335.118   2
   7   5   2 113.033 104.260   7
   7   5   2 266.570 191.069   2
   7   5   3 35.0326 127.884   2
   7   5   3 104.984 84.2167   7
   7   5   4 1152.04 316.711   2
   7   5   4 1212.04 239.045   7
   7   5   5 302.522 196.662   2
   7   5   5 23.1770 92.9271   7
   7   5   6 1972.53 427.151   2
   7   5   7 944.967 324.921   2
   7   5   8 35.1391 169.867   2
   7   5   9 898.235 320.721   2
   7   6  -1-52.4871 107.350   7
   7   6   0 127.202 126.742   7
   7   6   1 1345.46 273.473   7
   7   6   2 205.460 140.694   7
   7   6   3-148.583 135.218   7
   7   6   4 4.82305 89.6672   7
  -8  12   9 7.06339 150.750   1
  -8  12   8-175.905 151.657   1
  -8  12   7 314.046 183.696   1
  -8  12   6 1358.54 338.394   1
  -8  12   5 62.9122 132.277   1
  -8  12   4-407.180 218.027   1
   8 -12  -4 366.072 202.195   4
  -8  12   3 163.777 161.933   1
   8 -12  -3 127.536 178.420   4
  -8  12   2 188.604 175.356   1
   8 -12  -2 76.6594 125.966   4
  -8  12   1 217.342 161.900   1
   8 -12  -1 82.4968 139.642   4
   8 -12   0-81.8079 166.574   4
   8 -12   1 1235.20 333.255   4
   8 -12   2-86.6010 166.131   4
   8 -12   3 5715.00 703.305   4
   8 -12   4-49.7580 146.512   4
   8 -12   5 4097.39 602.165   4
  -8  11  11 621.298 205.385   1
  -8  11  10 124.521 158.047   1
  -8  11   9 634.881 222.468   1
  -8  11   8 609.846 223.754   1
  -8  11   7-71.1012 100.181   1
   8 -11  -6 1891.62 393.824   4
  -8  11   6 1519.00 335.008   1
  -8  11   5 87.7077 116.949   1
   8 -11  -5 150.054 158.285   4
  -8  11   4 0.75398 115.491   1
   8 -11  -4 96.1364 151.841   4
  -8  11   3 458.411 222.981   1
   8 -11  -3 48.4332 148.953   4
  -8  11   2 1177.57 324.647   1
   8 -11  -2 648.054 230.001   4
   8 -11  -1-149.471 188.980   4
   8 -11   0 331.225 180.076   4
   8 -11   1 3354.99 526.801   4
   8 -11   2 3148.25 504.903   4
   8 -11   3 6154.71 703.586   4
   8 -11   4 3385.75 530.829   4
   8 -11   5 236.724 212.126   4
   8 -11   6 32.2360 122.094   4
   8 -11   7 631.140 274.261   4
   8 -11   8 1009.36 325.290   4
   8 -11   9 148.006 182.502   4
   8 -11  10 52.2025 166.271   4
  -8  10  15 2202.10 380.272   5
  -8  10  14 1214.00 280.036   5
  -8  10  13 586.764 204.047   5
  -8  10  12 382.153 174.136   5
  -8  10  11-104.272 138.556   5
  -8  10  10 920.506 226.839   5
  -8  10  10 543.529 192.419   1
  -8  10   9 16.1569 86.0999   1
  -8  10   9 64.4590 101.113   5
  -8  10   8 1038.49 253.033   1
  -8  10   8 975.037 219.214   5
  -8  10   7-135.101 139.796   1
  -8  10   7 127.469 138.870   5
  -8  10   6 1253.08 284.005   1
  -8  10   6 949.732 223.107   5
   8 -10  -6 1070.11 295.964   4
  -8  10   5 2755.12 424.022   1
  -8  10   5 3101.15 385.934   5
   8 -10  -5 3424.42 484.446   4
  -8  10   4 101.628 133.851   1
  -8  10   4 237.070 168.860   5
   8 -10  -4 200.076 160.717   4
  -8  10   3 1295.44 314.547   1
  -8  10   3 1037.07 227.699   5
   8 -10  -3 1237.65 307.986   4
   8 -10  -2 196.512 140.257   4
   8 -10  -1 2379.88 433.571   4
   8 -10   0 7581.70 737.499   4
   8 -10   1 1530.67 357.920   4
   8 -10   2 4440.98 566.277   4
   8 -10   3 307.899 226.663   4
   8 -10   4 168.045 166.324   4
   8 -10   5 399.702 165.674   4
   8 -10   6 3920.34 549.979   4
   8 -10   7 252.024 177.639   4
   8 -10   8 220.765 164.977   4
   8 -10   9 63.6523 150.985   4
   8 -10  10 1434.55 355.989   4
   8 -10  11 65.7619 189.048   4
   8 -10  12 355.536 205.747   4
   8 -10  13 1512.65 371.687   4
  -8   9  16 290.793 170.339   5
  -8   9  15 3577.49 467.591   5
  -8   9  14 64.6987 130.011   5
  -8   9  13 125.559 116.360   5
  -8   9  12 283.323 146.402   5
  -8   9  11 1011.15 249.826   5
  -8   9  10-22.7132 123.560   5
  -8   9   9 582.427 176.962   1
  -8   9   9 927.449 230.910   5
  -8   9   8 257.683 132.885   1
  -8   9   8 575.918 194.577   5
  -8   9   7 150.021 140.117   5
  -8   9   7-46.3568 91.4647   1
   8  -9  -7-23.3978 107.836   4
  -8   9   6 361.404 143.936   1
  -8   9   6 1131.61 254.733   5
   8  -9  -6 817.219 235.252   4
  -8   9   5 787.759 213.518   5
  -8   9   5 455.773 180.398   1
   8  -9  -5 615.308 203.436   4
  -8   9   4 3313.81 410.334   5
   8  -9  -4 3541.72 471.712   4
  -8   9   4 3677.73 457.883   1
  -8   9   3 2007.27 315.486   5
   8  -9  -3 1395.44 304.551   4
  -8   9   2-125.256 146.754   5
   8  -9  -2 182.724 155.052   4
  -8   9   1 6109.37 540.987   5
   8  -9  -1 5637.06 609.216   4
   8  -9   0 10178.3 822.868   4
   8  -9   1 3845.08 514.333   4
   8  -9   2 68.0096 148.365   4
   8  -9   3 2015.61 384.413   4
   8  -9   4 532.911 206.146   4
   8  -9   5 1513.05 333.607   4
   8  -9   6 122.301 157.675   4
   8  -9   7 328.936 190.137   4
   8  -9   8 172.809 161.561   4
   8  -9   9 770.535 298.848   4
   8  -9  10 442.086 226.649   4
   8  -9  11 12.8096 136.216   4
   8  -9  12 72.2664 163.136   4
   8  -9  13 1649.83 395.415   4
   8  -9  14 1641.19 385.909   4
   8  -9  15 166.233 188.948   4
  -8   8  17 598.358 225.243   5
  -8   8  16 1420.40 312.640   5
  -8   8  15-136.859 116.495   5
  -8   8  14 601.071 205.540   5
  -8   8  13 86.9947 150.265   5
  -8   8  12 1659.18 323.029   5
  -8   8  11 734.544 220.635   5
  -8   8  10 477.123 178.317   5
  -8   8   9 5979.73 567.459   5
  -8   8   8 3271.33 364.013   1
  -8   8   8 3051.46 411.496   5
  -8   8   7 1921.23 323.295   5
  -8   8   7 1658.45 279.872   1
   8  -8  -7 2246.55 358.777   4
  -8   8   6 2601.78 351.936   1
  -8   8   6 2921.80 389.646   5
   8  -8  -6 2573.29 379.573   4
  -8   8   5 1023.64 218.654   1
  -8   8   5 1540.52 281.855   5
   8  -8  -5 1207.69 261.355   4
  -8   8   4 866.389 205.587   1
  -8   8   4 879.488 220.856   5
   8  -8  -4 755.537 232.256   4
  -8   8   3 3368.20 417.063   5
   8  -8  -3 3313.33 436.477   4
   8  -8  -2 375.086 115.367   2
   8  -8  -2 120.008 128.546   4
   8  -8  -1 117.190 101.006   2
   8  -8  -1 18.7935 130.000   4
   8  -8   0 13163.9 671.865   2
   8  -8   0 15107.9 957.154   4
   8  -8   1 9728.01 574.824   2
   8  -8   1 10793.8 808.403   4
   8  -8   2 2306.36 387.371   4
   8  -8   2 1820.02 254.721   2
   8  -8   3 194.417 165.905   4
   8  -8   3 123.387 91.5629   2
   8  -8   4 399.917 192.182   4
   8  -8   4 220.973 106.923   2
   8  -8   5 2875.46 428.233   4
   8  -8   5 3025.42 334.019   2
   8  -8   6-169.983 163.943   4
   8  -8   7 1603.96 333.867   4
   8  -8   8 407.260 195.289   4
   8  -8   9-30.6027 174.849   4
   8  -8  10-138.890 182.853   4
   8  -8  11 6514.17 711.452   4
   8  -8  12 816.119 275.034   4
   8  -8  13 5772.19 679.167   4
   8  -8  14 3748.03 555.559   4
   8  -8  15 61.6268 123.793   4
   8  -8  16 2691.81 493.667   4
  -8   7  17 2984.92 452.558   5
  -8   7  16 567.068 221.415   5
  -8   7  15 2862.60 423.649   5
  -8   7  14 23.5563 134.074   5
  -8   7  13 2611.49 396.623   5
  -8   7  12 2312.37 374.923   5
  -8   7  11 776.135 226.099   5
  -8   7  10 3290.81 434.245   5
  -8   7   9 14507.7 902.012   5
  -8   7   8 353.532 119.915   5
   8  -7  -8 549.856 192.431   4
  -8   7   7 1764.36 245.595   1
  -8   7   7 1205.31 267.579   5
   8  -7  -7 1443.09 266.393   4
  -8   7   6 2413.59 362.920   5
  -8   7   6 3270.17 346.933   1
   8  -7  -6 3016.91 375.915   4
  -8   7   5 2333.63 302.482   1
  -8   7   5 1845.04 323.808   5
   8  -7  -5 2115.61 328.213   4
   8  -7  -4 189.324 103.015   2
   8  -7  -4 125.832 108.845   4
   8  -7  -3 1204.14 216.587   2
   8  -7  -3 1293.95 256.826   4
   8  -7  -2 151.173 88.0146   2
   8  -7  -2 9.01729 108.824   4
   8  -7  -1 2543.77 367.455   4
   8  -7  -1 2209.04 291.023   2
   8  -7   0 1916.62 317.138   4
   8  -7   0 1664.40 249.361   2
   8  -7   1 11700.3 681.723   2
   8  -7   1 10899.1 774.320   4
   8  -7   2 90.7304 110.908   4
   8  -7   2 109.673 115.336   2
   8  -7   3 3067.82 412.519   4
   8  -7   3 2566.05 319.020   2
   8  -7   4 3223.99 434.200   4
   8  -7   4 2661.08 340.925   2
   8  -7   5 5635.72 504.017   2
   8  -7   5 5722.43 582.292   4
   8  -7   6 374.700 163.124   4
   8  -7   6 476.782 158.846   2
   8  -7   7 2197.98 334.049   2
   8  -7   7 3096.02 438.481   4
   8  -7   8 8681.49 674.828   2
   8  -7   8 7720.34 703.487   4
   8  -7   9 235.137 143.467   2
   8  -7   9 313.927 174.513   4
   8  -7  10 261.538 138.989   2
   8  -7  10 543.363 210.826   4
   8  -7  11 123.395 147.964   4
   8  -7  11 158.119 137.880   2
   8  -7  12 40.6267 131.538   4
   8  -7  12 384.649 188.274   2
   8  -7  13 2589.71 446.308   4
   8  -7  13 3449.87 480.983   2
   8  -7  14 131.496 147.364   4
   8  -7  15-133.818 176.189   4
   8  -7  16-78.7661 167.457   4
   8  -7  17 180.130 132.241   4
  -8   6  18 632.661 202.830   5
  -8   6  17 1017.20 273.002   5
  -8   6  16 190.456 153.709   5
  -8   6  15 2555.03 403.544   5
  -8   6  14 128.603 141.113   5
  -8   6  13 3918.46 485.179   5
  -8   6  12 4549.21 509.587   5
  -8   6  11-82.2078 152.559   5
  -8   6  10 7704.26 668.245   5
  -8   6   9 11203.2 792.771   5
  -8   6   8 8916.42 711.510   5
   8  -6  -8 9213.06 624.427   4
  -8   6   7 3897.61 472.388   5
   8  -6  -7 4272.41 423.013   4
   8  -6  -6 1502.01 254.604   2
  -8   6   6 1846.42 316.686   5
  -8   6   6 2119.11 248.460   1
   8  -6  -6 1563.50 253.725   4
   8  -6  -5 4214.20 418.213   2
   8  -6  -5 3847.97 409.232   4
  -8   6   5 3869.83 344.435   1
   8  -6  -4 4460.42 425.403   2
   8  -6  -4 4910.89 469.614   4
   8  -6  -3 6274.95 505.549   2
   8  -6  -3 6842.29 547.119   4
   8  -6  -2 1526.10 265.258   4
   8  -6  -2 1453.91 250.265   2
   8  -6  -1 2936.15 364.590   4
   8  -6  -1 2865.37 346.812   2
   8  -6   0 2354.16 340.167   4
   8  -6   0 2385.92 320.288   2
   8  -6   1 262.775 152.148   4
   8  -6   1 53.0758 81.9072   2
   8  -6   2 15137.6 843.307   2
   8  -6   2 15595.3 892.726   4
   8  -6   3 2914.68 405.553   4
   8  -6   3 3539.49 414.904   2
   8  -6   4 17705.1 945.615   2
   8  -6   4 16619.5 955.257   4
   8  -6   5 10902.2 759.614   2
   8  -6   5 11710.0 802.408   4
   8  -6   6 222.999 138.977   2
   8  -6   6 441.518 197.312   4
   8  -6   7 9736.00 740.015   2
   8  -6   7 9523.69 749.048   4
   8  -6   8 118.893 115.405   2
   8  -6   8-35.0491 139.541   4
   8  -6   9 277.182 156.841   2
   8  -6   9-19.5202 115.067   4
   8  -6  10 5351.33 589.362   2
   8  -6  10 4324.27 523.012   4
   8  -6  11 1724.94 347.558   4
   8  -6  11 1584.13 334.325   2
   8  -6  12 3321.58 481.055   4
   8  -6  13 3275.76 484.193   4
   8  -6  14 645.303 233.561   4
   8  -6  15 230.194 217.687   4
   8  -6  16 721.961 280.707   4
   8  -6  17 106.125 166.347   4
   8  -6  18 28.4908 134.825   4
  -8   5  19 2841.29 433.052   5
  -8   5  18 317.081 173.427   5
  -8   5  17 185.414 142.092   5
  -8   5  16 8.86631 147.948   5
  -8   5  15 1530.23 311.165   5
  -8   5  14-9.92907 116.959   5
  -8   5  13 5421.38 558.085   5
  -8   5  12 1733.91 333.099   5
  -8   5  11 271.997 163.526   5
  -8   5  10 4078.85 479.610   5
  -8   5   9 1797.16 328.586   5
   8  -5  -8 428.189 160.415   2
  -8   5   8 156.905 135.817   5
   8  -5  -7 28.3296 82.8595   2
  -8   5   7-210.201 163.463   5
   8  -5  -7 70.5424 97.4244   4
   8  -5  -6 219.289 111.881   2
   8  -5  -6 168.051 98.1883   4
   8  -5  -5 126.071 102.584   2
   8  -5  -5 141.057 87.3556   4
   8  -5  -4 1861.37 292.354   2
   8  -5  -4 1929.72 271.594   4
   8  -5  -3 2357.78 299.386   4
   8  -5  -3 2061.00 305.768   2
   8  -5  -2 3526.46 405.090   2
   8  -5  -2 3373.31 372.761   4
   8  -5  -1 17817.5 933.432   2
   8  -5  -1 17588.1 863.517   4
   8  -5   0 2322.19 345.243   2
   8  -5   0 3092.52 364.828   4
   8  -5   1 7895.87 628.156   2
   8  -5   1 7935.90 585.976   4
   8  -5   2 14107.0 855.432   2
   8  -5   2 14503.5 830.191   4
   8  -5   3 408.914 173.574   4
   8  -5   3 454.564 195.142   2
   8  -5   4 19390.3 1038.38   2
   8  -5   4 18392.8 964.642   4
   8  -5   5 103.936 127.485   2
   8  -5   5-15.8989 118.653   4
   8  -5   6 4564.48 521.073   2
   8  -5   6 4665.07 489.916   4
   8  -5   7 19925.1 1114.02   2
   8  -5   7 18563.3 1007.44   4
   8  -5   8-51.0885 106.221   2
   8  -5   8 98.5680 99.2815   4
   8  -5   9 2202.58 343.555   4
   8  -5   9 2228.67 390.099   2
   8  -5  10 4566.97 571.011   2
   8  -5  10 4133.15 500.346   4
   8  -5  11 677.040 209.172   4
   8  -5  12 232.904 156.957   4
   8  -5  13 685.172 237.365   4
   8  -5  14-171.618 167.017   4
   8  -5  15-168.426 166.971   4
   8  -5  16 740.926 263.090   4
   8  -5  17 1199.81 313.280   4
   8  -5  18 345.327 215.285   4
  -8   4  19 663.224 233.219   5
  -8   4  18 152.938 125.202   5
  -8   4  17 295.462 164.256   5
  -8   4  16 940.128 263.451   5
  -8   4  15 339.057 186.434   5
  -8   4  14 3429.65 468.451   5
  -8   4  13 3177.05 430.179   5
  -8   4  12 1121.67 282.719   5
  -8   4  11 5048.53 539.165   5
  -8   4  10 153.004 130.540   5
   8  -4  -9 222.384 133.978   2
  -8   4   9 169.249 141.838   5
  -8   4   8 832.483 146.351   3
   8  -4  -8 1051.34 245.189   2
  -8   4   8 948.687 241.193   5
  -8   4   7 341.795 92.0283   3
   8  -4  -7 107.167 117.852   2
   8  -4  -7 116.968 84.4692   4
  -8   4   6 126.203 57.0157   3
   8  -4  -6 213.791 97.7077   2
   8  -4  -6 209.759 97.1704   4
   8  -4  -5 6256.32 546.006   2
   8  -4  -5 5515.43 407.204   4
  -8   4   5 5438.56 324.448   3
   8  -4  -4 7991.20 502.368   4
  -8   4   4 6645.48 347.825   3
   8  -4  -3 1175.61 196.461   4
   8  -4  -3 864.423 222.834   2
  -8   4   3 1129.80 138.210   3
   8  -4  -2 3703.30 429.162   2
   8  -4  -2 3811.12 358.947   4
  -8   4   2 3457.93 219.352   3
   8  -4  -1 7777.18 629.519   2
   8  -4  -1 8354.59 547.326   4
  -8   4   1 7498.08 311.376   3
  -8   4   0 812.109 95.6677   3
   8  -4   0 670.724 169.505   4
   8  -4   0 874.904 217.775   2
   8  -4   1 10769.3 756.938   2
   8  -4   1 11093.1 672.924   4
   8  -4   2 1636.03 256.960   4
   8  -4   2 2085.98 336.058   2
   8  -4   3 51.3875 107.458   2
   8  -4   3 340.829 147.013   4
   8  -4   4 7152.08 647.938   2
   8  -4   4 6557.89 547.429   4
   8  -4   5 7226.95 657.118   2
   8  -4   5 6920.17 564.159   4
   8  -4   6 130.823 114.972   2
   8  -4   6-101.096 152.327   4
   8  -4   7 9630.00 796.929   2
   8  -4   7 8396.72 655.580   4
   8  -4   8 5117.82 524.742   4
   8  -4   8 6691.04 677.818   2
   8  -4   9 507.153 185.067   4
   8  -4   9 364.648 186.459   2
   8  -4  10 1087.62 257.106   4
   8  -4  11-63.3708 119.316   4
   8  -4  12 50.5309 116.628   4
   8  -4  13 335.288 172.800   4
   8  -4  14 1137.82 276.813   4
   8  -4  15 174.823 169.271   4
   8  -4  16 3079.70 478.171   4
   8  -4  17 141.086 150.729   4
   8  -4  18 469.943 238.502   4
  -8   3  19 961.436 260.608   5
  -8   3  18 658.915 213.731   5
  -8   3  17 2564.71 400.390   5
  -8   3  16 114.978 142.556   5
  -8   3  15 265.227 186.701   5
  -8   3  14-120.537 106.282   3
  -8   3  14-74.1995 127.967   5
  -8   3  13 694.281 156.654   3
  -8   3  13 768.689 229.076   5
  -8   3  12 116.063 94.4632   3
  -8   3  12-100.012 131.778   5
  -8   3  11 383.766 132.160   3
  -8   3  11 267.447 169.074   5
  -8   3  10 1500.97 208.218   3
   8  -3 -10 1962.08 332.002   2
  -8   3  10 1746.43 334.104   5
  -8   3   9 62.2937 62.4845   3
   8  -3  -9 184.863 145.573   2
  -8   3   9 126.755 153.035   5
  -8   3   8 1633.91 203.507   3
   8  -3  -8 1688.60 305.621   2
   8  -3  -7 2662.38 370.706   2
  -8   3   7 2753.35 258.200   3
   8  -3  -6 2119.84 327.358   2
  -8   3   6 2187.48 228.181   3
   8  -3  -5 9840.53 707.553   2
  -8   3   5 10351.1 481.025   3
   8  -3  -4 2497.77 364.434   2
   8  -3  -4 2185.86 239.687   4
  -8   3   4 2327.14 217.992   3
   8  -3  -3 3560.08 426.338   2
  -8   3   3 2939.74 233.693   3
   8  -3  -3 2748.15 276.958   4
   8  -3  -2 1518.06 209.817   4
   8  -3  -2 1312.26 262.731   2
  -8   3   2 1608.32 169.800   3
   8  -3  -1 1273.86 207.811   4
  -8   3   1 1186.71 141.856   3
   8  -3  -1 1482.19 290.663   2
   8  -3   0 1.46999 68.7646   4
   8  -3   0-62.3151 141.585   2
  -8   3   0 13.3536 40.8765   3
   8  -3   1 1040.21 198.543   4
  -8   3  -1 888.755 119.846   3
   8  -3   1 892.284 249.940   2
   8  -3   2 3899.19 380.887   4
   8  -3   2 2967.17 415.075   2
   8  -3   3 1492.11 321.672   2
   8  -3   3 1348.97 242.163   4
   8  -3   4 2100.17 373.597   2
   8  -3   4 2746.26 349.143   4
   8  -3   5 4499.63 438.344   4
   8  -3   5 3520.99 475.176   2
   8  -3   6 812.336 246.556   2
   8  -3   6 488.917 166.644   4
   8  -3   7-65.3291 141.636   2
   8  -3   7-490.261 173.500   4
   8  -3   8 5703.20 538.623   4
   8  -3   8 5950.40 651.136   2
   8  -3   9 194.757 179.515   2
   8  -3   9-6.25982 92.4893   4
   8  -3  10 3548.02 444.724   4
   8  -3  11 739.891 210.899   4
   8  -3  12 477.748 194.312   4
   8  -3  13 2092.06 383.840   4
   8  -3  14 34.4065 126.245   4
   8  -3  15 928.457 270.272   4
   8  -3  16 2076.69 412.354   4
   8  -3  17-45.6580 135.975   4
   8  -3  18 2963.36 508.802   4
  -8   2  20 423.851 199.394   5
  -8   2  19 210.333 173.521   5
  -8   2  18 738.826 207.815   3
  -8   2  18 1121.02 268.522   5
  -8   2  17 428.125 157.477   3
  -8   2  17 305.686 179.443   5
  -8   2  16 434.415 160.109   3
  -8   2  16 884.312 237.115   5
  -8   2  15 74.0252 93.0239   3
  -8   2  15 484.064 205.958   5
  -8   2  14 1001.64 192.252   3
  -8   2  14 1617.67 324.354   5
  -8   2  13 2160.98 289.379   3
  -8   2  13 2290.87 365.757   5
  -8   2  12 3148.73 434.288   5
  -8   2  12 3105.54 336.280   3
  -8   2  11 1812.46 254.198   3
   8  -2 -11 1550.02 373.348   2
  -8   2  11 1546.78 308.906   5
  -8   2  10 238.027 111.834   3
   8  -2 -10-133.563 126.878   2
  -8   2  10 16.5338 114.217   5
  -8   2   9 47.1491 61.0321   3
   8  -2  -9 179.093 148.509   2
  -8   2   9 9.34489 144.964   5
   8  -2  -8 5025.00 514.036   2
  -8   2   8 5314.78 393.611   3
  -8   2   7 168.004 101.028   3
   8  -2  -7 129.284 123.009   2
   8  -2  -6 10341.2 740.341   2
  -8   2   6 9934.65 521.722   3
   8  -2  -5 3263.35 419.398   2
  -8   2   5 2751.47 266.915   3
   8  -2  -4 144.796 147.097   2
  -8   2   4 12.7050 49.7899   3
   8  -2  -3 3502.84 442.879   2
  -8   2   3 3868.87 302.362   3
   8  -2  -2 138.473 118.969   2
  -8   2   2 539.785 114.694   3
   8  -2  -1 211.671 99.5233   4
   8  -2  -1 281.204 148.460   2
   8  -2   0 2014.63 244.097   4
   8  -2   0 2507.63 384.222   2
   8  -2   1 10735.1 790.950   2
   8  -2   1 9441.47 563.502   4
   8  -2   2 1699.53 327.808   2
   8  -2   2 1702.09 251.311   4
   8  -2   3-61.1933 151.404   2
   8  -2   3 120.899 92.6542   4
   8  -2   4 1668.37 342.789   2
   8  -2   4 2033.44 289.216   4
   8  -2   5 1987.18 367.970   2
   8  -2   5 1124.26 227.221   4
   8  -2   6 20044.2 955.000   4
   8  -2   6 21578.3 1228.09   2
   8  -2   7 128.202 187.852   2
   8  -2   7 1157.69 258.826   4
   8  -2   8 2459.27 457.249   2
   8  -2   8 2248.10 331.050   4
   8  -2   9 4041.66 449.766   4
   8  -2   9 5207.81 649.258   2
   8  -2  10 2822.96 384.377   4
   8  -2  11 10800.8 785.088   4
   8  -2  12 3314.91 462.298   4
   8  -2  13 1628.83 333.917   4
   8  -2  14 821.210 242.122   4
   8  -2  15 1123.61 291.270   4
   8  -2  16 484.189 229.678   4
   8  -2  17-201.639 220.186   4
   8  -2  18 37.2119 180.295   4
  -8   1  20 335.656 164.213   5
  -8   1  19-5.64960 119.234   3
  -8   1  19 169.821 145.233   5
  -8   1  18 148.800 112.604   3
  -8   1  18 54.0704 116.451   5
  -8   1  17 105.037 115.930   3
  -8   1  17 134.176 140.283   5
  -8   1  16-2.02959 100.598   3
  -8   1  16 33.8953 119.265   5
  -8   1  15 110.094 98.8603   3
  -8   1  15 40.7310 102.600   5
  -8   1  14 333.853 131.470   3
  -8   1  14 324.164 165.905   5
  -8   1  13 7726.57 671.531   5
  -8   1  13 6090.62 502.101   3
  -8   1  12-54.2671 89.5098   3
   8  -1 -12 250.341 172.851   2
  -8   1  12 77.0063 144.799   5
  -8   1  11 393.618 137.076   3
   8  -1 -11 465.467 202.644   2
  -8   1  11 378.895 175.923   5
   8  -1 -10 6926.82 629.571   2
  -8   1  10 5993.92 589.265   5
  -8   1  10 6176.88 477.528   3
   8  -1  -9 4846.33 524.623   2
  -8   1   9 4556.63 392.929   3
   8  -1  -8 5505.96 554.742   2
  -8   1   8 4801.54 401.871   3
   8  -1  -7 733.145 202.751   2
  -8   1   7 796.179 169.925   3
   8  -1  -6 329.907 175.619   2
  -8   1   6 370.352 111.584   3
   8  -1  -5 2981.35 411.074   2
  -8   1   5 2290.91 262.486   3
   8  -1  -4-105.849 121.010   2
  -8   1   4 45.1042 64.9436   3
   8  -1  -3 304.923 170.332   2
   8  -1  -2 2091.49 352.504   2
   8  -1  -1 55.9423 131.410   2
   8  -1   0 4623.12 527.805   2
   8  -1   1 633.388 145.237   4
   8  -1   1 782.983 240.327   2
   8  -1   2 837.327 259.222   2
   8  -1   2 666.390 168.393   4
   8  -1   3 10668.3 616.571   4
   8  -1   3 10356.3 832.525   2
   8  -1   4 1031.72 286.238   2
   8  -1   4 1490.27 241.541   4
   8  -1   5 8101.66 566.340   4
   8  -1   5 7189.11 699.359   2
   8  -1   6-57.6215 129.466   2
   8  -1   6 157.697 132.022   4
   8  -1   7 6029.81 524.151   4
   8  -1   7 6361.53 697.594   2
   8  -1   8 54.9388 145.479   2
   8  -1   8 195.471 114.607   4
   8  -1   9 2817.00 489.513   2
   8  -1   9 2722.21 379.533   4
   8  -1  10 295.653 157.366   4
   8  -1  11 2727.56 386.187   4
   8  -1  12 5322.62 569.139   4
   8  -1  13 949.814 250.216   4
   8  -1  14 173.125 124.194   4
   8  -1  15 357.199 202.896   4
   8  -1  16 524.813 225.349   4
   8  -1  17-110.376 160.037   4
  -8   0  20 231.415 163.860   5
  -8   0  19 296.240 155.517   5
  -8   0  18-105.813 142.876   3
  -8   0  18 112.736 136.575   5
  -8   0  17 107.497 112.594   3
  -8   0  17-30.9685 125.968   5
  -8   0  16 846.959 219.368   3
  -8   0  16 1012.10 271.497   5
  -8   0  15 383.045 174.092   3
  -8   0  15 13.4540 121.007   5
  -8   0  14 1830.65 302.963   3
  -8   0  14 2054.53 347.225   5
  -8   0  13 2028.57 306.379   3
  -8   0  13 2672.64 399.331   5
  -8   0  12 2523.72 337.016   3
   8   0 -12 2712.04 418.169   2
  -8   0  12 2930.30 410.257   5
   8   0 -11 789.665 247.718   2
  -8   0  11 609.285 192.977   5
  -8   0  11 540.336 162.912   3
   8   0 -10 1106.07 268.181   2
  -8   0  10 947.048 241.513   5
  -8   0  10 1382.91 245.490   3
   8   0  -9 710.851 217.408   2
  -8   0   9 916.242 201.383   3
   8   0  -8 10883.8 797.701   2
  -8   0   8 10640.6 659.320   3
   8   0  -7 465.332 215.195   2
  -8   0   7 119.045 97.1073   3
   8   0  -6 118.535 137.135   2
  -8   0   6-49.0876 106.602   3
   8   0  -5 13089.6 885.607   2
   8   0  -4 850.906 252.010   2
   8   0  -3 42.8448 131.775   2
   8   0  -2 604.247 199.982   2
   8   0  -1-57.8853 179.840   2
   8   0   0 947.029 265.482   2
   8   0   1 5495.95 593.097   2
   8   0   2-79.6730 121.394   2
   8   0   3 3438.90 504.747   2
   8   0   4 1835.34 381.946   2
   8   0   4 1308.85 222.425   4
   8   0   5 181.073 155.730   2
   8   0   5 260.579 118.888   4
   8   0   6 5879.03 487.384   4
   8   0   6 6001.39 669.994   2
   8   0   7 1995.90 406.670   2
   8   0   7 1371.71 257.676   4
   8   0   8 3466.30 540.533   2
   8   0   8 2141.99 328.177   4
   8   0   9 4112.60 444.499   4
   8   0   9 3980.04 601.489   2
   8   0  10 190.211 149.659   4
   8   0  11 86.3875 133.866   4
   8   0  12 601.993 202.977   4
   8   0  13 877.482 246.689   4
   8   0  14 150.223 140.071   4
   8   0  15 511.791 217.588   4
   8   0  16 381.399 199.704   4
  -8  -1  20 318.164 187.385   5
  -8  -1  19 644.968 210.016   5
  -8  -1  18 126.326 138.444   5
  -8  -1  17 579.284 203.244   3
  -8  -1  17 585.001 189.874   5
  -8  -1  16 2833.62 396.131   3
  -8  -1  16 2144.09 364.044   5
  -8  -1  15 216.438 132.622   3
  -8  -1  15 78.8906 144.820   5
  -8  -1  14 5416.01 561.615   5
  -8  -1  14 4552.96 489.962   3
  -8  -1  13 988.866 258.560   5
  -8  -1  13 1232.21 255.426   3
   8   1 -12 678.908 236.002   2
  -8  -1  12 380.430 153.113   5
  -8  -1  12 373.507 144.494   3
   8   1 -11 3445.01 463.410   2
  -8  -1  11 2840.10 403.811   5
  -8  -1  11 3615.26 420.866   3
   8   1 -10 264.534 172.224   2
  -8  -1  10 358.210 168.597   5
  -8  -1  10 120.481 114.838   3
   8   1  -9 389.949 172.081   2
  -8  -1   9 386.283 158.256   3
   8   1  -8 357.216 184.552   2
  -8  -1   8 502.048 160.586   3
   8   1  -7 742.477 231.833   2
   8   1  -6 120.908 151.666   2
   8   1  -5 242.542 137.514   2
   8   1  -4 184.438 141.071   2
   8   1  -3 403.289 183.156   2
   8   1  -2 1248.15 288.835   2
   8   1  -1 642.387 214.283   2
   8   1   0 147.031 168.554   2
   8   1   1 57.9887 108.218   2
   8   1   2 574.658 226.219   2
   8   1   3 2414.86 429.365   2
   8   1   4-143.716 188.064   2
   8   1   5 587.000 262.977   2
   8   1   6 2366.84 439.893   2
   8   1   7 5821.74 511.597   4
   8   1   7 6926.47 753.248   2
   8   1   8 3450.17 544.752   2
   8   1   8 2843.52 366.983   4
   8   1   9 3881.44 444.503   4
   8   1   9 4037.06 622.447   2
   8   1  10 20.3315 138.856   2
   8   1  10-62.3673 108.885   4
   8   1  11 1154.19 257.051   4
   8   1  12-18.8339 100.613   4
   8   1  13-55.2729 99.4940   4
   8   1  14 1025.56 275.054   4
   8   1  15-144.557 132.558   4
  -8  -2  16 2033.42 363.523   3
  -8  -2  16 2490.45 381.051   5
  -8  -2  15 2488.15 383.705   3
  -8  -2  15 2252.59 363.836   5
  -8  -2  14 488.117 174.014   5
  -8  -2  14 862.722 233.936   3
  -8  -2  13 71.2797 104.570   5
  -8  -2  13 296.461 158.277   3
   8   2 -12-16.1788 106.753   2
  -8  -2  12-181.488 147.738   5
  -8  -2  12-160.604 142.779   3
   8   2 -11 1323.62 306.220   2
  -8  -2  11 970.529 253.501   5
  -8  -2  11 743.042 213.353   3
   8   2 -10-16.3266 106.056   2
  -8  -2  10 203.569 146.023   5
  -8  -2  10 104.033 112.130   3
   8   2  -9 545.004 193.115   2
  -8  -2   9 482.228 180.855   5
  -8  -2   9 702.245 208.333   3
   8   2  -8 137.465 125.142   2
   8   2  -7 426.703 206.269   2
   8   2  -6 168.991 154.261   2
   8   2  -5 255.881 140.969   2
   8   2  -4-175.920 147.466   2
   8   2  -3 234.665 143.750   2
   8   2  -2 3837.48 515.409   2
   8   2  -1-258.973 167.322   2
   8   2   0 4739.39 590.596   2
   8   2   1 4576.69 569.005   2
   8   2   2 90.2614 145.299   2
   8   2   3 4919.74 613.627   2
   8   2   4 3136.94 492.359   2
   8   2   5 65.5672 135.675   2
   8   2   6 3535.06 541.265   2
   8   2   7 1950.18 410.283   2
   8   2   8 6525.19 781.399   2
   8   2   9 789.713 316.598   2
   8   2  10 266.265 170.845   2
   8   2  11-68.9443 187.575   2
   8   2  11 5.19876 97.2319   4
   8   2  12-26.5633 115.496   4
   8   2  13 63.4824 132.689   4
   8   2  14-228.728 166.852   4
  -8  -3  13 66.7212 110.284   3
   8   3 -12 499.377 218.697   2
  -8  -3  12 811.224 226.275   3
   8   3 -11 82.8860 128.440   2
  -8  -3  11 122.971 116.938   3
   8   3 -10 716.291 231.829   2
  -8  -3  10 765.166 234.364   3
   8   3  -9 119.255 124.375   2
   8   3  -8 2088.95 382.096   2
   8   3  -7 102.662 104.438   2
   8   3  -6 348.857 193.235   2
   8   3  -5 1250.65 313.049   2
   8   3  -4 804.471 256.497   2
   8   3  -3-12.1435 146.190   2
   8   3  -2 5200.41 613.901   2
   8   3  -1 366.319 184.440   2
   8   3   0 4236.70 584.642   2
   8   3   1-137.639 121.128   2
   8   3   2 910.291 277.314   2
   8   3   3 1677.77 369.607   2
   8   3   4 488.255 227.695   2
   8   3   5 1386.47 348.514   2
   8   3   6 559.227 243.448   2
   8   3   7-33.4732 135.222   2
   8   3   8 2256.54 458.872   2
   8   3   9-18.0013 161.030   2
   8   4 -12 1043.63 297.886   2
   8   4 -11 76.0750 138.559   2
   8   4 -10 460.007 215.652   2
   8   4  -9 1558.88 338.475   2
   8   4  -8 1018.07 289.659   2
   8   4  -7 691.734 249.278   2
   8   4  -6 5372.41 629.565   2
   8   4  -5 1351.17 336.671   2
   8   4  -4-121.861 194.223   2
   8   4  -3 5177.68 642.861   2
   8   4  -2 738.088 267.878   2
   8   4  -1 922.027 271.314   2
   8   4   0 1685.84 394.733   2
   8   4   1 667.165 253.077   2
   8   4   2 1481.92 365.873   2
   8   4   3 4.37714 175.541   2
   8   4   4 536.490 286.669   2
   8   4   5 415.212 208.232   2
   8   4   6 418.993 244.055   2
   8   4   7 23.6797 137.892   2
   8   5  -5 487.251 227.945   2
   8   5  -4-33.0634 132.610   2
   8   5  -3 1361.62 347.580   2
   8   5  -2-66.5033 160.015   2
   8   5  -1 1818.09 417.533   2
   8   5   0 133.782 149.448   2
   8   5   1 1020.30 330.314   2
   8   5   2 396.041 233.232   2
   8   5   3 258.194 184.109   2
   8   5   4 1649.89 410.562   2
  -9  12   6 2096.54 401.102   1
  -9  12   5 208.822 193.316   1
  -9  12   4 1364.84 375.018   1
  -9  12   3 159.416 195.830   1
  -9  12   2 1118.40 348.153   1
  -9  12   1 949.167 320.798   1
  -9  11   6 327.891 174.086   1
   9 -11  -6 280.463 182.747   4
  -9  11   5 889.427 247.308   1
   9 -11  -5 1199.24 316.216   4
  -9  11   4 2039.66 406.059   1
   9 -11  -4 2151.12 421.556   4
  -9  11   3 3986.06 568.077   1
   9 -11  -3 2820.76 468.813   4
  -9  11   2 1366.65 345.744   1
   9 -11  -2 1051.97 308.021   4
   9 -11  -1 748.855 273.005   4
   9 -11   0 231.434 202.121   4
   9 -11   1 302.553 178.296   4
   9 -11   2 680.012 302.687   4
   9 -11   3 569.971 252.803   4
   9 -11   4 130.605 196.453   4
   9 -11   5 6009.32 719.448   4
   9 -11   6-77.3972 144.688   4
   9 -11   7 1030.19 317.411   4
   9 -11   8 756.441 299.963   4
  -9  10  13 1504.00 321.658   5
  -9  10  12 269.998 177.125   5
  -9  10  11-139.514 147.707   5
  -9  10  10 529.945 218.705   5
  -9  10   9 191.070 121.945   5
  -9  10   8 508.552 221.478   5
  -9  10   7 293.633 165.336   5
   9 -10  -7 345.013 186.233   4
  -9  10   6 350.446 163.163   1
  -9  10   6 805.324 233.443   5
   9 -10  -6 592.628 221.591   4
  -9  10   5 69.7721 108.282   1
  -9  10   5 360.092 198.941   5
   9 -10  -5 327.285 199.202   4
  -9  10   4 137.010 133.259   1
  -9  10   4 82.1951 106.078   5
   9 -10  -4 241.224 168.388   4
  -9  10   3 252.710 160.913   1
  -9  10   3 111.434 101.974   5
   9 -10  -3 72.1469 115.219   4
  -9  10   2 626.956 216.962   5
   9 -10  -2 769.889 249.687   4
  -9  10   1 19.9226 107.671   5
   9 -10  -1 249.029 184.350   4
  -9  10   0 400.537 176.364   5
   9 -10   0 237.433 129.019   4
   9 -10   1 727.150 257.323   4
   9 -10   2 299.136 208.494   4
   9 -10   3 245.891 177.875   4
   9 -10   4 4945.84 616.974   4
   9 -10   5 655.767 255.590   4
   9 -10   6 1221.64 320.338   4
   9 -10   7 170.263 126.033   4
   9 -10   8-31.0069 153.344   4
   9 -10   9 385.293 209.062   4
   9 -10  10 2166.81 440.862   4
   9 -10  11 74.0019 186.675   4
  -9   9  14-34.9555 129.250   5
  -9   9  13 4358.36 529.346   5
  -9   9  12 28.3865 137.407   5
  -9   9  11 36.7197 148.012   5
  -9   9  10 394.404 203.721   5
  -9   9   9 1598.53 324.163   5
  -9   9   8 314.586 170.889   5
  -9   9   7 2720.66 409.002   5
   9  -9  -7 2451.60 409.688   4
  -9   9   6 392.679 190.309   5
   9  -9  -6 612.861 216.133   4
  -9   9   5 1394.99 292.816   5
  -9   9   5 1592.40 303.643   1
   9  -9  -5 1435.08 320.345   4
  -9   9   4 725.266 229.415   1
  -9   9   4 936.821 236.828   5
   9  -9  -4 789.029 233.297   4
  -9   9   3 549.444 196.101   5
   9  -9  -3 637.131 238.705   4
  -9   9   2 467.167 193.414   5
   9  -9  -2 579.588 226.391   4
   9  -9  -1 969.236 274.338   4
   9  -9   0 3296.71 483.400   4
   9  -9   1 1048.63 307.599   4
   9  -9   2 511.305 227.234   4
   9  -9   3 3796.83 527.952   4
   9  -9   4 2198.48 412.867   4
   9  -9   5 72.4160 154.812   4
   9  -9   6 167.489 174.704   4
   9  -9   7 89.2333 124.624   4
   9  -9   8 2119.57 409.558   4
   9  -9   9 37.8092 123.662   4
   9  -9  10 432.206 213.550   4
   9  -9  11 349.277 204.766   4
   9  -9  12 1414.58 372.255   4
   9  -9  13 7461.23 832.055   4
  -9   8  15-128.417 144.520   5
  -9   8  14 311.735 201.642   5
  -9   8  13 585.385 214.122   5
  -9   8  12 78.6133 113.516   5
  -9   8  11 62.8807 118.760   5
  -9   8  10 131.383 169.783   5
  -9   8   9 4804.99 542.724   5
  -9   8   8 307.715 176.607   5
   9  -8  -8 271.195 160.936   4
  -9   8   7 302.872 177.735   5
   9  -8  -7 261.196 142.226   4
  -9   8   6 337.310 150.296   5
   9  -8  -6 638.192 203.027   4
  -9   8   5-32.3407 177.465   5
   9  -8  -5-61.8259 129.363   4
  -9   8   4 3306.89 448.173   5
  -9   8   4 3519.69 400.648   1
   9  -8  -3 2787.13 340.215   2
   9  -8  -3 2970.59 416.098   4
   9  -8  -2 235.399 116.125   2
   9  -8  -2 129.547 133.228   4
   9  -8  -1 462.949 148.597   2
   9  -8  -1 224.517 111.537   4
   9  -8   0 1718.98 341.298   4
   9  -8   0 2374.81 309.235   2
   9  -8   1 9030.03 611.765   2
   9  -8   1 8914.26 748.539   4
   9  -8   2 1142.26 298.477   4
   9  -8   2 609.755 192.980   2
   9  -8   3 10570.8 691.180   2
   9  -8   3 10397.6 834.737   4
   9  -8   4 1880.89 365.267   4
   9  -8   4 2642.52 349.262   2
   9  -8   5-292.930 172.141   4
   9  -8   5-131.967 131.130   2
   9  -8   6 571.365 211.698   4
   9  -8   6 498.109 162.839   2
   9  -8   7 1682.61 367.881   4
   9  -8   8 328.210 188.848   4
   9  -8   9 210.373 183.032   4
   9  -8  10 113.282 133.291   4
   9  -8  11 681.034 259.650   4
   9  -8  12 97.6288 129.819   4
   9  -8  13 1930.97 426.950   4
   9  -8  14-204.004 176.130   4
   9  -8  15 1183.20 367.300   4
  -9   7  16 239.273 166.843   5
  -9   7  15-86.0561 130.752   5
  -9   7  14 295.786 199.045   5
  -9   7  13 46.3112 139.626   5
  -9   7  12 55.7354 133.041   5
  -9   7  11 1726.50 331.817   5
  -9   7  10 711.216 239.072   5
  -9   7   9 1051.36 276.679   5
  -9   7   8 2609.73 414.988   5
   9  -7  -8 2430.24 342.427   4
  -9   7   7 1642.15 318.905   5
   9  -7  -7 1649.34 282.577   4
  -9   7   6 70.0655 179.539   5
   9  -7  -6 105.405 100.563   4
   9  -7  -5 5374.06 492.507   2
   9  -7  -5 5315.61 520.030   4
   9  -7  -4 5919.78 512.433   2
   9  -7  -4 6144.90 560.099   4
   9  -7  -3 202.389 112.125   2
   9  -7  -3 402.420 173.741   4
   9  -7  -2 1496.21 265.119   2
   9  -7  -2 1606.24 314.655   4
   9  -7  -1 159.266 111.919   4
   9  -7  -1 176.662 104.582   2
   9  -7   0-55.0197 119.190   4
   9  -7   0-138.825 134.415   2
   9  -7   1 3371.06 438.270   4
   9  -7   1 2557.23 339.284   2
   9  -7   2 428.885 193.686   4
   9  -7   2 819.533 206.427   2
   9  -7   3 8584.59 666.013   2
   9  -7   3 8593.32 714.059   4
   9  -7   4 9109.16 691.813   2
   9  -7   4 8715.55 734.135   4
   9  -7   5 276.823 159.700   4
   9  -7   5 318.652 151.208   2
   9  -7   6 365.145 173.051   4
   9  -7   6 161.112 119.828   2
   9  -7   7 691.541 237.023   4
   9  -7   7 471.044 199.759   2
   9  -7   8 917.678 248.352   2
   9  -7   8 66.5156 144.914   4
   9  -7   9 374.990 154.490   2
   9  -7   9 316.557 182.527   4
   9  -7  10 3084.65 455.266   2
   9  -7  10 2660.40 445.850   4
   9  -7  11 2862.40 451.944   2
   9  -7  11 2365.51 435.899   4
   9  -7  12 364.126 207.144   2
   9  -7  12 107.854 128.472   4
   9  -7  13 3238.96 525.227   4
   9  -7  13 3057.36 487.826   2
   9  -7  14 369.628 244.317   4
   9  -7  14 230.827 165.756   2
   9  -7  15 269.382 176.668   4
   9  -7  15 296.899 201.827   2
  -9   6  16 2.04994 143.980   5
  -9   6  15 2405.93 436.481   5
  -9   6  14 339.079 196.048   5
  -9   6  13 1242.96 297.498   5
  -9   6  12 388.896 194.124   5
  -9   6  11 5691.16 612.585   5
  -9   6  10 741.566 248.306   5
  -9   6   9-128.354 158.949   5
  -9   6   8 1767.38 337.266   5
   9  -6  -7 3097.39 391.832   2
  -9   6   7 3062.60 439.427   5
   9  -6  -7 2394.17 320.253   4
   9  -6  -6 4347.25 464.603   2
   9  -6  -6 4077.49 418.635   4
   9  -6  -5 2871.98 374.182   2
   9  -6  -5 3107.20 366.937   4
   9  -6  -4-96.0762 120.321   2
   9  -6  -4-27.3670 120.201   4
   9  -6  -3 2774.40 379.677   2
   9  -6  -3 2447.32 348.399   4
   9  -6  -2-97.9074 113.981   4
   9  -6  -2 104.898 97.4137   2
   9  -6  -1 327.586 154.990   4
   9  -6  -1 357.065 154.954   2
   9  -6   0 38.1624 108.541   4
   9  -6   0 146.901 115.613   2
   9  -6   1 647.431 196.745   4
   9  -6   1 748.911 211.457   2
   9  -6   2-56.7633 121.703   4
   9  -6   2-27.7843 100.549   2
   9  -6   3 1335.54 296.565   4
   9  -6   3 1702.40 322.528   2
   9  -6   4 9908.61 759.986   2
   9  -6   4 8826.94 708.096   4
   9  -6   5 339.826 159.283   4
   9  -6   5 208.615 162.734   2
   9  -6   6 1125.65 292.455   2
   9  -6   6 824.836 236.725   4
   9  -6   7 1270.76 301.413   2
   9  -6   7 898.841 262.270   4
   9  -6   8 346.644 171.452   2
   9  -6   8 395.449 205.475   4
   9  -6   9 5288.17 614.558   2
   9  -6   9 4384.06 536.227   4
   9  -6  10 2186.31 406.726   2
   9  -6  10 1958.74 388.038   4
   9  -6  11 160.912 142.902   2
   9  -6  11 77.7135 137.178   4
   9  -6  12 208.387 175.123   4
   9  -6  12 25.9596 117.055   2
   9  -6  13 1834.84 384.320   4
   9  -6  13 1494.29 368.640   2
   9  -6  14 429.157 213.483   4
   9  -6  14 63.6412 121.880   2
   9  -6  15 185.626 171.505   4
   9  -6  16 332.131 206.056   4
  -9   5  17 160.257 154.865   5
  -9   5  16 499.324 187.860   5
  -9   5  15 849.592 254.328   5
  -9   5  14 1300.24 297.976   5
  -9   5  13 1768.89 369.248   5
  -9   5  12 2505.90 409.928   5
  -9   5  11 2864.74 446.435   5
  -9   5  10-24.4186 136.861   5
   9  -5  -9 704.381 208.046   2
  -9   5   9 1205.88 292.994   5
   9  -5  -8 5909.07 557.918   2
  -9   5   8 4838.78 574.507   5
   9  -5  -7 262.953 130.211   2
   9  -5  -6 6549.82 590.702   2
   9  -5  -5-83.1492 128.495   2
   9  -5  -5 46.0278 94.2208   4
   9  -5  -4 2082.35 330.263   2
   9  -5  -4 1801.39 260.270   4
   9  -5  -3 4.50957 71.0749   4
   9  -5  -3-85.4215 120.092   2
   9  -5  -2 4502.67 494.687   2
   9  -5  -2 3447.01 384.762   4
   9  -5  -1 154.071 113.317   4
   9  -5  -1-105.915 137.005   2
   9  -5   0 1690.95 282.194   4
   9  -5   0 1127.57 253.711   2
   9  -5   1 1854.04 305.718   4
   9  -5   1 1805.47 331.365   2
   9  -5   2 1340.12 254.983   4
   9  -5   2 1475.11 315.365   2
   9  -5   3 593.035 182.374   4
   9  -5   3 719.014 246.255   2
   9  -5   4 6734.77 654.454   2
   9  -5   4 6018.18 563.446   4
   9  -5   5 1105.76 286.646   2
   9  -5   5 712.800 207.700   4
   9  -5   6 774.268 258.606   2
   9  -5   6 207.193 145.921   4
   9  -5   7 1714.74 358.463   2
   9  -5   7 2118.90 356.803   4
   9  -5   8 49.3167 125.397   2
   9  -5   8-204.532 160.727   4
   9  -5   9 3397.55 506.632   2
   9  -5   9 2116.64 384.164   4
   9  -5  10 177.905 205.649   2
   9  -5  10 298.149 168.700   4
   9  -5  11 284.150 173.333   2
   9  -5  11 446.880 198.551   4
   9  -5  12 512.665 223.782   4
   9  -5  12 893.272 296.283   2
   9  -5  13 437.422 187.375   4
   9  -5  13 668.362 235.468   2
   9  -5  14-39.0230 124.042   4
   9  -5  15 267.784 195.962   4
   9  -5  16-181.876 174.615   4
  -9   4  17 1722.75 355.852   5
  -9   4  16 241.968 165.469   5
  -9   4  15 971.367 272.182   5
  -9   4  14 2247.22 398.687   5
  -9   4  13 1049.75 293.512   5
  -9   4  12 1491.46 326.877   5
  -9   4  11 2320.18 396.267   5
   9  -4 -10 3315.55 454.646   2
  -9   4  10 3207.38 462.575   5
  -9   4  10 2599.55 284.119   3
   9  -4  -9 4322.08 498.426   2
  -9   4   9 4296.26 530.252   5
  -9   4   9 4064.09 340.507   3
  -9   4   8 299.665 97.6871   3
   9  -4  -8 277.692 175.728   2
   9  -4  -7 3813.49 459.084   2
  -9   4   7 4122.98 316.366   3
   9  -4  -6 1440.89 292.572   2
  -9   4   6 1792.04 204.537   3
   9  -4  -5 4806.66 519.527   2
  -9   4   5 4913.80 320.473   3
   9  -4  -4 3908.56 473.022   2
   9  -4  -3 1366.55 286.682   2
   9  -4  -2 4985.98 535.180   2
   9  -4  -2 4400.89 398.437   4
   9  -4  -1 616.509 168.379   4
   9  -4  -1 425.088 168.076   2
   9  -4   0 261.814 142.305   4
   9  -4   0 159.952 146.386   2
   9  -4   1 11461.3 845.770   2
   9  -4   1 10865.6 694.985   4
   9  -4   2 2541.47 342.057   4
   9  -4   2 2138.20 383.100   2
   9  -4   3 18901.9 1120.12   2
   9  -4   3 18188.3 949.390   4
   9  -4   4 8047.76 748.876   2
   9  -4   4 8774.13 656.176   4
   9  -4   5 2157.23 403.566   2
   9  -4   5 2137.93 349.132   4
   9  -4   6 17239.3 1134.79   2
   9  -4   6 16193.0 947.125   4
   9  -4   7 3259.62 512.647   2
   9  -4   7 3641.29 461.223   4
   9  -4   8 3480.85 531.349   2
   9  -4   8 2893.88 421.801   4
   9  -4   9 11227.5 826.012   4
   9  -4   9 11260.0 959.409   2
   9  -4  10 115.330 145.134   2
   9  -4  10 563.451 209.886   4
   9  -4  11 127.748 189.163   2
   9  -4  11 377.703 211.660   4
   9  -4  12 456.985 225.249   4
   9  -4  12 278.344 182.257   2
   9  -4  13 749.899 262.433   4
   9  -4  14-85.9875 165.022   4
   9  -4  15 1761.42 383.438   4
   9  -4  16 1809.55 398.975   4
  -9   3  17 678.414 233.968   5
  -9   3  16 24.4371 118.036   5
  -9   3  15 325.387 135.234   3
  -9   3  15 910.982 268.038   5
  -9   3  14 635.509 171.964   3
  -9   3  14 309.691 187.156   5
  -9   3  13-30.6356 76.2834   3
  -9   3  13 104.450 137.335   5
  -9   3  12 5795.88 614.273   5
  -9   3  12 4133.41 388.929   3
  -9   3  11 167.213 97.2667   3
   9  -3 -11 69.7634 185.777   2
  -9   3  11-15.7534 147.158   5
  -9   3  10-9.44311 61.1781   3
   9  -3 -10 55.7268 121.975   2
  -9   3  10 9.67811 117.654   5
   9  -3  -9 2779.79 409.973   2
  -9   3   9 2651.37 417.176   5
  -9   3   9 2704.10 290.119   3
   9  -3  -8 2895.43 420.042   2
  -9   3   8 2812.52 285.990   3
  -9   3   7 831.339 152.888   3
   9  -3  -7 732.048 238.261   2
  -9   3   6 136.331 71.5536   3
   9  -3  -6 52.8449 145.594   2
   9  -3  -5 2893.19 410.176   2
  -9   3   5 2368.97 239.771   3
  -9   3   4 162.221 79.5527   3
   9  -3  -4 158.575 141.673   2
   9  -3  -3 2345.57 383.329   2
  -9   3   3 2065.22 210.562   3
   9  -3  -2 1102.95 272.087   2
   9  -3  -1 531.060 213.702   2
   9  -3   0 2861.50 453.801   2
   9  -3   1 13488.2 943.680   2
   9  -3   1 12542.6 718.934   4
   9  -3   2 4614.93 558.418   2
   9  -3   2 4360.56 427.817   4
   9  -3   3 8110.29 752.450   2
   9  -3   3 8254.97 607.071   4
   9  -3   4 250.534 166.733   2
   9  -3   4 120.684 112.228   4
   9  -3   5 1782.37 356.584   2
   9  -3   5 1501.01 276.579   4
   9  -3   6 0.50393 162.644   2
   9  -3   6 174.461 148.494   4
   9  -3   7 382.204 197.115   2
   9  -3   7 717.821 226.701   4
   9  -3   8 553.911 231.703   2
   9  -3   8 194.891 136.025   4
   9  -3   9-118.324 170.781   2
   9  -3   9-31.1279 151.058   4
   9  -3  10 1933.42 426.522   2
   9  -3  10 1341.60 299.723   4
   9  -3  11 1005.62 323.884   2
   9  -3  11 1108.54 280.826   4
   9  -3  12 4138.05 657.705   2
   9  -3  12 2979.96 455.314   4
   9  -3  13 218.889 176.458   4
   9  -3  14 406.843 223.610   4
   9  -3  15 1257.61 326.091   4
   9  -3  16 223.553 209.499   4
  -9   2  18-63.0425 118.964   3
  -9   2  18 60.8925 156.527   5
  -9   2  17 232.925 114.354   3
  -9   2  17 87.4921 163.468   5
  -9   2  16-75.3914 99.9267   3
  -9   2  16 34.2529 108.137   5
  -9   2  15 92.4258 85.7202   3
  -9   2  15 618.415 248.421   5
  -9   2  14 124.626 108.366   3
  -9   2  14 42.7335 121.311   5
  -9   2  13 565.881 169.305   3
  -9   2  13 648.367 241.662   5
  -9   2  12 268.403 117.352   3
  -9   2  12 405.942 217.965   5
  -9   2  11-87.1513 101.592   3
   9  -2 -11-12.6455 109.842   2
  -9   2  11 209.140 172.797   5
  -9   2  10-51.4594 93.1596   3
   9  -2 -10-44.0903 134.386   2
   9  -2  -9 3981.21 497.600   2
  -9   2   9 3590.96 349.936   3
  -9   2   8 1102.59 192.394   3
   9  -2  -8 1106.19 277.593   2
  -9   2   7 463.333 138.992   3
   9  -2  -7 679.977 230.456   2
   9  -2  -6 98.7837 162.362   2
  -9   2   6-2.28572 51.5501   3
   9  -2  -5 1064.81 266.469   2
  -9   2   5 921.532 174.617   3
   9  -2  -4-1.04650 105.770   2
  -9   2   4 92.9501 67.4585   3
   9  -2  -3 2360.39 388.772   2
  -9   2   3 2304.46 253.705   3
   9  -2  -2 7160.82 683.220   2
  -9   2   2 6835.28 428.300   3
  -9   2   1 1109.32 171.346   3
   9  -2  -1 605.168 225.414   2
   9  -2   0 2586.38 415.275   2
   9  -2   1 833.665 262.432   2
   9  -2   2 159.956 121.183   2
   9  -2   3 1822.24 353.757   2
   9  -2   3 2036.06 298.116   4
   9  -2   4 3177.27 384.541   4
   9  -2   4 3827.75 528.604   2
   9  -2   5 660.267 229.359   2
   9  -2   5 966.150 229.615   4
   9  -2   6 48.6260 121.326   2
   9  -2   6-6.58949 96.2062   4
   9  -2   7 826.198 312.827   2
   9  -2   7 1081.38 247.459   4
   9  -2   8 3561.78 569.702   2
   9  -2   8 2697.95 387.445   4
   9  -2   9 165.869 201.170   2
   9  -2   9 26.4935 97.9922   4
   9  -2  10 2237.48 465.235   2
   9  -2  10 1786.48 329.346   4
   9  -2  11 1204.70 365.631   2
   9  -2  11 1100.09 300.405   4
   9  -2  12 1672.80 450.315   2
   9  -2  12 1120.67 282.517   4
   9  -2  13 229.544 167.579   4
   9  -2  14 40.5511 116.117   4
   9  -2  15 1653.72 385.255   4
   9  -2  16 4700.76 645.816   4
  -9   1  18 229.738 167.292   5
  -9   1  17 433.401 160.249   3
  -9   1  17 430.656 196.156   5
  -9   1  16 133.591 134.407   3
  -9   1  16 270.289 190.372   5
  -9   1  15 852.037 197.668   3
  -9   1  15 520.184 200.707   5
  -9   1  14-50.6892 111.126   3
  -9   1  14-54.4373 118.887   5
  -9   1  13-177.470 121.289   3
  -9   1  13-75.7047 120.938   5
  -9   1  12 1093.41 227.438   3
   9  -1 -12 1882.01 362.176   2
  -9   1  12 1501.90 325.916   5
  -9   1  11 471.712 147.970   3
  -9   1  11 661.824 240.563   5
  -9   1  10 378.414 141.533   3
   9  -1 -10 258.762 185.006   2
  -9   1  10 122.895 138.213   5
   9  -1  -9 385.104 161.632   2
  -9   1   9 394.254 130.700   3
   9  -1  -8 13365.3 923.034   2
  -9   1   8 11008.7 649.424   3
   9  -1  -7 3468.35 473.430   2
  -9   1   7 3354.56 350.329   3
   9  -1  -6 3272.90 467.464   2
  -9   1   6 2997.82 337.628   3
   9  -1  -5 2908.10 440.024   2
  -9   1   5 4035.67 373.512   3
   9  -1  -4 220.837 147.002   2
  -9   1   4 163.144 91.6798   3
  -9   1   3 1474.20 223.891   3
   9  -1  -3 944.253 281.954   2
   9  -1  -2 372.777 163.086   2
   9  -1  -1 76.0273 124.812   2
   9  -1   0 2012.81 372.130   2
   9  -1   1 121.672 119.514   2
   9  -1   2 478.340 223.217   2
   9  -1   3 378.611 199.407   2
   9  -1   4 350.171 223.754   2
   9  -1   5 62.2439 131.651   2
   9  -1   6 175.869 186.600   2
   9  -1   6 251.416 146.287   4
   9  -1   7 1885.22 421.369   2
   9  -1   7 1167.79 253.654   4
   9  -1   8-148.088 192.554   2
   9  -1   8 85.3638 120.353   4
   9  -1   9-113.710 159.864   2
   9  -1   9-173.600 154.400   4
   9  -1  10 716.982 305.990   2
   9  -1  10 1086.29 273.655   4
   9  -1  11 725.441 280.477   2
   9  -1  11 576.492 203.369   4
   9  -1  12 675.267 279.072   2
   9  -1  12 611.395 220.584   4
   9  -1  13 1409.54 318.966   4
   9  -1  14 164.227 145.277   4
   9  -1  15 3164.04 509.322   4
  -9   0  18 747.837 241.224   5
  -9   0  17 133.490 139.576   5
  -9   0  16 897.866 237.392   3
  -9   0  16 1161.05 287.180   5
  -9   0  15 124.599 142.371   3
  -9   0  15 254.049 148.974   5
  -9   0  14 273.286 150.126   3
  -9   0  14 210.279 169.309   5
  -9   0  13 192.412 132.101   3
  -9   0  13 89.2174 129.919   5
  -9   0  12 241.740 127.377   3
   9   0 -12 112.992 150.130   2
  -9   0  12 74.9306 124.325   5
   9   0 -11 1212.13 306.857   2
  -9   0  11 733.603 258.276   5
  -9   0  11 924.319 223.612   3
   9   0 -10 144.838 146.773   2
  -9   0  10-233.982 197.107   5
  -9   0  10-70.6786 120.686   3
   9   0  -9 1148.03 291.065   2
  -9   0   9 851.920 205.104   3
   9   0  -8 5066.36 580.945   2
  -9   0   8 4299.84 429.748   3
   9   0  -7 79.3034 165.199   2
  -9   0   7-15.6503 82.5089   3
   9   0  -6 1638.78 349.498   2
  -9   0   6 1204.67 236.603   3
   9   0  -5 169.154 123.516   2
  -9   0   5-32.4389 102.181   3
   9   0  -4 90.4798 112.388   2
   9   0  -3 833.509 248.878   2
   9   0  -2 1067.77 287.320   2
   9   0  -1-34.1309 160.061   2
   9   0   0 266.371 164.938   2
   9   0   1 1257.88 302.306   2
   9   0   2 166.676 151.377   2
   9   0   3 991.982 298.712   2
   9   0   4 196.048 161.667   2
   9   0   5 640.249 252.096   2
   9   0   6 213.518 215.186   2
   9   0   7 4967.32 664.121   2
   9   0   8 2287.95 509.439   2
   9   0   9 7501.73 851.165   2
   9   0  10 351.757 258.866   2
   9   0  10 176.578 159.953   4
   9   0  11 3146.67 588.565   2
   9   0  11 2060.16 367.935   4
   9   0  12 3722.04 490.096   4
   9   0  13-125.751 151.164   4
   9   0  14 113.909 151.176   4
   9   0  15-96.2522 131.900   4
  -9  -1  17 2267.67 402.022   5
  -9  -1  16 557.666 204.372   5
  -9  -1  15 666.853 208.878   3
  -9  -1  15 396.624 179.812   5
  -9  -1  14 1725.02 312.197   3
  -9  -1  14 1307.86 313.085   5
   9   1 -13 321.093 190.678   2
  -9  -1  13-82.0771 177.793   5
  -9  -1  13 28.4042 114.063   3
   9   1 -12 142.859 114.407   2
  -9  -1  12 158.394 136.149   5
  -9  -1  12 0.18137 96.5606   3
   9   1 -11 2790.41 448.934   2
  -9  -1  11 2862.82 433.671   5
  -9  -1  11 2759.83 383.883   3
   9   1 -10 83.0478 128.976   2
  -9  -1  10 15.7229 122.696   3
   9   1  -9 490.812 205.173   2
  -9  -1   9 540.883 183.214   3
   9   1  -8 2369.27 406.179   2
  -9  -1   8 1349.60 257.996   3
   9   1  -7 262.685 158.411   2
  -9  -1   7-81.4373 131.702   3
   9   1  -6 1103.93 297.218   2
   9   1  -5 483.353 206.704   2
   9   1  -4 119.781 139.460   2
   9   1  -3 1601.86 353.873   2
   9   1  -2 734.143 229.726   2
   9   1  -1 970.654 274.916   2
   9   1   0-20.0337 126.804   2
   9   1   1 1491.85 341.556   2
   9   1   2 100.538 180.103   2
   9   1   3 1082.59 291.148   2
   9   1   4 5283.42 677.086   2
   9   1   5 348.560 207.182   2
   9   1   6 1422.37 387.177   2
   9   1   7 3084.11 543.413   2
   9   1   8 666.578 290.031   2
   9   1   9 1550.79 394.837   2
   9   1  10 265.237 219.650   2
   9   2 -13 292.502 211.101   2
   9   2 -12 1570.12 374.425   2
  -9  -2  12 2013.86 349.346   3
   9   2 -11 972.435 281.802   2
  -9  -2  11 976.571 260.616   5
  -9  -2  11 788.958 228.375   3
   9   2 -10 334.981 203.112   2
  -9  -2  10 176.285 121.154   5
  -9  -2  10 551.287 205.896   3
   9   2  -9 2964.01 472.765   2
  -9  -2   9 2539.58 405.390   5
  -9  -2   9 2475.92 383.469   3
   9   2  -8 158.723 114.216   2
  -9  -2   8-155.824 144.681   3
   9   2  -7 694.760 239.302   2
   9   2  -6 391.836 186.161   2
   9   2  -5 7.51320 131.018   2
   9   2  -4 1547.63 352.904   2
   9   2  -3 14.5912 116.561   2
   9   2  -2 3912.82 548.435   2
   9   2  -1-110.466 177.271   2
   9   2   0 2461.44 449.456   2
   9   2   1 1926.81 400.639   2
   9   2   2 190.907 190.954   2
   9   2   3 2592.34 474.793   2
   9   2   4 1133.85 320.605   2
   9   2   5 1813.04 418.074   2
   9   2   6 1063.41 343.528   2
   9   2   7 1630.95 409.297   2
   9   3 -11 138.169 171.542   2
   9   3 -10 395.569 208.522   2
   9   3  -9 31.6399 137.041   2
  -9  -3   9 167.536 172.913   3
   9   3  -8 176.278 179.987   2
   9   3  -7 94.8660 181.307   2
   9   3  -6 1682.72 381.994   2
   9   3  -5 2484.82 459.207   2
   9   3  -4 97.3827 153.089   2
   9   3  -3 3098.98 507.703   2
   9   3  -2 7719.96 795.960   2
   9   3  -1 2614.47 516.155   2
   9   3   0 7238.25 798.695   2
   9   3   1 215.466 169.080   2
   9   3   2 4114.49 605.821   2
   9   3   3 948.100 316.364   2
   9   3   4 1542.41 409.403   2
   9   4  -7 141.527 196.584   2
   9   4  -6 635.845 256.948   2
   9   4  -5 907.091 309.178   2
   9   4  -4 1718.92 415.772   2
   9   4  -3 3299.05 540.784   2
   9   4  -2-180.934 198.732   2
   9   4  -1 2424.97 478.380   2
   9   4   0 1403.14 374.874   2
 -10  12   2 3325.46 541.291   1
 -10  12   1 970.075 315.034   1
  10 -11  -6 394.753 208.111   4
  10 -11  -5 611.942 262.774   4
  10 -11  -4 614.585 209.797   4
  10 -11  -3 2958.35 481.580   4
  10 -11  -2 106.288 130.497   4
  10 -11  -1-348.143 208.846   4
  10 -11   0 572.731 234.154   4
  10 -11   1-188.325 211.922   4
  10 -11   2 498.348 247.642   4
  10 -11   3 468.930 258.288   4
  10 -11   4 1173.77 330.100   4
  10 -11   5 1280.46 362.704   4
 -10  10  11 1433.69 328.589   5
 -10  10  10 272.942 165.635   5
 -10  10   9 753.312 250.650   5
 -10  10   8 23.2186 137.728   5
 -10  10   7 63.4611 126.883   5
  10 -10  -7-3.98658 153.608   4
 -10  10   6 69.8253 116.198   5
  10 -10  -6-101.184 157.990   4
 -10  10   5 89.6842 130.307   5
  10 -10  -5 181.165 144.935   4
 -10  10   4 2668.55 406.890   5
  10 -10  -4 2911.64 471.832   4
 -10  10   3 11.9272 134.384   5
  10 -10  -3-113.145 158.931   4
 -10  10   2-91.3807 173.969   5
  10 -10  -2 119.609 146.511   4
 -10  10   1 289.269 166.889   5
  10 -10  -1 261.154 152.487   4
  10 -10   0 547.579 203.406   4
  10 -10   1-146.999 177.752   4
  10 -10   2 893.409 314.572   4
  10 -10   3 191.288 173.913   4
  10 -10   4 593.370 260.686   4
  10 -10   5 256.360 157.002   4
  10 -10   6 2526.34 461.607   4
  10 -10   7 700.204 274.107   4
  10 -10   8 39.3066 168.881   4
  10 -10   9 465.396 231.348   4
 -10   9  12 1125.76 311.594   5
 -10   9  11 884.838 286.018   5
 -10   9  10 567.001 214.030   5
 -10   9   9 555.513 229.496   5
 -10   9   8-8.06285 119.480   5
 -10   9   7 434.786 229.738   5
  10  -9  -7 312.172 156.319   4
 -10   9   6 227.507 170.168   5
  10  -9  -6-53.3185 112.528   4
 -10   9   5 124.233 130.367   5
  10  -9  -5 2.76682 102.565   4
 -10   9   4 29.9863 142.814   5
  10  -9  -4-26.6121 114.373   4
 -10   9   3 363.828 201.242   5
  10  -9  -3 353.325 185.038   4
  10  -9  -2 978.961 275.565   4
  10  -9  -1 1282.83 321.028   4
  10  -9   0-53.5634 174.089   4
  10  -9   1 544.274 219.344   4
  10  -9   2 178.987 155.865   4
  10  -9   3 3680.06 523.834   4
  10  -9   4 459.237 234.709   4
  10  -9   5 615.919 248.293   4
  10  -9   6 436.547 220.280   4
  10  -9   7 224.950 169.746   4
  10  -9   8 44.0962 128.205   4
  10  -9   9-16.8199 142.666   4
  10  -9  10 183.830 179.693   4
  10  -9  11-184.249 207.323   4
 -10   8  13 1930.02 389.994   5
 -10   8  12 701.939 257.636   5
 -10   8  11 513.315 206.832   5
 -10   8  10 56.9335 128.847   5
 -10   8   9 90.3775 145.397   5
 -10   8   8 968.998 288.382   5
 -10   8   7 2553.52 426.932   5
  10  -8  -7 2512.89 370.974   4
 -10   8   6-285.575 193.842   5
  10  -8  -6-110.140 126.786   4
  10  -8  -5 315.737 120.934   2
 -10   8   5-164.802 197.884   5
  10  -8  -5 7.72054 117.838   4
  10  -8  -4 376.747 163.551   2
  10  -8  -4 71.6905 109.654   4
  10  -8  -3 1017.48 227.316   2
  10  -8  -3 622.522 227.523   4
  10  -8  -2 1815.25 300.904   2
  10  -8  -2 1492.86 334.429   4
  10  -8  -1-43.0499 78.7666   2
  10  -8  -1 100.426 142.917   4
  10  -8   0 854.512 256.470   4
  10  -8   0 723.114 192.070   2
  10  -8   1 570.405 220.835   4
  10  -8   1 491.983 168.194   2
  10  -8   2 228.735 148.645   4
  10  -8   2 99.0421 114.319   2
  10  -8   3 11730.7 796.929   2
  10  -8   3 10563.2 862.042   4
  10  -8   4 452.113 208.824   4
  10  -8   4 79.0595 160.906   2
  10  -8   5 21.6672 111.289   4
  10  -8   5 171.882 99.3240   2
  10  -8   6-59.7390 170.311   4
  10  -8   6 74.9878 96.5789   2
  10  -8   7 92.3611 162.949   4
  10  -8   8 300.262 179.515   4
  10  -8   9-58.4231 137.715   4
  10  -8  10 747.204 276.798   4
  10  -8  11 242.634 183.504   4
  10  -8  12 327.141 211.688   4
  10  -8  13 108.113 175.012   4
 -10   7  14 660.991 253.225   5
 -10   7  13 230.280 172.273   5
 -10   7  12 9.03375 126.020   5
 -10   7  11 543.235 233.169   5
 -10   7  10-25.9578 141.154   5
 -10   7   9 1883.39 388.900   5
 -10   7   8-236.783 187.809   5
 -10   7   7 2298.08 411.657   5
  10  -7  -6 715.137 213.803   2
 -10   7   6 608.163 238.060   5
  10  -7  -5 1232.08 259.647   2
  10  -7  -4-127.658 149.046   2
  10  -7  -4 107.929 125.009   4
  10  -7  -3 5211.79 525.248   2
  10  -7  -3 5029.76 527.275   4
  10  -7  -2 432.457 158.282   2
  10  -7  -2 609.705 203.567   4
  10  -7  -1-24.5029 113.517   4
  10  -7  -1 44.2302 100.386   2
  10  -7   0 712.671 222.200   4
  10  -7   0 139.802 116.062   2
  10  -7   1 1050.98 255.873   4
  10  -7   1 638.040 202.275   2
  10  -7   2 5672.30 576.701   2
  10  -7   2 5544.98 588.694   4
  10  -7   3 1977.15 371.205   4
  10  -7   3 2136.38 355.615   2
  10  -7   4 19.6698 117.868   4
  10  -7   4-79.8124 132.640   2
  10  -7   5 758.485 279.144   4
  10  -7   5 654.121 214.090   2
  10  -7   6 50.1471 133.919   4
  10  -7   6 53.0234 104.271   2
  10  -7   7 108.679 144.023   4
  10  -7   7 182.621 163.514   2
  10  -7   8-204.340 158.376   4
  10  -7   8-16.0901 114.411   2
  10  -7   9 218.675 165.087   2
  10  -7   9 214.682 202.552   4
  10  -7  10 186.450 162.332   2
  10  -7  10 232.074 184.352   4
  10  -7  11-74.4175 111.338   2
  10  -7  11 237.603 147.657   4
  10  -7  12 3.18052 175.854   2
  10  -7  12 269.787 223.137   4
  10  -7  13-17.5174 128.607   2
  10  -7  13 208.593 187.636   4
  10  -7  14-33.9230 129.904   2
  10  -7  14 258.842 171.122   4
  10  -7  15 1931.47 439.122   2
 -10   6  14 391.934 228.526   5
 -10   6  13 1999.58 409.309   5
 -10   6  12 1433.73 359.704   5
 -10   6  11 166.486 142.710   5
 -10   6  10 380.118 159.261   5
 -10   6   9 232.606 176.930   5
  10  -6  -8 1189.55 263.773   2
 -10   6   8 1544.09 345.515   5
  10  -6  -7 1325.52 286.478   2
 -10   6   7 2459.43 430.333   5
  10  -6  -6 3404.76 447.606   2
  10  -6  -5 1853.22 336.494   2
  10  -6  -4-155.730 139.137   2
  10  -6  -3 1680.25 335.207   2
  10  -6  -2 380.174 148.827   4
  10  -6  -2 131.638 120.208   2
  10  -6  -1 5.80563 103.873   4
  10  -6  -1-87.0991 147.630   2
  10  -6   0 2578.85 385.802   4
  10  -6   0 2873.49 418.115   2
  10  -6   1 3344.60 440.947   4
  10  -6   1 3636.51 480.880   2
  10  -6   2 940.110 247.716   4
  10  -6   2 923.446 246.593   2
  10  -6   3 10371.1 828.428   2
  10  -6   3 8893.22 742.385   4
  10  -6   4 341.125 196.713   4
  10  -6   4 166.102 157.712   2
  10  -6   5 10703.9 868.642   2
  10  -6   5 8543.28 748.999   4
  10  -6   6 1729.01 351.388   4
  10  -6   6 1933.67 396.840   2
  10  -6   7 509.131 243.822   2
  10  -6   7 415.647 217.360   4
  10  -6   8 540.402 236.006   2
  10  -6   8 275.507 199.879   4
  10  -6   9 302.397 183.846   2
  10  -6   9 406.279 212.458   4
  10  -6  10-5.77279 157.022   2
  10  -6  10 39.8274 158.654   4
  10  -6  11 174.315 177.531   2
  10  -6  11 277.211 175.027   4
  10  -6  12 1390.66 366.610   2
  10  -6  12 1114.06 330.098   4
  10  -6  13 337.702 220.578   2
  10  -6  13 513.837 247.383   4
  10  -6  14 161.483 166.824   4
  10  -6  14 35.3383 157.309   2
  10  -6  15 3069.98 582.199   2
  10  -6  16 2.91973 180.918   2
 -10   5  14 996.258 291.079   5
 -10   5  13 278.564 198.847   5
 -10   5  12 235.429 201.886   5
 -10   5  11 1234.00 303.125   5
 -10   5  10 138.525 151.418   5
  10  -5  -9 1423.95 307.538   2
 -10   5   9 1889.53 394.007   5
  10  -5  -8-76.5820 102.388   2
 -10   5   8-148.688 213.025   5
  10  -5  -7 262.350 128.568   2
  10  -5  -6 2491.47 395.860   2
  10  -5  -5 602.532 207.398   2
  10  -5  -4 328.384 158.379   2
  10  -5  -3 368.321 197.660   2
  10  -5  -2 4760.14 545.106   2
  10  -5  -1 2772.05 430.455   2
  10  -5   0 3486.35 485.776   2
  10  -5   0 4102.75 445.029   4
  10  -5   1 527.631 186.809   4
  10  -5   1 89.3519 130.284   2
  10  -5   2 387.109 165.303   4
  10  -5   2 256.342 170.695   2
  10  -5   3 479.946 185.628   4
  10  -5   3 29.2598 120.066   2
  10  -5   4 2582.36 402.713   4
  10  -5   4 2541.05 444.303   2
  10  -5   5 410.538 178.250   4
  10  -5   5 452.845 245.925   2
  10  -5   6 8844.10 835.375   2
  10  -5   6 7297.82 676.969   4
  10  -5   7 2768.97 486.874   2
  10  -5   7 2321.16 399.133   4
  10  -5   8 343.089 176.610   2
  10  -5   8 267.050 179.756   4
  10  -5   9 3702.84 578.831   2
  10  -5   9 3543.77 508.616   4
  10  -5  10 1172.86 375.387   2
  10  -5  10 885.301 273.568   4
  10  -5  11 1524.21 404.269   2
  10  -5  11 1036.67 289.482   4
  10  -5  12 2398.23 494.680   2
  10  -5  12 2049.64 408.798   4
  10  -5  13-247.016 191.612   2
  10  -5  13 6.15260 147.376   4
  10  -5  14 990.000 375.464   2
  10  -5  14 821.202 277.431   4
  10  -5  15 161.353 205.518   4
  10  -5  15 277.807 311.828   2
 -10   4  15 562.264 216.240   5
 -10   4  14 570.212 252.638   5
 -10   4  13 1011.18 306.339   5
 -10   4  12 228.975 210.314   5
 -10   4  11 473.794 216.255   5
  10  -4 -10 171.659 134.059   2
 -10   4  10-77.5905 212.165   5
  10  -4  -9-95.2149 109.932   2
 -10   4   9-37.9275 160.893   5
  10  -4  -8 299.294 183.009   2
  10  -4  -7 182.365 150.217   2
  10  -4  -6 29.7733 144.089   2
  10  -4  -5 352.266 190.464   2
  10  -4  -4 369.532 157.105   2
  10  -4  -3 625.050 237.381   2
  10  -4  -2 388.385 201.382   2
  10  -4  -1 442.955 185.396   2
  10  -4   0 264.581 166.603   2
  10  -4   1 527.387 197.252   2
  10  -4   2-164.721 202.296   2
  10  -4   3 35.6287 93.9542   4
  10  -4   3 168.590 153.729   2
  10  -4   4 757.083 221.695   4
  10  -4   4 1253.29 325.384   2
  10  -4   5-5.88995 126.598   2
  10  -4   5 360.773 171.297   4
  10  -4   6 1200.41 325.707   2
  10  -4   6 1168.07 275.004   4
  10  -4   7-15.5242 143.152   2
  10  -4   7 86.1733 123.056   4
  10  -4   8 350.634 227.754   2
  10  -4   8 342.804 170.074   4
  10  -4   9 302.120 173.415   2
  10  -4   9 404.810 179.504   4
  10  -4  10 513.436 248.707   2
  10  -4  10 409.513 210.924   4
  10  -4  11 556.993 263.200   2
  10  -4  11 577.359 226.633   4
  10  -4  12 201.017 188.683   2
  10  -4  12 158.200 138.760   4
  10  -4  13 217.768 209.502   2
  10  -4  13 29.1352 143.952   4
  10  -4  14-0.38288 198.066   2
  10  -4  14-82.7967 158.618   4
  10  -4  15 705.443 278.970   4
 -10   3  15 840.656 205.491   3
 -10   3  15 1169.17 302.959   5
 -10   3  14 682.219 177.186   3
 -10   3  14 1212.84 311.417   5
 -10   3  13-60.4145 90.6108   3
 -10   3  13 83.5284 122.936   5
 -10   3  12 489.805 142.147   3
 -10   3  12 922.311 283.969   5
 -10   3  11 642.688 159.695   3
  10  -3 -11 390.336 203.447   2
 -10   3  11 429.570 222.777   5
 -10   3  10 363.722 122.492   3
  10  -3 -10 430.307 195.721   2
 -10   3  10 674.107 254.541   5
  10  -3  -9 2625.61 434.070   2
 -10   3   9 2962.98 470.032   5
  10  -3  -8 87.6441 142.963   2
  10  -3  -7 404.259 190.803   2
  10  -3  -6 898.754 261.097   2
  10  -3  -5 843.906 245.118   2
  10  -3  -4 532.989 188.269   2
  10  -3  -3 206.207 154.633   2
  10  -3  -2 2513.15 426.234   2
  10  -3  -1 960.230 273.740   2
  10  -3   0 90.8439 120.652   2
  10  -3   1 103.544 193.724   2
  10  -3   2 429.016 234.511   2
  10  -3   3 3318.91 512.226   2
  10  -3   4 119.746 186.304   2
  10  -3   5 1864.40 418.874   2
  10  -3   6 2248.29 463.705   2
  10  -3   6 1863.23 332.634   4
  10  -3   7-141.596 218.318   2
  10  -3   7-93.9905 150.468   4
  10  -3   8-41.1985 145.475   2
  10  -3   8 246.427 154.387   4
  10  -3   9 188.468 214.045   2
  10  -3   9-65.2913 128.730   4
  10  -3  10 1125.09 364.510   2
  10  -3  10 455.447 210.780   4
  10  -3  11 211.355 202.161   2
  10  -3  11-48.4823 110.294   4
  10  -3  12-61.1572 139.949   2
  10  -3  12-160.153 181.276   4
  10  -3  13 163.788 242.322   4
  10  -3  14 855.774 293.977   4
 -10   2  16 57.5182 82.4554   3
 -10   2  15 537.793 175.932   3
 -10   2  15 417.209 225.422   5
 -10   2  14 207.029 118.575   3
 -10   2  14 341.903 205.032   5
 -10   2  13-3.24778 90.4471   3
 -10   2  13-205.957 152.673   5
 -10   2  12 252.007 124.456   3
  10  -2 -12 589.973 247.857   2
 -10   2  12 784.182 272.919   5
 -10   2  11-51.4685 81.7982   3
  10  -2 -11 31.2059 125.458   2
 -10   2  11-173.050 170.934   5
 -10   2  10 1407.04 238.387   3
  10  -2 -10 1548.44 342.440   2
 -10   2  10 1970.11 398.137   5
  10  -2  -9 4760.18 569.479   2
 -10   2   9 4486.32 404.878   3
 -10   2   8 623.446 165.660   3
  10  -2  -8 976.067 284.172   2
 -10   2   7 1543.95 234.526   3
  10  -2  -7 1588.64 355.846   2
  10  -2  -6 702.111 243.764   2
  10  -2  -5 601.503 220.451   2
  10  -2  -4 323.588 173.491   2
  10  -2  -3 2169.91 393.782   2
  10  -2  -2-51.5447 133.126   2
  10  -2  -1 1709.12 374.590   2
  10  -2   0-43.1914 119.203   2
  10  -2   1-83.2017 141.075   2
  10  -2   2 679.362 252.996   2
  10  -2   3 3164.83 517.045   2
  10  -2   4 103.823 151.996   2
  10  -2   5 857.220 289.228   2
  10  -2   6 225.946 212.904   2
  10  -2   7-88.8743 166.104   2
  10  -2   8 543.966 269.282   2
  10  -2   9 145.470 197.786   2
  10  -2   9-57.1648 115.970   4
  10  -2  10 133.182 198.316   2
  10  -2  10 52.8233 143.790   4
  10  -2  11 1905.78 466.776   2
  10  -2  11 1233.48 311.036   4
  10  -2  12 813.635 261.284   4
  10  -2  13 109.228 170.981   4
  10  -2  14 1904.32 392.195   4
 -10   1  15 1853.46 310.097   3
 -10   1  15 1810.36 383.384   5
 -10   1  14 149.800 105.302   3
 -10   1  14 204.831 188.157   5
 -10   1  13 605.009 181.065   3
 -10   1  13 396.795 208.674   5
 -10   1  12 384.031 135.494   3
  10  -1 -12 509.277 217.166   2
 -10   1  12 574.175 225.618   5
 -10   1  11 233.312 118.787   3
  10  -1 -11 405.990 238.655   2
 -10   1  11 576.044 226.651   5
 -10   1  10 595.794 172.571   3
  10  -1 -10 527.140 216.510   2
 -10   1  10 465.514 203.957   5
 -10   1   9 292.437 128.985   3
  10  -1  -9 381.127 219.246   2
  10  -1  -8 211.167 170.347   2
 -10   1   8-38.8001 88.5521   3
  10  -1  -7 472.764 200.462   2
 -10   1   7 367.595 128.351   3
  10  -1  -6 2302.73 414.184   2
 -10   1   6 2316.38 304.025   3
  10  -1  -5 180.737 149.810   2
 -10   1   5 188.504 114.480   3
  10  -1  -4 239.070 175.070   2
  10  -1  -3 858.477 260.341   2
  10  -1  -2 656.843 242.225   2
  10  -1  -1-88.2343 144.069   2
  10  -1   0-10.3772 163.726   2
  10  -1   1 112.297 138.349   2
  10  -1   2-100.090 123.731   2
  10  -1   3 401.218 193.974   2
  10  -1   4 755.860 274.634   2
  10  -1   5-64.9315 161.086   2
  10  -1   6 1713.42 400.348   2
  10  -1   7 553.517 306.454   2
  10  -1   8 244.647 226.085   2
  10  -1   9 1340.41 418.864   2
 -10   0  14 45.8090 97.5160   3
 -10   0  14-46.6844 141.647   5
 -10   0  13 1795.06 313.961   3
 -10   0  13 1785.00 354.935   5
 -10   0  12-19.7606 118.397   3
 -10   0  12-69.6993 135.713   5
  10   0 -11 917.886 272.297   2
 -10   0  11 1191.03 305.500   5
 -10   0  11 1167.85 254.013   3
  10   0 -10 142.579 128.707   2
 -10   0  10 284.401 194.506   5
 -10   0  10 602.568 187.837   3
  10   0  -9 464.386 213.472   2
 -10   0   9 375.240 134.319   3
  10   0  -8 596.809 243.556   2
 -10   0   8 416.984 170.355   3
  10   0  -7 2416.67 437.496   2
 -10   0   7 1538.46 281.371   3
  10   0  -6 1418.74 354.121   2
 -10   0   6 1719.11 290.133   3
  10   0  -5 1398.64 333.654   2
 -10   0   5 1293.08 249.259   3
  10   0  -4 270.991 190.413   2
 -10   0   4 235.493 111.389   3
  10   0  -3 1322.21 337.557   2
  10   0  -2 162.450 145.480   2
  10   0  -1 1098.16 319.215   2
  10   0   0 532.443 219.593   2
  10   0   1 1234.65 339.715   2
  10   0   2 1000.13 319.996   2
  10   0   3 1091.05 356.971   2
  10   0   4 1951.88 432.489   2
  10   0   5 522.864 278.010   2
  10   0   6 100.681 155.124   2
  10   0   7 498.270 267.482   2
 -10  -1  13 37.3005 137.161   5
 -10  -1  12 904.115 287.279   5
 -10  -1  11 1605.98 352.989   5
 -10  -1  11 1702.17 322.338   3
 -10  -1  10 182.470 130.530   5
 -10  -1  10 578.120 179.338   3
  10   1  -9 565.713 227.143   2
 -10  -1   9 255.031 138.802   5
 -10  -1   9 440.437 178.666   3
  10   1  -8 291.661 152.303   2
 -10  -1   8 311.767 157.134   3
  10   1  -7 182.785 188.596   2
 -10  -1   7 51.4188 118.876   3
  10   1  -6 7496.51 768.917   2
 -10  -1   6 7491.93 624.300   3
  10   1  -5-50.6856 162.516   2
  10   1  -4 738.106 273.400   2
  10   1  -3 2578.83 476.421   2
  10   1  -2 581.501 250.963   2
  10   1  -1 461.520 201.781   2
  10   1   0 189.959 190.304   2
  10   1   1 1106.01 328.972   2
  10   1   2-22.8695 165.532   2
  10   1   3 1218.04 342.527   2
  10   1   4-14.8101 137.591   2
 -10  -2   8 324.007 166.858   3
 -10  -2   7 650.023 220.683   3
  10   2  -4 640.121 261.860   2
  10   2  -3 390.255 249.093   2
  11 -11  -5 542.334 244.022   4
  11 -11  -4 291.023 198.559   4
  11 -11  -3-32.9409 150.496   4
  11 -11  -2 1705.45 390.991   4
  11 -11  -1 587.203 261.359   4
  11 -11   0 29.2357 154.257   4
  11 -11   1 312.733 223.032   4
  11 -11   2 122.569 164.771   4
 -11  10   8 992.488 291.921   5
 -11  10   7 89.8943 149.380   5
 -11  10   6 961.754 285.370   5
 -11  10   5 929.946 282.575   5
  11 -10  -5 958.570 277.854   4
 -11  10   4 920.646 283.545   5
  11 -10  -4 698.274 256.624   4
 -11  10   3 1092.62 323.624   5
  11 -10  -3 180.903 141.809   4
 -11  10   2 433.693 206.873   5
  11 -10  -2 341.320 176.346   4
  11 -10  -1 168.415 145.184   4
  11 -10   0 2.74032 118.304   4
  11 -10   1 219.638 136.934   4
  11 -10   2 994.066 303.858   4
  11 -10   3 716.396 271.698   4
  11 -10   4-160.205 169.089   4
  11 -10   5 50.9340 151.428   4
  11 -10   6 1622.91 399.036   4
 -11   9   9 644.113 246.672   5
 -11   9   8-7.91756 143.838   5
 -11   9   7 491.960 215.362   5
 -11   9   6 1615.03 373.706   5
 -11   9   5-310.201 252.402   5
 -11   9   4-222.900 203.537   5
  11  -9  -4-56.7300 135.853   4
  11  -9  -3 181.259 146.309   4
  11  -9  -2 172.743 166.411   4
  11  -9  -1-39.9710 180.934   4
  11  -9   0 872.131 277.250   4
  11  -9   1 285.086 164.003   4
  11  -9   2 208.634 169.835   4
  11  -9   3 1654.20 396.335   4
  11  -9   4 26.1771 166.057   4
  11  -9   5 1925.27 411.943   4
  11  -9   6 1090.51 359.167   4
  11  -9   7 163.447 187.328   4
  11  -9   8 2674.71 488.111   4
  11  -9   9 386.496 154.255   4
 -11   8  10 623.077 259.581   5
 -11   8   9 448.898 205.072   5
 -11   8   8 249.388 203.318   5
 -11   8   7 865.068 292.960   5
 -11   8   6-165.633 192.187   5
  11  -8  -5 360.685 167.483   2
 -11   8   5-52.4614 176.504   5
  11  -8  -4-50.7222 110.519   2
  11  -8  -3 86.2659 133.459   2
  11  -8  -2 1012.12 262.867   2
  11  -8  -2 1028.71 272.922   4
  11  -8  -1 67.4004 101.711   2
  11  -8  -1 518.999 191.481   4
  11  -8   0-90.3405 127.364   4
  11  -8   0 121.822 122.704   2
  11  -8   1 154.952 116.326   4
  11  -8   1 409.032 188.657   2
  11  -8   2 369.400 207.169   4
  11  -8   2 269.975 168.535   2
  11  -8   3 437.678 205.395   4
  11  -8   3 481.246 174.117   2
  11  -8   4 1206.07 317.960   4
  11  -8   4 1136.13 284.790   2
  11  -8   5 1606.09 360.748   4
  11  -8   5 2356.98 403.773   2
  11  -8   6 83.4258 196.381   4
  11  -8   6 178.238 153.441   2
  11  -8   7 625.556 246.276   4
  11  -8   8-191.140 187.292   4
  11  -8   9 148.694 134.617   4
  11  -8  10 17.7558 136.593   4
 -11   7  10 271.218 160.105   5
 -11   7   9 396.540 231.949   5
 -11   7   8 53.3744 183.776   5
  11  -7  -7 204.001 148.960   2
 -11   7   7 250.363 167.115   5
  11  -7  -6 404.267 180.986   2
  11  -7  -5-31.8906 117.285   2
  11  -7  -4 306.028 160.801   2
  11  -7  -3 171.931 151.783   2
  11  -7  -2 134.513 128.430   2
  11  -7  -1-374.294 178.147   2
  11  -7   0 333.514 169.746   2
  11  -7   1 22.3741 115.565   4
  11  -7   1 330.394 164.835   2
  11  -7   2 104.293 136.204   4
  11  -7   2 200.998 144.414   2
  11  -7   3 5674.36 629.388   2
  11  -7   3 4896.48 595.454   4
  11  -7   4 1276.12 312.684   4
  11  -7   4 1275.59 311.840   2
  11  -7   5 4006.40 540.239   4
  11  -7   5 3636.67 532.757   2
  11  -7   6 116.214 189.667   4
  11  -7   6 193.785 176.696   2
  11  -7   7-63.8886 185.953   4
  11  -7   7-81.0247 140.961   2
  11  -7   8 1344.72 347.417   4
  11  -7   8 902.114 270.053   2
  11  -7   9 219.635 218.728   4
  11  -7   9 178.856 169.947   2
  11  -7  10-20.4439 162.468   2
  11  -7  10-144.401 178.897   4
  11  -7  11 870.359 312.626   2
  11  -7  11 1316.57 356.257   4
  11  -7  12 143.494 153.737   2
  11  -7  12-44.5638 145.827   4
  11  -7  13 154.863 151.267   2
 -11   6  11 858.949 290.376   5
 -11   6  10-177.998 176.182   5
  11  -6  -9 867.920 260.613   2
 -11   6   9 326.834 174.548   5
  11  -6  -8 350.789 156.899   2
 -11   6   8-159.159 214.972   5
  11  -6  -7 128.066 132.995   2
  11  -6  -6 799.194 232.447   2
  11  -6  -5 1463.46 313.621   2
  11  -6  -4 246.456 155.056   2
  11  -6  -3 2139.39 382.344   2
  11  -6  -2 470.620 214.778   2
  11  -6  -1 2898.85 457.166   2
  11  -6   0 1171.49 316.648   2
  11  -6   1 4.90106 126.564   2
  11  -6   2-22.4369 153.197   2
  11  -6   3 1612.64 329.083   4
  11  -6   3 1080.11 307.006   2
  11  -6   4-24.7785 132.448   4
  11  -6   4 38.3908 179.255   2
  11  -6   5 6389.65 720.514   2
  11  -6   5 6053.18 645.691   4
  11  -6   6 2165.32 396.361   4
  11  -6   6 2194.53 449.411   2
  11  -6   7 488.333 208.395   4
  11  -6   7 612.081 234.745   2
  11  -6   8 567.744 239.050   4
  11  -6   8 790.235 299.640   2
  11  -6   9 492.081 242.525   2
  11  -6   9 593.352 255.888   4
  11  -6  10-13.1634 136.503   2
  11  -6  10-196.331 168.123   4
  11  -6  11 621.491 290.364   2
  11  -6  11 343.853 213.834   4
  11  -6  12-232.022 202.887   2
  11  -6  12-155.252 162.542   4
  11  -6  13 579.689 286.481   2
 -11   5  11 202.106 194.870   5
  11  -5 -10-493.386 209.685   2
 -11   5  10-9.37221 164.007   5
  11  -5  -9 730.355 246.434   2
 -11   5   9 281.132 196.200   5
  11  -5  -8 146.789 119.956   2
 -11   5   8 225.902 205.500   5
  11  -5  -7-16.2091 122.289   2
  11  -5  -6 2931.46 451.339   2
  11  -5  -5 2575.22 433.912   2
  11  -5  -4 4200.69 538.956   2
  11  -5  -3 5137.57 616.534   2
  11  -5  -2 547.038 224.404   2
  11  -5  -1 1718.85 357.283   2
  11  -5   0-99.1808 124.708   2
  11  -5   1-100.488 149.606   2
  11  -5   2 4438.61 591.934   2
  11  -5   3 818.726 290.569   2
  11  -5   4-275.620 227.306   2
  11  -5   5 915.127 305.857   2
  11  -5   6 1481.55 324.279   4
  11  -5   6 1536.92 386.045   2
  11  -5   7 628.085 227.280   4
  11  -5   7 265.977 209.727   2
  11  -5   8 1814.05 444.192   2
  11  -5   8 2025.13 395.851   4
  11  -5   9 263.734 251.316   2
  11  -5   9 141.917 193.476   4
  11  -5  10-190.136 236.188   2
  11  -5  10 178.007 193.875   4
  11  -5  11 1437.28 421.247   2
  11  -5  11 1017.02 308.671   4
  11  -5  12 27.4932 159.510   4
  11  -5  13 74.0187 173.002   4
  11  -4 -11 494.174 226.584   2
 -11   4  11 37.9088 198.034   5
  11  -4 -10 88.5618 147.189   2
 -11   4  10 0.82315 135.363   5
  11  -4  -9 3699.89 520.218   2
 -11   4   9 4338.63 605.333   5
  11  -4  -8-2.42279 130.598   2
  11  -4  -7 1836.25 370.880   2
  11  -4  -6 4000.70 555.361   2
  11  -4  -5 248.994 192.734   2
  11  -4  -4 10272.6 866.468   2
  11  -4  -3-112.929 134.665   2
  11  -4  -2 1262.90 318.946   2
  11  -4  -1 604.549 226.236   2
  11  -4   0-19.1936 151.031   2
  11  -4   1 2610.58 461.957   2
  11  -4   2 1166.14 329.441   2
  11  -4   3-11.1922 145.266   2
  11  -4   4 575.718 247.502   2
  11  -4   5 331.872 247.415   2
  11  -4   6 3059.62 552.871   2
  11  -4   7-47.3957 154.866   2
  11  -4   8 1181.61 361.290   2
  11  -4   9 37.1982 203.570   2
  11  -4  10-86.0595 175.176   2
  11  -4  10-278.031 186.349   4
  11  -4  11 3565.21 547.357   4
  11  -4  12 664.855 274.688   4
  11  -4  13 1860.87 422.667   4
 -11   3  11 485.611 241.875   5
  11  -3 -10 1691.97 386.301   2
 -11   3  10 2226.47 429.722   5
  11  -3  -9 3019.74 485.261   2
 -11   3   9 2384.16 444.787   5
  11  -3  -8 368.239 211.532   2
  11  -3  -7 5745.03 659.610   2
  11  -3  -6 519.974 226.638   2
  11  -3  -5 971.766 290.072   2
  11  -3  -4 197.974 157.284   2
  11  -3  -3-105.106 152.797   2
  11  -3  -2 215.359 181.838   2
  11  -3  -1 1039.21 301.268   2
  11  -3   0 623.754 247.012   2
  11  -3   1 459.740 208.826   2
  11  -3   2 400.733 207.706   2
  11  -3   3 1421.92 377.301   2
  11  -3   4 392.694 279.250   2
  11  -3   5 5140.73 693.196   2
  11  -3   6 2345.23 479.452   2
  11  -3   7 713.354 285.322   2
  11  -3   8 2593.86 555.007   2
 -11   2  10-17.9127 142.588   5
  11  -2  -9 163.210 161.233   2
  11  -2  -8-4.15736 134.138   2
  11  -2  -7 567.750 237.831   2
  11  -2  -6 68.5102 172.498   2
  11  -2  -5 929.949 280.355   2
  11  -2  -4 295.890 197.423   2
  11  -2  -3 842.742 266.048   2
  11  -2  -2 689.070 244.754   2
  11  -2  -1-175.947 137.383   2
  11  -2   0 1133.12 349.550   2
  11  -2   1-59.1915 128.832   2
  11  -2   2 229.849 166.112   2
  11  -2   3 2328.78 477.126   2
  11  -2   4 2783.99 526.967   2
  11  -2   5 2636.10 538.108   2
  11  -1  -6 899.569 297.284   2
  11  -1  -5-85.6051 151.982   2
  11  -1  -4 401.021 198.077   2
  11  -1  -3 1383.72 363.166   2
  11  -1  -2 98.0759 153.681   2
  11  -1  -1 1643.47 389.068   2
  11  -1   0 361.475 188.108   2
  11  -1   1 2286.76 459.102   2
  11  -1   2 3175.53 540.079   2
  12 -10   0 95.3110 159.743   4
  12 -10   1 365.217 226.798   4
  12 -10   2-309.008 210.409   4
  12 -10   3-163.776 205.870   4
  12  -9   2 615.881 233.711   4
  12  -9   3-47.7318 169.813   4
  12  -9   4 281.449 205.866   4
  12  -9   5 133.672 156.238   4
  12  -9   6 385.217 236.348   4
  12  -8  -6 772.731 238.934   2
  12  -8  -5 147.095 163.725   2
  12  -8  -4 291.202 175.035   2
  12  -8  -3 8.99092 111.700   2
  12  -8  -2 291.216 174.247   2
  12  -8  -1 50.6353 119.021   2
  12  -8   0 195.414 136.743   2
  12  -8   1 290.479 164.532   2
  12  -8   2 237.947 199.821   2
  12  -8   3 1078.27 307.332   2
  12  -8   4 3159.61 509.887   4
  12  -8   4 2604.78 452.344   2
  12  -8   5 757.732 281.344   4
  12  -8   5 1422.70 343.430   2
  12  -8   6 1049.37 318.685   4
  12  -8   7 505.553 246.529   4
  12  -8   8 676.179 250.170   4
  12  -7  -8 1055.60 287.228   2
  12  -7  -7 283.288 167.557   2
  12  -7  -6 1734.68 362.566   2
  12  -7  -5 933.278 261.821   2
  12  -7  -4 210.694 188.389   2
  12  -7  -3 605.030 222.836   2
  12  -7  -2 532.659 219.119   2
  12  -7  -1-169.882 198.154   2
  12  -7   0 236.917 174.161   2
  12  -7   1 56.6371 122.463   2
  12  -7   2 426.622 176.704   2
  12  -7   3 372.256 196.720   2
  12  -7   4 421.088 230.286   2
  12  -7   5 7653.23 807.940   2
  12  -7   6 1161.40 351.588   2
  12  -7   7 2380.83 470.254   4
  12  -7   7 3648.36 579.689   2
  12  -7   8 376.622 221.377   4
  12  -7   8 94.7862 183.078   2
  12  -7   9-131.443 165.332   4
  12  -7   9-272.447 211.733   2
  12  -6  -7 1145.61 294.863   2
  12  -6  -6 522.682 237.503   2
  12  -6  -5 3389.99 509.441   2
  12  -6  -4 923.690 287.637   2
  12  -6  -3 1437.06 344.618   2
  12  -6  -2-108.692 147.580   2
  12  -6  -1 490.301 226.501   2
  12  -6   0 2560.59 454.053   2
  12  -6   1-80.6696 144.085   2
  12  -6   2 747.399 318.669   2
  12  -6   3 2423.90 470.569   2
  12  -6   4 0.30343 224.636   2
  12  -6   5 6700.36 791.562   2
  12  -6   6 189.587 248.109   2
  12  -6   7 68.9577 147.875   2
  12  -5  -6 3702.79 545.662   2
  12  -5  -5 146.807 171.314   2
  12  -5  -4 5466.43 664.735   2
  12  -5  -3 2089.41 429.530   2
  12  -5  -2 325.599 205.401   2
  12  -5  -1 3614.16 542.117   2
  12  -5   0 593.188 252.273   2
  12  -5   1 1442.39 377.308   2
  12  -5   2 2041.26 441.788   2
  12  -5   3-6.53906 159.048   2
  12  -5   4 456.726 242.324   2
  12  -5   5 1828.75 434.145   2
  12  -4  -3 521.467 277.966   2
  12  -4  -2 999.200 331.844   2
  12  -4  -1 1566.61 382.707   2
  12  -4   0 408.722 228.264   2
  12  -4   1 1514.59 382.083   2
   0   0   0    0.00    0.00   0
TITL chenchj_0614_2 in P-1
REM P-1 (#2 in standard setting)
CELL 0.71073   9.652499  10.012804  20.197978  94.5256  92.1735 117.7031
ZERR    7.00   0.000434   0.000490   0.001031   0.0041   0.0039   0.0048
LATT  1
SFAC C H N O
UNIT 77.00 70.00 7.00 7.00
TREF
HKLF 4
END
;
_shelx_hkl_checksum              6886
_shelx_shelxl_version_number     2014/7
_olex2_date_sample_data_collection 2016-06-14
_olex2_submission_special_instructions 'No special instructions were received'
loop_
_space_group_symop_operation_xyz
'x, y, z'
'-x, -y, -z'
loop_
_atom_site_label
_atom_site_type_symbol
_atom_site_fract_x
_atom_site_fract_y
_atom_site_fract_z
_atom_site_U_iso_or_equiv
_atom_site_adp_type
_atom_site_occupancy
_atom_site_site_symmetry_order
_atom_site_calc_flag
_atom_site_refinement_flags_posn
_atom_site_refinement_flags_adp
_atom_site_refinement_flags_occupancy
_atom_site_disorder_assembly
_atom_site_disorder_group
S1 S 0.02296(8) 0.11115(7) 0.20173(4) 0.03070(19) Uani 1 1 d . . . . .
Na1 Na 0.19543(14) -0.05908(12) 0.14706(6) 0.0352(3) Uani 1 1 d . . . . .
O1 O -0.0467(2) -0.0287(2) 0.15644(11) 0.0401(5) Uani 1 1 d . . . . .
O2 O -0.0244(2) 0.2247(2) 0.18759(11) 0.0402(5) Uani 1 1 d . . . . .
O3 O 0.6257(4) 0.5554(3) 0.2686(2) 0.1156(16) Uani 1 1 d . U . . .
O4 O -0.2020(3) -0.0691(3) 0.46591(11) 0.0460(6) Uani 1 1 d . . . . .
O5 O 0.4906(8) 0.0584(8) 0.1243(4) 0.0448(15) Uani 0.432(5) 1 d . U P A 1
O5' O 0.4147(6) -0.0375(7) 0.2082(2) 0.0529(12) Uani 0.568(5) 1 d . U P A 2
O6 O 0.3600(9) -0.1320(9) 0.2205(4) 0.0513(16) Uani 0.432(5) 1 d . U P A 1
O6' O 0.1245(6) -0.2655(6) 0.2259(3) 0.0514(12) Uani 0.568(5) 1 d . U P A 2
O7 O 0.0464(9) -0.3153(8) 0.1850(4) 0.0649(18) Uani 0.432(5) 1 d . U P A 1
O7' O 0.0118(7) -0.3166(7) 0.0938(3) 0.0560(13) Uani 0.568(5) 1 d . U P A 2
O8 O 0.0787(9) -0.2555(9) 0.0531(5) 0.069(2) Uani 0.432(5) 1 d . U P A 1
O8' O 0.1479(6) -0.0550(6) 0.0287(2) 0.0482(11) Uani 0.568(5) 1 d . U P A 2
O9 O 0.2601(9) 0.0484(8) 0.0395(3) 0.0549(19) Uani 0.432(5) 1 d . U P A 1
O9' O 0.4500(6) 0.0478(5) 0.0863(3) 0.0417(11) Uani 0.568(5) 1 d . U P A 2
N1 N 0.2028(2) 0.1667(2) 0.20744(11) 0.0256(5) Uani 1 1 d . . . . .
C1 C -0.0508(3) 0.0544(3) 0.28023(15) 0.0317(6) Uani 1 1 d . . . . .
C2 C -0.1067(3) 0.1337(3) 0.31999(15) 0.0342(6) Uani 1 1 d . . . . .
H2 H -0.1100 0.2181 0.3055 0.041 Uiso 1 1 calc R . . . .
C3 C -0.1579(4) 0.0888(3) 0.38119(16) 0.0382(7) Uani 1 1 d . . . . .
H3 H -0.1964 0.1426 0.4074 0.046 Uiso 1 1 calc R . . . .
C4 C -0.1524(3) -0.0358(3) 0.40386(16) 0.0362(7) Uani 1 1 d . . . . .
C5 C -0.0964(4) -0.1156(4) 0.36435(18) 0.0461(8) Uani 1 1 d . . . . .
H5 H -0.0922 -0.1995 0.3791 0.055 Uiso 1 1 calc R . . . .
C6 C -0.0466(4) -0.0708(4) 0.30305(19) 0.0473(9) Uani 1 1 d . . . . .
H6 H -0.0096 -0.1254 0.2765 0.057 Uiso 1 1 calc R . . . .
C7 C -0.1941(4) -0.1944(4) 0.49182(19) 0.0538(9) Uani 1 1 d . . . . .
H7A H -0.2559 -0.2851 0.4622 0.081 Uiso 1 1 calc GR . . . .
H7B H -0.2341 -0.2068 0.5349 0.081 Uiso 1 1 calc GR . . . .
H7C H -0.0869 -0.1754 0.4957 0.081 Uiso 1 1 calc GR . . . .
C9 C 0.3038(3) 0.3185(3) 0.24090(13) 0.0250(5) Uani 1 1 d . . . . .
H9 H 0.2371 0.3551 0.2629 0.030 Uiso 1 1 calc R . . . .
C10 C 0.4188(3) 0.3169(3) 0.29369(12) 0.0274(6) Uani 1 1 d . . . . .
C11 C 0.3768(4) 0.2024(4) 0.33451(17) 0.0526(9) Uani 1 1 d . . . . .
H11 H 0.2769 0.1196 0.3277 0.063 Uiso 1 1 calc R . . . .
C12 C 0.4804(5) 0.2082(5) 0.3854(2) 0.0662(12) Uani 1 1 d . . . . .
H12 H 0.4481 0.1303 0.4127 0.079 Uiso 1 1 calc R . . . .
C13 C 0.6278(4) 0.3251(4) 0.39601(16) 0.0482(8) Uani 1 1 d . . . . .
H13 H 0.6962 0.3282 0.4305 0.058 Uiso 1 1 calc R . . . .
C14 C 0.6746(5) 0.4382(4) 0.3556(2) 0.0601(11) Uani 1 1 d . . . . .
H14 H 0.7763 0.5182 0.3616 0.072 Uiso 1 1 calc R . . . .
C15 C 0.5695(4) 0.4339(3) 0.30518(19) 0.0497(9) Uani 1 1 d . . . . .
C16 C 0.5468(4) 0.5399(4) 0.2078(3) 0.0835(16) Uani 1 1 d . U . . .
C17 C 0.6299(5) 0.6425(6) 0.1629(3) 0.119(2) Uani 1 1 d . U . . .
H17 H 0.7341 0.7144 0.1741 0.142 Uiso 1 1 calc R . . . .
C18 C 0.5582(5) 0.6369(6) 0.1031(3) 0.115(2) Uani 1 1 d . U . . .
H18 H 0.6123 0.7068 0.0736 0.138 Uiso 1 1 calc R . . . .
C19 C 0.4088(5) 0.5306(6) 0.0862(2) 0.0802(15) Uani 1 1 d . U . . .
H19 H 0.3597 0.5276 0.0452 0.096 Uiso 1 1 calc R . . . .
C20 C 0.3277(4) 0.4253(4) 0.12948(16) 0.0427(8) Uani 1 1 d . . . . .
H20 H 0.2257 0.3502 0.1163 0.051 Uiso 1 1 calc R . . . .
C21 C 0.3945(3) 0.4291(3) 0.19170(15) 0.0336(6) Uani 1 1 d . . . . .
C22 C 0.5691(4) 0.0669(5) 0.1896(2) 0.0597(10) Uani 1 1 d . U . . .
H22C H 0.6304 0.1375 0.2280 0.072 Uiso 0.568(5) 1 calc R . P A 2
H22D H 0.6236 0.0109 0.1748 0.072 Uiso 0.568(5) 1 calc R . P A 2
H22A H 0.6817 0.1149 0.1863 0.072 Uiso 0.432(5) 1 calc R . P A 1
H22B H 0.5476 0.1304 0.2220 0.072 Uiso 0.432(5) 1 calc R . P A 1
C23 C 0.5242(10) -0.0660(12) 0.2111(5) 0.059(2) Uani 0.432(5) 1 d . U P A 1
H23A H 0.5835 -0.0545 0.2529 0.070 Uiso 0.432(5) 1 calc R . P A 1
H23B H 0.5434 -0.1314 0.1789 0.070 Uiso 0.432(5) 1 calc R . P A 1
C23' C 0.4001(11) -0.1308(11) 0.2559(5) 0.077(2) Uani 0.568(5) 1 d . U P A 2
H23C H 0.3638 -0.0991 0.2953 0.092 Uiso 0.568(5) 1 calc R . P A 2
H23D H 0.5018 -0.1232 0.2683 0.092 Uiso 0.568(5) 1 calc R . P A 2
C24 C 0.2485(19) -0.2686(19) 0.2534(8) 0.084(4) Uani 0.432(5) 1 d . U P A 1
H24A H 0.2950 -0.3362 0.2517 0.101 Uiso 0.432(5) 1 calc R . P A 1
H24B H 0.2575 -0.2317 0.3001 0.101 Uiso 0.432(5) 1 calc R . P A 1
C24' C 0.2953(12) -0.2794(12) 0.2331(5) 0.062(2) Uani 0.568(5) 1 d . U P A 2
H24C H 0.2906 -0.3486 0.2650 0.074 Uiso 0.568(5) 1 calc R . P A 2
H24D H 0.3203 -0.3108 0.1905 0.074 Uiso 0.568(5) 1 calc R . P A 2
C25 C 0.1264(15) -0.3402(14) 0.2409(6) 0.071(3) Uani 0.432(5) 1 d . U P A 1
H25A H 0.0730 -0.3354 0.2801 0.086 Uiso 0.432(5) 1 calc R . P A 1
H25B H 0.1106 -0.4433 0.2332 0.086 Uiso 0.432(5) 1 calc R . P A 1
C25' C 0.0191(11) -0.4074(10) 0.1967(5) 0.078(2) Uani 0.568(5) 1 d . U P A 2
H25C H -0.0849 -0.4273 0.2084 0.094 Uiso 0.568(5) 1 calc R . P A 2
H25D H 0.0428 -0.4808 0.2161 0.094 Uiso 0.568(5) 1 calc R . P A 2
C26 C -0.0444(19) -0.4257(17) 0.1390(9) 0.096(4) Uani 0.432(5) 1 d . U P A 1
H26A H -0.1475 -0.4801 0.1552 0.115 Uiso 0.432(5) 1 calc R . P A 1
H26B H -0.0018 -0.4961 0.1331 0.115 Uiso 0.432(5) 1 calc R . P A 1
C26' C 0.0138(10) -0.4336(10) 0.1258(5) 0.0603(19) Uani 0.568(5) 1 d . U P A 2
H26C H 0.1047 -0.4449 0.1143 0.072 Uiso 0.568(5) 1 calc R . P A 2
H26D H -0.0794 -0.5277 0.1101 0.072 Uiso 0.568(5) 1 calc R . P A 2
C27 C -0.0623(18) -0.3810(16) 0.0773(8) 0.101(4) Uani 0.432(5) 1 d . U P A 1
H27A H -0.1441 -0.3506 0.0789 0.121 Uiso 0.432(5) 1 calc R . P A 1
H27B H -0.0997 -0.4690 0.0445 0.121 Uiso 0.432(5) 1 calc R . P A 1
C27' C 0.0077(16) -0.3207(13) 0.0300(6) 0.098(3) Uani 0.568(5) 1 d . U P A 2
H27C H -0.0917 -0.4052 0.0119 0.118 Uiso 0.568(5) 1 calc R . P A 2
H27D H 0.0897 -0.3438 0.0157 0.118 Uiso 0.568(5) 1 calc R . P A 2
C28 C 0.0249(5) -0.1917(5) 0.0002(2) 0.0685(11) Uani 1 1 d . U . . .
H28C H 0.0404 -0.2056 -0.0465 0.082 Uiso 0.568(5) 1 calc R . P A 2
H28D H -0.0721 -0.1854 0.0024 0.082 Uiso 0.568(5) 1 calc R . P A 2
H28A H -0.0282 -0.2663 -0.0381 0.082 Uiso 0.432(5) 1 calc R . P A 1
H28B H -0.0441 -0.1530 0.0166 0.082 Uiso 0.432(5) 1 calc R . P A 1
C29 C 0.1754(17) -0.0683(15) -0.0159(5) 0.070(3) Uani 0.432(5) 1 d . U P A 1
H29A H 0.2417 -0.1117 -0.0307 0.084 Uiso 0.432(5) 1 calc R . P A 1
H29B H 0.1553 -0.0212 -0.0526 0.084 Uiso 0.432(5) 1 calc R . P A 1
C29' C 0.2761(9) -0.0005(9) -0.0108(4) 0.0524(16) Uani 0.568(5) 1 d . U P A 2
H29C H 0.2512 0.0361 -0.0503 0.063 Uiso 0.568(5) 1 calc R . P A 2
H29D H 0.3021 -0.0805 -0.0247 0.063 Uiso 0.568(5) 1 calc R . P A 2
C30 C 0.4164(6) 0.1318(5) 0.0335(2) 0.0669(11) Uani 1 1 d . U . . .
H30C H 0.5064 0.1829 0.0081 0.080 Uiso 0.568(5) 1 calc R . P A 2
H30D H 0.3868 0.2054 0.0532 0.080 Uiso 0.568(5) 1 calc R . P A 2
H30A H 0.4331 0.2144 0.0073 0.080 Uiso 0.432(5) 1 calc R . P A 1
H30B H 0.4536 0.0684 0.0097 0.080 Uiso 0.432(5) 1 calc R . P A 1
C31 C 0.5541(8) 0.1473(10) 0.1383(4) 0.0488(15) Uani 0.568(5) 1 d . U P A 2
H31A H 0.5164 0.2166 0.1555 0.059 Uiso 0.568(5) 1 calc R . P A 2
H31B H 0.6560 0.2066 0.1220 0.059 Uiso 0.568(5) 1 calc R . P A 2
C31' C 0.5082(12) 0.1946(10) 0.0980(5) 0.059(2) Uani 0.432(5) 1 d . U P A 1
H31C H 0.6173 0.2633 0.0927 0.071 Uiso 0.432(5) 1 calc R . P A 1
H31D H 0.4651 0.2469 0.1260 0.071 Uiso 0.432(5) 1 calc R . P A 1
C32 C 0.3973(6) 0.6523(8) 0.4096(2) 0.0793(15) Uani 1 1 d . . . . .
H32 H 0.4903 0.6526 0.3989 0.095 Uiso 1 1 calc R . . . .
C33 C 0.3961(5) 0.7846(6) 0.4278(2) 0.0706(13) Uani 1 1 d . . . . .
H33 H 0.4887 0.8757 0.4301 0.085 Uiso 1 1 calc R . . . .
C34 C 0.2594(5) 0.7852(4) 0.44280(18) 0.0538(9) Uani 1 1 d . . . . .
H34 H 0.2589 0.8765 0.4550 0.065 Uiso 1 1 calc R . . . .
C35 C 0.1240(4) 0.6519(4) 0.43992(17) 0.0482(8) Uani 1 1 d . . . . .
H35 H 0.0310 0.6519 0.4504 0.058 Uiso 1 1 calc R . . . .
C36 C 0.1251(5) 0.5190(4) 0.42173(18) 0.0613(11) Uani 1 1 d . . . . .
H36 H 0.0323 0.4281 0.4193 0.074 Uiso 1 1 calc R . . . .
C37 C 0.2615(8) 0.5177(6) 0.40698(19) 0.0761(15) Uani 1 1 d . . . . .
H37 H 0.2622 0.4263 0.3953 0.091 Uiso 1 1 calc R . . . .
loop_
_atom_site_aniso_label
_atom_site_aniso_U_11
_atom_site_aniso_U_22
_atom_site_aniso_U_33
_atom_site_aniso_U_23
_atom_site_aniso_U_13
_atom_site_aniso_U_12
S1 0.0216(3) 0.0245(3) 0.0433(4) 0.0100(3) 0.0026(3) 0.0076(3)
Na1 0.0396(6) 0.0296(6) 0.0351(6) -0.0014(5) -0.0028(5) 0.0163(5)
O1 0.0310(11) 0.0266(10) 0.0490(13) 0.0036(9) -0.0067(9) 0.0029(8)
O2 0.0290(11) 0.0378(11) 0.0601(14) 0.0221(10) 0.0080(10) 0.0181(9)
O3 0.078(2) 0.0433(15) 0.159(3) 0.0494(18) -0.085(2) -0.0252(14)
O4 0.0504(14) 0.0449(13) 0.0478(13) 0.0167(10) 0.0151(11) 0.0239(11)
O5 0.039(3) 0.051(4) 0.044(4) -0.010(3) 0.000(3) 0.022(3)
O5' 0.042(2) 0.071(3) 0.051(3) 0.014(2) 0.0019(19) 0.031(2)
O6 0.064(4) 0.068(4) 0.040(3) -0.001(3) -0.008(3) 0.048(3)
O6' 0.061(3) 0.043(3) 0.065(3) 0.016(2) 0.016(2) 0.034(2)
O7 0.063(4) 0.028(3) 0.099(5) 0.009(3) -0.007(4) 0.017(3)
O7' 0.049(3) 0.045(3) 0.072(3) 0.000(2) -0.004(3) 0.022(2)
O8 0.059(4) 0.060(4) 0.084(5) -0.032(4) -0.049(4) 0.034(3)
O8' 0.053(3) 0.067(3) 0.033(2) 0.000(2) 0.002(2) 0.037(2)
O9 0.086(5) 0.077(5) 0.029(3) -0.002(3) 0.001(3) 0.062(4)
O9' 0.048(2) 0.040(2) 0.039(2) 0.0045(19) 0.004(2) 0.0221(19)
N1 0.0218(11) 0.0188(10) 0.0318(12) 0.0000(8) 0.0020(9) 0.0063(8)
C1 0.0213(13) 0.0251(13) 0.0482(17) 0.0116(11) 0.0058(12) 0.0091(10)
C2 0.0321(15) 0.0255(13) 0.0442(16) 0.0044(11) -0.0026(12) 0.0133(11)
C3 0.0417(17) 0.0328(15) 0.0443(17) 0.0010(12) 0.0026(14) 0.0216(13)
C4 0.0267(14) 0.0312(15) 0.0459(17) 0.0095(12) 0.0055(12) 0.0087(11)
C5 0.0478(19) 0.0348(16) 0.069(2) 0.0278(15) 0.0277(17) 0.0255(15)
C6 0.0509(19) 0.0392(17) 0.069(2) 0.0262(16) 0.0333(17) 0.0306(16)
C7 0.053(2) 0.051(2) 0.058(2) 0.0228(17) 0.0099(17) 0.0226(17)
C9 0.0280(13) 0.0193(12) 0.0279(13) -0.0004(9) 0.0002(10) 0.0118(10)
C10 0.0344(14) 0.0297(13) 0.0219(12) -0.0034(10) -0.0010(11) 0.0193(11)
C11 0.0402(18) 0.064(2) 0.0476(19) 0.0289(17) 0.0024(15) 0.0166(17)
C12 0.062(3) 0.084(3) 0.054(2) 0.040(2) 0.0011(19) 0.030(2)
C13 0.065(2) 0.058(2) 0.0357(17) -0.0055(15) -0.0144(16) 0.0432(19)
C14 0.058(2) 0.0351(18) 0.076(3) -0.0040(17) -0.039(2) 0.0180(16)
C15 0.050(2) 0.0234(14) 0.065(2) 0.0024(14) -0.0288(17) 0.0109(13)
C16 0.042(2) 0.0434(19) 0.133(3) 0.051(2) -0.042(2) -0.0099(15)
C17 0.041(2) 0.084(3) 0.183(4) 0.096(3) -0.036(3) -0.019(2)
C18 0.041(2) 0.119(4) 0.162(4) 0.115(3) -0.001(3) 0.003(2)
C19 0.042(2) 0.109(3) 0.088(3) 0.071(3) 0.014(2) 0.024(2)
C20 0.0307(16) 0.0472(18) 0.0433(17) 0.0181(14) 0.0031(13) 0.0105(14)
C21 0.0263(14) 0.0224(13) 0.0461(17) 0.0096(11) -0.0047(12) 0.0061(11)
C22 0.0337(17) 0.083(3) 0.056(2) -0.0123(19) -0.0074(15) 0.0265(18)
C23 0.055(4) 0.087(6) 0.053(5) -0.011(4) -0.017(4) 0.053(4)
C23' 0.068(4) 0.089(5) 0.071(5) 0.037(4) -0.005(4) 0.032(4)
C24 0.084(6) 0.084(6) 0.082(6) 0.033(5) -0.017(5) 0.035(5)
C24' 0.082(4) 0.068(4) 0.062(5) 0.022(3) -0.002(4) 0.054(3)
C25 0.081(5) 0.052(5) 0.089(6) 0.018(5) 0.003(5) 0.036(4)
C25' 0.085(5) 0.044(4) 0.096(5) 0.016(4) -0.002(4) 0.021(4)
C26 0.087(7) 0.047(5) 0.105(7) -0.009(5) -0.013(6) -0.005(5)
C26' 0.048(4) 0.025(3) 0.104(5) -0.003(3) -0.007(4) 0.016(3)
C27 0.082(6) 0.065(6) 0.102(6) -0.022(5) -0.032(6) -0.002(5)
C27' 0.094(5) 0.076(4) 0.088(5) -0.003(4) -0.029(5) 0.014(4)
C28 0.071(3) 0.082(3) 0.054(2) -0.014(2) -0.022(2) 0.042(2)
C29 0.107(8) 0.095(7) 0.031(5) -0.005(4) -0.004(5) 0.069(6)
C29' 0.060(4) 0.064(4) 0.040(3) 0.010(3) 0.013(3) 0.034(3)
C30 0.075(3) 0.075(3) 0.052(2) 0.0197(19) 0.0192(19) 0.033(2)
C31 0.038(3) 0.047(3) 0.055(3) -0.007(3) 0.006(3) 0.016(3)
C31' 0.060(5) 0.046(4) 0.069(6) -0.003(4) 0.025(4) 0.022(4)
C32 0.081(3) 0.147(5) 0.050(2) 0.018(3) 0.009(2) 0.085(4)
C33 0.043(2) 0.083(3) 0.055(2) 0.006(2) 0.0040(18) 0.005(2)
C34 0.075(3) 0.0417(19) 0.047(2) 0.0113(15) 0.0111(18) 0.0276(18)
C35 0.0442(19) 0.063(2) 0.0411(18) 0.0113(16) 0.0057(15) 0.0273(17)
C36 0.079(3) 0.0392(19) 0.0423(19) 0.0041(15) 0.0088(19) 0.0086(19)
C37 0.153(5) 0.080(3) 0.037(2) 0.013(2) 0.022(3) 0.087(4)
loop_
_atom_type_symbol
_atom_type_description
_atom_type_scat_dispersion_real
_atom_type_scat_dispersion_imag
_atom_type_scat_source
C C 0.0033 0.0016 'International Tables Vol C Tables 4.2.6.8 and 6.1.1.4'
H H 0.0000 0.0000 'International Tables Vol C Tables 4.2.6.8 and 6.1.1.4'
N N 0.0061 0.0033 'International Tables Vol C Tables 4.2.6.8 and 6.1.1.4'
Na Na 0.0362 0.0249 'International Tables Vol C Tables 4.2.6.8 and 6.1.1.4'
O O 0.0106 0.0060 'International Tables Vol C Tables 4.2.6.8 and 6.1.1.4'
S S 0.1246 0.1234 'International Tables Vol C Tables 4.2.6.8 and 6.1.1.4'
loop_
_geom_angle_atom_site_label_1
_geom_angle_atom_site_label_2
_geom_angle_atom_site_label_3
_geom_angle
O1 S1 Na1 54.19(9)
O1 S1 N1 106.22(12)
O1 S1 C1 104.84(13)
O2 S1 Na1 143.35(10)
O2 S1 O1 116.29(14)
O2 S1 N1 115.50(12)
O2 S1 C1 104.55(13)
N1 S1 Na1 52.61(8)
N1 S1 C1 108.74(13)
C1 S1 Na1 112.10(10)
O1 Na1 O5 148.80(17)
O1 Na1 O6 136.56(18)
O1 Na1 O6' 96.60(13)
O1 Na1 O9' 139.82(12)
O5' Na1 O1 143.13(14)
O5' Na1 O6' 67.8(2)
O5' Na1 O7' 115.6(2)
O5' Na1 O8' 130.55(16)
O5' Na1 O9' 65.18(17)
O5' Na1 N1 94.34(16)
O6 Na1 O5 64.8(2)
O6' Na1 O9' 123.57(16)
O7 Na1 O1 87.78(18)
O7 Na1 O5 123.3(2)
O7 Na1 O6 66.4(3)
O7' Na1 O1 84.58(14)
O7' Na1 O6' 66.4(2)
O7' Na1 O9' 109.26(18)
O8 Na1 O1 93.65(18)
O8 Na1 O5 100.4(3)
O8 Na1 O6 107.1(2)
O8 Na1 O7 68.6(3)
O8 Na1 O9 68.4(3)
O8 Na1 N1 147.00(17)
O8' Na1 O1 84.42(12)
O8' Na1 O6' 135.55(19)
O8' Na1 O7' 69.47(19)
O8' Na1 O9' 67.09(16)
O8' Na1 N1 108.89(13)
O9 Na1 O1 95.78(16)
O9 Na1 O5 64.6(2)
O9 Na1 O6 127.1(2)
O9 Na1 O7 137.0(3)
N1 Na1 O1 58.12(7)
N1 Na1 O5 98.04(16)
N1 Na1 O6 105.47(16)
N1 Na1 O6' 109.05(13)
N1 Na1 O7 121.5(2)
N1 Na1 O7' 142.23(14)
N1 Na1 O9 95.71(15)
N1 Na1 O9' 103.83(12)
S1 O1 Na1 97.66(10)
C15 O3 C16 118.0(3)
C4 O4 C7 117.8(3)
C22 O5 Na1 103.3(4)
C31' O5 Na1 99.1(5)
C31' O5 C22 120.5(7)
C22 O5' Na1 118.4(3)
C23' O5' Na1 121.0(5)
C23' O5' C22 120.2(5)
C23 O6 Na1 117.0(6)
C23 O6 C24 133.7(9)
C24 O6 Na1 107.4(7)
C24' O6' Na1 101.5(4)
C25' O6' Na1 113.4(6)
C25' O6' C24' 102.0(6)
C25 O7 Na1 113.4(7)
C26 O7 Na1 116.3(9)
C26 O7 C25 122.1(11)
C26' O7' Na1 114.5(5)
C27' O7' Na1 110.8(7)
C27' O7' C26' 121.1(8)
C27 O8 Na1 105.7(9)
C28 O8 Na1 107.1(4)
C28 O8 C27 108.3(8)
C28 O8' Na1 111.3(3)
C28 O8' C29' 112.2(6)
C29' O8' Na1 119.1(5)
C29 O9 Na1 110.6(7)
C30 O9 Na1 114.4(4)
C30 O9 C29 114.3(7)
C30 O9' Na1 102.7(3)
C31 O9' Na1 99.1(4)
C31 O9' C30 111.8(5)
S1 N1 Na1 97.18(10)
C9 N1 S1 117.47(18)
C9 N1 Na1 145.31(17)
C2 C1 S1 122.4(2)
C2 C1 C6 118.7(3)
C6 C1 S1 118.9(2)
C1 C2 H2 119.8
C1 C2 C3 120.5(3)
C3 C2 H2 119.8
C2 C3 H3 119.7
C2 C3 C4 120.5(3)
C4 C3 H3 119.7
O4 C4 C3 116.2(3)
O4 C4 C5 124.5(3)
C5 C4 C3 119.4(3)
C4 C5 H5 120.1
C6 C5 C4 119.8(3)
C6 C5 H5 120.1
C1 C6 H6 119.4
C5 C6 C1 121.2(3)
C5 C6 H6 119.4
O4 C7 H7A 109.5
O4 C7 H7B 109.5
O4 C7 H7C 109.5
H7A C7 H7B 109.5
H7A C7 H7C 109.5
H7B C7 H7C 109.5
N1 C9 H9 108.2
N1 C9 C10 111.4(2)
N1 C9 C21 111.6(2)
C10 C9 H9 108.2
C10 C9 C21 109.2(2)
C21 C9 H9 108.2
C11 C10 C9 122.3(3)
C15 C10 C9 121.3(2)
C15 C10 C11 116.4(3)
C10 C11 H11 119.3
C10 C11 C12 121.4(3)
C12 C11 H11 119.3
C11 C12 H12 119.4
C13 C12 C11 121.2(3)
C13 C12 H12 119.4
C12 C13 H13 120.5
C12 C13 C14 119.1(3)
C14 C13 H13 120.5
C13 C14 H14 120.1
C13 C14 C15 119.8(3)
C15 C14 H14 120.1
O3 C15 C10 122.3(3)
O3 C15 C14 115.5(3)
C10 C15 C14 122.2(3)
O3 C16 C17 116.6(3)
C21 C16 O3 122.0(3)
C21 C16 C17 121.4(4)
C16 C17 H17 120.1
C18 C17 C16 119.8(4)
C18 C17 H17 120.1
C17 C18 H18 120.0
C19 C18 C17 120.1(4)
C19 C18 H18 120.0
C18 C19 H19 119.8
C18 C19 C20 120.4(4)
C20 C19 H19 119.8
C19 C20 H20 119.2
C21 C20 C19 121.6(3)
C21 C20 H20 119.2
C16 C21 C9 121.3(3)
C16 C21 C20 116.7(3)
C20 C21 C9 122.0(2)
O5 C22 H22A 108.9
O5 C22 H22B 108.9
O5' C22 H22C 109.7
O5' C22 H22D 109.7
H22C C22 H22D 108.2
H22A C22 H22B 107.7
C23 C22 O5 113.3(5)
C23 C22 H22A 108.9
C23 C22 H22B 108.9
C31 C22 O5' 109.8(4)
C31 C22 H22C 109.7
C31 C22 H22D 109.7
O6 C23 H23A 109.9
O6 C23 H23B 109.9
C22 C23 O6 108.9(7)
C22 C23 H23A 109.9
C22 C23 H23B 109.9
H23A C23 H23B 108.3
O5' C23' H23C 109.5
O5' C23' H23D 109.5
O5' C23' C24' 110.7(9)
H23C C23' H23D 108.1
C24' C23' H23C 109.5
C24' C23' H23D 109.5
O6 C24 H24A 105.2
O6 C24 H24B 105.2
H24A C24 H24B 105.9
C25 C24 O6 128.5(15)
C25 C24 H24A 105.2
C25 C24 H24B 105.2
O6' C24' H24C 111.8
O6' C24' H24D 111.8
C23' C24' O6' 99.9(7)
C23' C24' H24C 111.8
C23' C24' H24D 111.8
H24C C24' H24D 109.5
O7 C25 H25A 107.2
O7 C25 H25B 107.2
C24 C25 O7 120.4(14)
C24 C25 H25A 107.2
C24 C25 H25B 107.2
H25A C25 H25B 106.8
O6' C25' H25C 108.1
O6' C25' H25D 108.1
O6' C25' C26' 116.7(8)
H25C C25' H25D 107.3
C26' C25' H25C 108.1
C26' C25' H25D 108.1
O7 C26 H26A 108.4
O7 C26 H26B 108.4
O7 C26 C27 115.5(13)
H26A C26 H26B 107.5
C27 C26 H26A 108.4
C27 C26 H26B 108.4
O7' C26' C25' 112.6(7)
O7' C26' H26C 109.1
O7' C26' H26D 109.1
C25' C26' H26C 109.1
C25' C26' H26D 109.1
H26C C26' H26D 107.8
O8 C27 H27A 107.9
O8 C27 H27B 107.9
C26 C27 O8 117.5(13)
C26 C27 H27A 107.9
C26 C27 H27B 107.9
H27A C27 H27B 107.2
O7' C27' H27C 107.5
O7' C27' H27D 107.5
O7' C27' C28 119.1(10)
H27C C27' H27D 107.0
C28 C27' H27C 107.5
C28 C27' H27D 107.5
O8 C28 H28A 111.5
O8 C28 H28B 111.5
O8' C28 C27' 115.1(6)
O8' C28 H28C 108.5
O8' C28 H28D 108.5
C27' C28 H28C 108.5
C27' C28 H28D 108.5
H28C C28 H28D 107.5
H28A C28 H28B 109.4
C29 C28 O8 101.2(6)
C29 C28 H28A 111.5
C29 C28 H28B 111.5
O9 C29 C28 114.2(9)
O9 C29 H29A 108.7
O9 C29 H29B 108.7
C28 C29 H29A 108.7
C28 C29 H29B 108.7
H29A C29 H29B 107.6
O8' C29' H29C 110.4
O8' C29' H29D 110.4
O8' C29' C30 106.4(6)
H29C C29' H29D 108.6
C30 C29' H29C 110.4
C30 C29' H29D 110.4
O9 C30 H30A 109.0
O9 C30 H30B 109.0
O9 C30 C31' 112.7(5)
O9' C30 C29' 101.9(4)
O9' C30 H30C 111.4
O9' C30 H30D 111.4
C29' C30 H30C 111.4
C29' C30 H30D 111.4
H30C C30 H30D 109.2
H30A C30 H30B 107.8
C31' C30 H30A 109.0
C31' C30 H30B 109.0
Na1 C31 H31A 75.7
Na1 C31 H31B 163.4
O9' C31 Na1 54.9(3)
O9' C31 C22 110.5(6)
O9' C31 H31A 109.6
O9' C31 H31B 109.6
C22 C31 Na1 83.4(4)
C22 C31 H31A 109.6
C22 C31 H31B 109.6
H31A C31 H31B 108.1
O5 C31' C30 101.0(7)
O5 C31' H31C 111.6
O5 C31' H31D 111.6
C30 C31' H31C 111.6
C30 C31' H31D 111.6
H31C C31' H31D 109.4
C33 C32 H32 120.0
C33 C32 C37 120.0(4)
C37 C32 H32 120.0
C32 C33 H33 119.8
C32 C33 C34 120.3(4)
C34 C33 H33 119.8
C33 C34 H34 120.0
C35 C34 C33 119.9(4)
C35 C34 H34 120.0
C34 C35 H35 120.1
C36 C35 C34 119.8(4)
C36 C35 H35 120.1
C35 C36 H36 119.8
C35 C36 C37 120.5(4)
C37 C36 H36 119.8
C32 C37 H37 120.3
C36 C37 C32 119.4(4)
C36 C37 H37 120.3
loop_
_geom_bond_atom_site_label_1
_geom_bond_atom_site_label_2
_geom_bond_distance
S1 Na1 3.0621(14)
S1 O1 1.458(2)
S1 O2 1.452(2)
S1 N1 1.553(2)
S1 C1 1.788(3)
Na1 O1 2.506(3)
Na1 O5 2.604(6)
Na1 O5' 2.320(5)
Na1 O6 2.516(7)
Na1 O6' 2.562(5)
Na1 O7 2.490(7)
Na1 O7' 2.473(6)
Na1 O8 2.435(7)
Na1 O8' 2.424(5)
Na1 O9 2.473(6)
Na1 O9' 2.585(4)
Na1 N1 2.452(2)
O3 C15 1.372(4)
O3 C16 1.378(5)
O4 C4 1.369(4)
O4 C7 1.429(4)
O5 C22 1.472(9)
O5 C31' 1.441(13)
O5' C22 1.452(6)
O5' C23' 1.361(9)
O6 C23 1.433(12)
O6 C24 1.517(17)
O6' C24' 1.719(10)
O6' C25' 1.370(10)
O7 C25 1.446(15)
O7 C26 1.315(16)
O7' C26' 1.390(11)
O7' C27' 1.283(13)
O8 C27 1.493(18)
O8 C28 1.481(9)
O8' C28 1.388(7)
O8' C29' 1.408(8)
O9 C29 1.457(13)
O9 C30 1.359(9)
O9' C30 1.523(6)
O9' C31 1.389(9)
N1 C9 1.459(3)
C1 C2 1.377(4)
C1 C6 1.387(4)
C2 H2 0.9300
C2 C3 1.379(4)
C3 H3 0.9300
C3 C4 1.385(4)
C4 C5 1.380(4)
C5 H5 0.9300
C5 C6 1.377(4)
C6 H6 0.9300
C7 H7A 0.9600
C7 H7B 0.9600
C7 H7C 0.9600
C9 H9 0.9800
C9 C10 1.516(4)
C9 C21 1.523(4)
C10 C11 1.379(4)
C10 C15 1.375(4)
C11 H11 0.9300
C11 C12 1.385(5)
C12 H12 0.9300
C12 C13 1.353(5)
C13 H13 0.9300
C13 C14 1.361(5)
C14 H14 0.9300
C14 C15 1.393(4)
C16 C17 1.399(6)
C16 C21 1.374(4)
C17 H17 0.9300
C17 C18 1.353(7)
C18 H18 0.9300
C18 C19 1.344(6)
C19 H19 0.9300
C19 C20 1.386(4)
C20 H20 0.9300
C20 C21 1.380(4)
C22 H22C 0.9700
C22 H22D 0.9700
C22 H22A 0.9700
C22 H22B 0.9700
C22 C23 1.310(11)
C22 C31 1.404(9)
C23 H23A 0.9700
C23 H23B 0.9700
C23' H23C 0.9700
C23' H23D 0.9700
C23' C24' 1.381(14)
C24 H24A 0.9700
C24 H24B 0.9700
C24 C25 1.062(17)
C24' H24C 0.9700
C24' H24D 0.9700
C25 H25A 0.9700
C25 H25B 0.9700
C25' H25C 0.9700
C25' H25D 0.9700
C25' C26' 1.430(14)
C26 H26A 0.9700
C26 H26B 0.9700
C26 C27 1.39(2)
C26' H26C 0.9700
C26' H26D 0.9700
C27 H27A 0.9700
C27 H27B 0.9700
C27' H27C 0.9700
C27' H27D 0.9700
C27' C28 1.411(12)
C28 H28C 0.9700
C28 H28D 0.9700
C28 H28A 0.9700
C28 H28B 0.9700
C28 C29 1.473(15)
C29 H29A 0.9700
C29 H29B 0.9700
C29' H29C 0.9700
C29' H29D 0.9700
C29' C30 1.563(9)
C30 H30C 0.9700
C30 H30D 0.9700
C30 H30A 0.9700
C30 H30B 0.9700
C30 C31' 1.464(11)
C31 H31A 0.9700
C31 H31B 0.9700
C31' H31C 0.9700
C31' H31D 0.9700
C32 H32 0.9300
C32 C33 1.352(7)
C32 C37 1.370(7)
C33 H33 0.9300
C33 C34 1.367(6)
C34 H34 0.9300
C34 C35 1.361(5)
C35 H35 0.9300
C35 C36 1.357(5)
C36 H36 0.9300
C36 C37 1.367(7)
C37 H37 0.9300
loop_
_geom_torsion_atom_site_label_1
_geom_torsion_atom_site_label_2
_geom_torsion_atom_site_label_3
_geom_torsion_atom_site_label_4
_geom_torsion
S1 N1 C9 C10 129.9(2)
S1 N1 C9 C21 -107.7(2)
S1 C1 C2 C3 -177.9(2)
S1 C1 C6 C5 177.5(3)
Na1 S1 N1 C9 178.2(2)
Na1 S1 C1 C2 167.9(2)
Na1 S1 C1 C6 -9.8(3)
Na1 O5 C22 C23 61.6(6)
Na1 O5 C31' C30 -70.4(5)
Na1 O5' C22 C31 4.6(6)
Na1 O5' C23' C24' 45.1(10)
Na1 O6 C23 C22 29.2(8)
Na1 O6 C24 C25 14(2)
Na1 O6' C24' C23' 56.8(7)
Na1 O6' C25' C26' 25.0(10)
Na1 O7 C25 C24 -17(2)
Na1 O7 C26 C27 -8.7(19)
Na1 O7' C26' C25' 42.8(8)
Na1 O7' C27' C28 -34.1(13)
Na1 O8 C27 C26 -46.5(16)
Na1 O8 C28 C29 64.4(6)
Na1 O8' C28 C27' -31.3(8)
Na1 O8' C29' C30 -35.5(6)
Na1 O9 C29 C28 28.1(9)
Na1 O9 C30 C31' -24.6(7)
Na1 O9' C30 C29' -64.2(4)
Na1 O9' C31 C22 65.6(5)
Na1 N1 C9 C10 -53.2(4)
Na1 N1 C9 C21 69.1(4)
O1 S1 N1 Na1 -8.43(13)
O1 S1 N1 C9 169.79(18)
O1 S1 C1 C2 -135.2(2)
O1 S1 C1 C6 47.1(3)
O2 S1 O1 Na1 138.33(11)
O2 S1 N1 Na1 -138.96(12)
O2 S1 N1 C9 39.3(2)
O2 S1 C1 C2 -12.3(3)
O2 S1 C1 C6 169.9(3)
O3 C16 C17 C18 -178.0(6)
O3 C16 C21 C9 1.0(7)
O3 C16 C21 C20 179.7(4)
O4 C4 C5 C6 -178.8(3)
O5 C22 C23 O6 -62.7(8)
O5' C22 C31 Na1 -3.0(4)
O5' C22 C31 O9' -51.6(6)
O5' C23' C24' O6' -66.8(9)
O6 C24 C25 O7 2(3)
O6' C25' C26' O7' -45.9(11)
O7 C26 C27 O8 39(2)
O7' C27' C28 O8' 46.9(14)
O8 C28 C29 O9 -62.0(9)
O8' C29' C30 O9' 67.4(6)
O9 C30 C31' O5 68.1(7)
N1 S1 O1 Na1 8.25(13)
N1 S1 C1 C2 111.6(2)
N1 S1 C1 C6 -66.2(3)
N1 C9 C10 C11 -39.4(4)
N1 C9 C10 C15 143.4(3)
N1 C9 C21 C16 -142.7(4)
N1 C9 C21 C20 38.6(4)
C1 S1 O1 Na1 -106.78(11)
C1 S1 N1 Na1 103.93(12)
C1 S1 N1 C9 -77.9(2)
C1 C2 C3 C4 0.6(5)
C2 C1 C6 C5 -0.3(5)
C2 C3 C4 O4 178.4(3)
C2 C3 C4 C5 -0.5(5)
C3 C4 C5 C6 0.0(5)
C4 C5 C6 C1 0.4(6)
C6 C1 C2 C3 -0.2(4)
C7 O4 C4 C3 -178.3(3)
C7 O4 C4 C5 0.6(5)
C9 C10 C11 C12 -175.6(3)
C9 C10 C15 O3 -2.0(6)
C9 C10 C15 C14 176.8(3)
C10 C9 C21 C16 -19.1(4)
C10 C9 C21 C20 162.2(3)
C10 C11 C12 C13 -1.3(7)
C11 C10 C15 O3 -179.4(4)
C11 C10 C15 C14 -0.6(5)
C11 C12 C13 C14 -0.4(7)
C12 C13 C14 C15 1.5(6)
C13 C14 C15 O3 177.8(4)
C13 C14 C15 C10 -1.0(6)
C15 O3 C16 C17 -160.5(5)
C15 O3 C16 C21 19.1(8)
C15 C10 C11 C12 1.8(5)
C16 O3 C15 C10 -18.6(7)
C16 O3 C15 C14 162.5(5)
C16 C17 C18 C19 -1.7(11)
C17 C16 C21 C9 -179.4(5)
C17 C16 C21 C20 -0.6(7)
C17 C18 C19 C20 -0.5(10)
C18 C19 C20 C21 2.3(8)
C19 C20 C21 C9 177.1(4)
C19 C20 C21 C16 -1.7(6)
C21 C9 C10 C11 -163.1(3)
C21 C9 C10 C15 19.6(4)
C21 C16 C17 C18 2.3(10)
C22 O5 C31' C30 178.3(5)
C22 O5' C23' C24' -128.3(7)
C23 O6 C24 C25 -149.1(18)
C23' O5' C22 C31 178.2(7)
C24 O6 C23 C22 -169.1(11)
C24' O6' C25' C26' -83.4(9)
C25 O7 C26 C27 -155.3(14)
C25' O6' C24' C23' 174.0(8)
C26 O7 C25 C24 130(2)
C26' O7' C27' C28 -172.4(8)
C27 O8 C28 C29 178.0(9)
C27' O7' C26' C25' 179.7(11)
C28 O8 C27 C26 -161.0(13)
C28 O8' C29' C30 -168.0(4)
C29 O9 C30 C31' -153.5(7)
C29' O8' C28 C27' 105.0(8)
C30 O9 C29 C28 158.9(7)
C30 O9' C31 Na1 107.7(4)
C30 O9' C31 C22 173.3(4)
C31 O9' C30 C29' -169.5(5)
C31' O5 C22 C23 170.7(7)
C32 C33 C34 C35 0.5(6)
C33 C32 C37 C36 1.1(6)
C33 C34 C35 C36 -0.4(6)
C34 C35 C36 C37 0.7(6)
C35 C36 C37 C32 -1.1(6)
C37 C32 C33 C34 -0.8(7)
