#------------------------------------------------------------------------------
#$Date: 2016-09-07 18:55:56 +0300 (Wed, 07 Sep 2016) $
#$Revision: 186267 $
#$URL: file:///home/coder/svn-repositories/cod/cif/1/54/40/1544035.cif $
#------------------------------------------------------------------------------
#
# This file is available in the Crystallography Open Database (COD),
# http://www.crystallography.net/
#
# All data on this site have been placed in the public domain by the
# contributors.
#
data_1544035
loop_
_publ_author_name
'Alpugan, Serkan'
'Ekineker, G\"ul\,cin'
'Ahsen, Vefa'
'Berber, Sava\,s'
'\"Onal, Emel'
'Dumoulin, Fabienne'
_publ_section_title
;
 Bisphthalonitrile with a Disulfide-Based Linker and its Dimethylene
 Analogue: Comparative Structural Insights
;
_journal_issue                   8
_journal_name_full               Crystals
_journal_page_first              89
_journal_paper_doi               10.3390/cryst6080089
_journal_volume                  6
_journal_year                    2016
_chemical_formula_moiety         'C20 H14 N4 O2 S2'
_chemical_formula_sum            'C20 H14 N4 O2 S2'
_chemical_formula_weight         406.47
_chemical_name_common            phthalonitrile
_space_group_crystal_system      triclinic
_space_group_IT_number           1
_space_group_name_Hall           'P 1'
_space_group_name_H-M_alt        'P 1'
_symmetry_space_group_name_Hall  'P 1'
_symmetry_space_group_name_H-M   'P 1'
_atom_sites_solution_hydrogens   geom
_cell_angle_alpha                73.857(3)
_cell_angle_beta                 79.443(4)
_cell_angle_gamma                83.488(3)
_cell_formula_units_Z            1
_cell_length_a                   5.3047(3)
_cell_length_b                   9.4281(5)
_cell_length_c                   10.3733(6)
_cell_measurement_reflns_used    42
_cell_measurement_temperature    299.(2)
_cell_measurement_theta_max      21.7092
_cell_measurement_theta_min      5.0672
_cell_volume                     488.84(5)
_computing_cell_refinement       'APEX2 v2014.11-0 (Bruker AXS)'
_computing_data_collection
'Bruker Instrument Service v2013.12.0.0 (Bruker AXS)'
_computing_data_reduction        'SAINT V8.34A (Bruker AXS)'
_computing_molecular_graphics    'MERCURY (Macrae et al., 2006)'
_computing_publication_material
'PLATON V1.16 (Spek, 2009), SHELXTL V6.14 (Bruker AXS)'
_computing_structure_refinement  'SHELXTL V6.14 (Bruker AXS)'
_computing_structure_solution    'SHELXTL V6.14 (Bruker AXS)'
_diffrn_ambient_temperature      299.(2)
_diffrn_detector_area_resol_mean 8.3333
_diffrn_measured_fraction_theta_full 0.996
_diffrn_measured_fraction_theta_max 0.996
_diffrn_measurement_device_type
'Bruker APEX II QUAZAR three-circle diffractometer'
_diffrn_measurement_method       '\f and \w scans'
_diffrn_radiation_monochromator  'multilayer QUAZAR mirrors'
_diffrn_radiation_type           MoK\a
_diffrn_radiation_wavelength     0.71073
_diffrn_reflns_av_R_equivalents  0.0213
_diffrn_reflns_av_unetI/netI     0.0309
_diffrn_reflns_limit_h_max       6
_diffrn_reflns_limit_h_min       -6
_diffrn_reflns_limit_k_max       11
_diffrn_reflns_limit_k_min       -11
_diffrn_reflns_limit_l_max       12
_diffrn_reflns_limit_l_min       -12
_diffrn_reflns_number            7730
_diffrn_reflns_theta_full        26.37
_diffrn_reflns_theta_max         26.37
_diffrn_reflns_theta_min         3.44
_diffrn_source                   'microfocus sealed tube'
_diffrn_source_type              ImuS
_exptl_absorpt_coefficient_mu    0.296
_exptl_absorpt_correction_T_max  0.97
_exptl_absorpt_correction_T_min  0.88
_exptl_absorpt_correction_type   multi-scan
_exptl_absorpt_process_details   'SADABS V2014/5 (Bruker AXS)'
_exptl_crystal_colour            colourless
_exptl_crystal_density_diffrn    1.381
_exptl_crystal_density_method    'not measured'
_exptl_crystal_description       Block
_exptl_crystal_F_000             210
_exptl_crystal_size_max          0.359
_exptl_crystal_size_mid          0.159
_exptl_crystal_size_min          0.116
_refine_diff_density_max         0.265
_refine_diff_density_min         -0.143
_refine_ls_abs_structure_details
;
Flack x determined using 1405 quotients [(I+)-(I-)]/[(I+)+(I-)]
(Parsons, Flack and Wagner, Acta Cryst. B69 (2013) 249-259).
;
_refine_ls_abs_structure_Flack   0.28(3)
_refine_ls_extinction_method     none
_refine_ls_goodness_of_fit_ref   1.031
_refine_ls_hydrogen_treatment    constr
_refine_ls_matrix_type           full
_refine_ls_number_parameters     253
_refine_ls_number_reflns         3697
_refine_ls_number_restraints     3
_refine_ls_restrained_S_all      1.030
_refine_ls_R_factor_all          0.0403
_refine_ls_R_factor_gt           0.0353
_refine_ls_shift/su_max          0.000
_refine_ls_shift/su_mean         0.000
_refine_ls_structure_factor_coef Fsqd
_refine_ls_weighting_details
'w=1/[\s^2^(Fo^2^)+(0.0522P)^2^+0.0507P] where P=(Fo^2^+2Fc^2^)/3'
_refine_ls_weighting_scheme      calc
_refine_ls_wR_factor_gt          0.0874
_refine_ls_wR_factor_ref         0.0906
_reflns_number_gt                3371
_reflns_number_total             3697
_reflns_threshold_expression     'I > 2\s(I)'
_cod_data_source_file            CCDC-1061336.cif
_cod_data_source_block           I
_cod_database_code               1544035
_shelx_res_file
;
15gtu89_SA_203_0m_a.res created by SHELXL-2014/7


TITL 15gtu89_SA_203_0m_a.res in P1
CELL  0.71073   5.3047   9.4281  10.3733   73.857   79.443   83.488
ZERR    1.000   0.0003   0.0005   0.0006    0.003    0.004    0.003
LATT -1
SFAC C  H  N  O  S
UNIT 20  14  4  2  2
L.S. 10
ACTA
BOND $H
HTAB

EQIV $1 x-1, y+1, z
HTAB C5 O2_$1
EQIV $2 x+1, y+1, z-1
HTAB C7 N3_$2
HTAB C9 S2
EQIV $3 x+1, y-1, z
HTAB C17 O1_$3
EQIV $4 x-1, y-1, z+1
HTAB C19 N1_$4

CONF
SHEL 7 0.80
FMAP 2
PLAN 20
SIZE 0.116 0.159 0.359
TEMP 26.450
WGHT    0.052200    0.050700
FVAR       0.86479
C1    1    0.745092    1.163580   -0.033263    11.00000    0.04904    0.04094 =
         0.04967   -0.00646    0.00047   -0.00445
C2    1    0.325989    1.381077   -0.029060    11.00000    0.04617    0.05186 =
         0.04417   -0.00520   -0.01023   -0.00223
C3    1    0.333533    1.250219    0.081444    11.00000    0.04048    0.03954 =
         0.03738   -0.00510   -0.00978   -0.00298
C4    1    0.136430    1.227565    0.191847    11.00000    0.03939    0.04409 =
         0.04309   -0.00802   -0.00500    0.00713
AFIX  43
H4    2   -0.002272    1.297185    0.193730    11.00000   -1.20000
AFIX   0
C5    1    0.144869    1.103301    0.298077    11.00000    0.04044    0.04558 =
         0.03898   -0.01059    0.00062    0.00166
AFIX  43
H5    2    0.010629    1.089154    0.370979    11.00000   -1.20000
AFIX   0
C6    1    0.349958    0.998496    0.298631    11.00000    0.03948    0.03203 =
         0.03842   -0.00699   -0.00262   -0.00322
C7    1    0.549734    1.018795    0.189593    11.00000    0.03663    0.03799 =
         0.04388   -0.00933   -0.00250    0.00131
AFIX  43
H7    2    0.688889    0.949310    0.189094    11.00000   -1.20000
AFIX   0
C8    1    0.539738    1.144214    0.080972    11.00000    0.03530    0.03801 =
         0.03932   -0.00772   -0.00146   -0.00956
C9    1    0.543544    0.765699    0.411016    11.00000    0.03668    0.03582 =
         0.05748   -0.00237   -0.00004    0.00337
AFIX  23
H9A   2    0.707636    0.805230    0.404917    11.00000   -1.20000
H9B   2    0.551385    0.724598    0.334299    11.00000   -1.20000
AFIX   0
C10   1    0.487806    0.648055    0.541538    11.00000    0.04202    0.04328 =
         0.05683   -0.00212   -0.01114   -0.00100
AFIX  23
H10A  2    0.473290    0.693446    0.616036    11.00000   -1.20000
H10B  2    0.634419    0.576373    0.548207    11.00000   -1.20000
AFIX   0
C11   1    0.497999    0.317602    0.435231    11.00000    0.04960    0.03603 =
         0.03993   -0.00534   -0.00125    0.00361
AFIX  23
H11A  2    0.533814    0.271592    0.360425    11.00000   -1.20000
H11B  2    0.654649    0.358537    0.440086    11.00000   -1.20000
AFIX   0
C12   1    0.423606    0.201468    0.565068    11.00000    0.04761    0.03848 =
         0.03998   -0.00268    0.00019    0.00898
AFIX  23
H12A  2    0.400055    0.243104    0.642424    11.00000   -1.20000
H12B  2    0.264933    0.160305    0.563686    11.00000   -1.20000
AFIX   0
C13   1    0.255661   -0.175134    1.028726    11.00000    0.03976    0.04184 =
         0.03928   -0.00484   -0.00367    0.00184
C14   1    0.692381   -0.382513    1.031543    11.00000    0.04267    0.04709 =
         0.04338   -0.00422   -0.00133    0.00508
C15   1    0.670131   -0.258271    0.915046    11.00000    0.04032    0.03534 =
         0.03651   -0.00402   -0.00398   -0.00291
C16   1    0.862609   -0.240211    0.801485    11.00000    0.04082    0.04318 =
         0.04292   -0.00881   -0.00320    0.01266
AFIX  43
H16   2    1.005161   -0.307450    0.801587    11.00000   -1.20000
AFIX   0
C17   1    0.841579   -0.123252    0.689661    11.00000    0.04199    0.04278 =
         0.03584   -0.00618    0.00465    0.00394
AFIX  43
H17   2    0.970082   -0.112010    0.614083    11.00000   -1.20000
AFIX   0
C18   1    0.631605   -0.021957    0.688060    11.00000    0.04363    0.03205 =
         0.03393   -0.00378   -0.00249   -0.00086
C19   1    0.435580   -0.038614    0.799326    11.00000    0.03616    0.03508 =
         0.03892   -0.00545   -0.00130    0.00120
AFIX  43
H19   2    0.292309    0.028178    0.798203    11.00000   -1.20000
AFIX   0
C20   1    0.458603   -0.157163    0.912072    11.00000    0.03707    0.03649 =
         0.03487   -0.00921   -0.00259   -0.00352
N1    3    0.903281    1.178005   -0.124059    11.00000    0.06379    0.07104 =
         0.06119   -0.00355    0.02112   -0.00744
N2    3    0.322532    1.485391   -0.116527    11.00000    0.07458    0.05901 =
         0.05585    0.00968   -0.01714   -0.00114
N3    3    0.097144   -0.188288    1.120373    11.00000    0.05602    0.06390 =
         0.05020   -0.00399    0.00778   -0.00200
N4    3    0.711299   -0.481078    1.122794    11.00000    0.06508    0.06439 =
         0.05121    0.01164    0.00208    0.01492
O1    4    0.340931    0.880980    0.409079    11.00000    0.04869    0.03695 =
         0.04356    0.00002    0.00600    0.00590
O2    4    0.631546    0.089868    0.572719    11.00000    0.05297    0.04038 =
         0.03931    0.00504    0.00773    0.01105
S1    5    0.201986    0.549163    0.565296    11.00000    0.04130    0.04299 =
         0.05114   -0.01135    0.00497   -0.00140
S2    5    0.251249    0.467132    0.400416    11.00000    0.05182    0.04339 =
         0.04464   -0.00418   -0.01380    0.00624
HKLF 4

REM  15gtu89_SA_203_0m_a.res in P1
REM R1 =  0.0353 for    3371 Fo > 4sig(Fo)  and  0.0403 for all    3697 data
REM    253 parameters refined using      3 restraints

END

WGHT      0.0520      0.0500

REM Instructions for potential hydrogen bonds
HTAB C5 O2_$1
HTAB C7 N3_$2
HTAB C9 S2
HTAB C17 O1_$3
HTAB C19 N1_$4

REM Highest difference peak  0.265,  deepest hole -0.143,  1-sigma level  0.038
Q1    1   0.2158  0.4747  0.4959  11.00000  0.05    0.26
Q2    1   0.2272  0.5532  0.4586  11.00000  0.05    0.26
Q3    1   0.5227  1.0784  0.1312  11.00000  0.05    0.19
Q4    1   0.2384  1.2308  0.1251  11.00000  0.05    0.19
Q5    1   0.3378  0.6180  0.5284  11.00000  0.05    0.18
Q6    1   0.1826  0.5638  0.6641  11.00000  0.05    0.17
Q7    1   0.3896  1.3844 -0.1074  11.00000  0.05    0.17
Q8    1   0.4004  0.9913  0.2218  11.00000  0.05    0.16
Q9    1   0.1810  0.4539  0.6170  11.00000  0.05    0.16
Q10   1   0.5247 -0.0390  0.7366  11.00000  0.05    0.16
Q11   1   0.4894  1.0268  0.2610  11.00000  0.05    0.16
Q12   1   0.4238  1.1931  0.0758  11.00000  0.05    0.15
Q13   1   0.1352 -0.1385  1.0554  11.00000  0.05    0.15
Q14   1   0.6074  1.1424  0.0443  11.00000  0.05    0.15
Q15   1   0.7844 -0.2463  0.8645  11.00000  0.05    0.15
Q16   1   0.4234 -0.1628  0.9446  11.00000  0.05    0.14
Q17   1   0.4432 -0.1037  0.8594  11.00000  0.05    0.14
Q18   1   0.1750  0.4586  0.3190  11.00000  0.05    0.13
Q19   1   0.6461  0.0530  0.6333  11.00000  0.05    0.13
Q20   1   0.5204 -0.2319  0.9078  11.00000  0.05    0.13
;
_shelx_res_checksum              72855
_shelx_hkl_file
;
  -1   0   0 1985.40   49.40
  -1   0   0 2010.10   50.69
  -1   0   0 1957.20   49.50
  -1   0   0 1996.30   49.50
   1   0   0 1992.80   49.70
   1   0   0 1997.40   49.70
   1   0   0 1996.70   49.50
   1   0   0 1936.41   50.39
   1   0   0 1966.60   49.60
  -2   0   0  283.97    7.50
  -2   0   0  287.27    7.50
  -2   0   0  266.67    7.40
  -2   0   0  288.47    8.30
   2   0   0  289.97    7.50
   2   0   0  269.17    7.40
   2   0   0  285.77    7.40
   2   0   0  269.87    7.40
   2   0   0  285.67    8.30
  -3   0   0   78.79    2.80
  -3   0   0   71.09    3.60
  -3   0   0   79.89    2.80
  -3   0   0   86.69    2.90
   3   0   0   78.89    2.80
   3   0   0   93.69    2.90
   3   0   0   77.99    3.80
   3   0   0   92.99    3.10
   3   0   0   94.69    3.00
  -4   0   0   13.30    1.30
  -4   0   0   12.90    1.30
   4   0   0   12.60    1.20
   4   0   0    9.10    1.10
   4   0   0   14.70    1.30
   4   0   0   17.10    1.40
   4   0   0   17.40    1.50
   4   0   0    7.90    1.70
  -5   0   0    8.40    1.40
   5   0   0    7.00    1.40
   5   0   0    6.60    1.10
   5   0   0    7.00    1.50
  -6   0   0    5.50    1.50
   6   0   0    7.00    1.70
   6   0   0    6.80    1.40
   6  -1   0    1.80    1.20
   6  -1   0    5.70    1.50
  -6   1   0    4.90    1.60
   5  -1   0   27.60    2.10
   5  -1   0   24.70    2.20
  -5   1   0   26.40    2.00
  -5   1   0   28.00    2.00
   4  -1   0  112.99    4.20
   4  -1   0  114.79    5.20
   4  -1   0  110.59    3.80
   4  -1   0  114.59    3.80
  -4   1   0  117.59    4.00
  -4   1   0  116.19    4.00
   3  -1   0   24.00    1.20
   3  -1   0   25.40    2.00
   3  -1   0   23.10    1.20
   3  -1   0   20.50    1.50
   3  -1   0   22.90    1.30
   3  -1   0   26.10    1.20
  -3   1   0   24.20    1.30
  -3   1   0   23.60    1.90
  -3   1   0   23.50    1.40
   2  -1   0  379.16    9.90
   2  -1   0  373.66   10.70
   2  -1   0  388.96   10.20
   2  -1   0  398.96    9.90
   2  -1   0  371.46    9.80
  -2   1   0  384.36   10.80
  -2   1   0  386.76    9.90
  -2   1   0  391.86   10.00
  -2   1   0  381.46   10.00
   1  -1   0  352.86    8.80
   1  -1   0  348.37    8.80
   1  -1   0  345.17    9.30
   1  -1   0  337.17    9.10
  -1   1   0  360.06    9.40
  -1   1   0  360.56    8.90
  -1   1   0  362.26    8.80
   0  -1   0   74.59    2.00
   0  -1   0   73.89    2.00
   0  -1   0   70.69    1.90
   0   1   0   73.99    2.00
   0   1   0   72.39    1.90
   0   1   0   75.99    2.00
  -1  -1   0  702.53   17.30
  -1  -1   0  660.93   16.80
   1   1   0  654.53   16.80
   1   1   0  693.13   17.30
   1   1   0  668.53   17.10
   1   1   0  679.63   16.80
  -2  -1   0  563.34   14.60
  -2  -1   0  589.54   15.50
  -2  -1   0  593.64   14.50
  -2  -1   0  587.64   14.60
   2   1   0  608.14   14.90
   2   1   0  574.84   14.60
   2   1   0  506.05   14.60
   2   1   0  557.14   15.40
   2   1   0  575.04   14.60
   2   1   0  578.34   14.60
  -3  -1   0   75.49    2.70
  -3  -1   0   77.49    3.60
  -3  -1   0   73.39    2.70
  -3  -1   0   74.99    2.50
   3   1   0   77.59    3.00
   3   1   0   74.29    2.70
   3   1   0   74.39    2.70
   3   1   0   77.19    3.70
   3   1   0   76.69    2.60
  -4  -1   0  134.49    4.50
  -4  -1   0  133.69    4.40
   4   1   0  139.19    4.50
   4   1   0  141.99    4.40
   4   1   0  134.19    4.50
   4   1   0  140.49    4.80
   4   1   0  131.99    5.80
  -5  -1   0   18.00    1.90
   5   1   0   21.20    2.00
   5   1   0   17.20    1.80
   5   1   0   18.70    1.80
  -6  -1   0   10.60    1.70
   6   1   0   12.10    1.80
   6   1   0   13.20    1.90
   6  -2   0    0.80    1.10
   6  -2   0    0.20    1.10
  -6   2   0    1.70    1.20
   5  -2   0    4.60    1.20
   5  -2   0    3.50    1.10
  -5   2   0    4.60    1.10
  -5   2   0    2.80    1.00
   4  -2   0   10.80    1.40
   4  -2   0   11.70    1.80
   4  -2   0   13.40    1.20
  -4   2   0   14.00    1.40
  -4   2   0   12.60    1.30
   3  -2   0   35.90    2.30
   3  -2   0   37.40    1.90
   3  -2   0   36.60    1.40
   3  -2   0   36.80    1.60
  -3   2   0   37.40    2.50
  -3   2   0   35.90    1.60
  -3   2   0   35.80    1.70
   2  -2   0   18.90    0.90
   2  -2   0   19.10    0.80
   2  -2   0   17.90    1.50
   2  -2   0   19.50    0.80
   2  -2   0   16.80    1.20
  -2   2   0   21.50    1.60
  -2   2   0   19.70    0.90
  -2   2   0   20.50    1.10
   1  -2   0  724.73   17.90
   1  -2   0  723.53   17.50
   1  -2   0  698.53   18.10
  -1   2   0  683.03   17.60
  -1   2   0  707.43   18.20
   0  -2   0   66.29    1.90
   0  -2   0   62.69    1.80
   0  -2   0   61.59    1.90
   0   2   0   64.99    1.80
   0   2   0   67.19    1.90
   0   2   0   64.69    2.00
  -1  -2   0  464.05   11.80
   1   2   0  443.56   11.20
   1   2   0  436.36   11.80
  -2  -2   0 1346.47   32.80
  -2  -2   0 1369.76   33.80
   2   2   0 1309.97   32.80
   2   2   0 1367.66   32.80
   2   2   0 1294.77   33.80
   2   2   0 1240.58   32.80
   2   2   0 1298.27   33.30
  -3  -2   0  206.08    5.70
  -3  -2   0  197.18    5.70
  -3  -2   0  198.88    6.80
   3   2   0  202.98    5.70
   3   2   0  190.58    5.80
   3   2   0  198.98    6.90
   3   2   0  209.18    6.30
   3   2   0  196.28    5.70
   3   2   0  199.88    5.80
  -4  -2   0   91.39    3.40
   4   2   0   93.69    3.40
   4   2   0   95.59    3.90
   4   2   0   93.79    4.70
   4   2   0   92.59    3.50
  -5  -2   0   73.89    3.20
   5   2   0   68.69    3.10
   5   2   0   67.79    3.10
   5   2   0   74.59    3.60
   5   2   0   66.59    3.20
  -6  -2   0    9.70    1.70
   6   2   0   11.90    1.90
   6  -3   0    6.90    1.60
   6  -3   0    5.80    1.20
   5  -3   0    1.00    0.80
   5  -3   0    0.60    1.00
  -5   3   0    0.50    0.80
   4  -3   0    6.00    1.10
   4  -3   0    5.40    0.80
  -4   3   0    6.30    1.00
  -4   3   0    4.50    1.00
   3  -3   0   15.30    1.30
   3  -3   0   12.50    0.70
   3  -3   0   13.60    0.70
   3  -3   0   14.20    0.80
   3  -3   0   13.20    1.60
  -3   3   0   14.00    1.00
  -3   3   0   15.70    1.20
  -3   3   0   11.30    1.60
   2  -3   0  574.34   15.20
   2  -3   0  583.74   15.70
   2  -3   0  586.84   14.50
  -2   3   0  577.34   15.90
  -2   3   0  585.04   14.90
   1  -3   0  648.54   16.30
   1  -3   0  636.94   16.80
   1  -3   0  647.94   16.60
  -1   3   0  654.33   16.90
  -1   3   0  654.43   16.10
  -1   3   0  656.43   16.20
   0  -3   0  947.41   23.20
   0  -3   0  913.91   23.20
   0  -3   0  911.01   23.10
   0   3   0  939.91   23.40
  -1  -3   0  251.87    6.90
  -1  -3   0  247.38    6.50
   1   3   0  243.38    6.30
   1   3   0  248.38    7.00
   1   3   0  242.88    6.30
  -2  -3   0   93.79    2.60
  -2  -3   0   99.49    2.60
  -2  -3   0   95.09    3.60
   2   3   0   91.39    3.70
   2   3   0   97.29    2.90
   2   3   0   95.39    3.50
  -3  -3   0  146.89    4.40
  -3  -3   0  156.38    5.70
  -3  -3   0  156.18    4.50
   3   3   0  148.69    4.60
   3   3   0  157.78    4.60
   3   3   0  156.78    5.90
   3   3   0  157.68    5.30
   3   3   0  152.28    4.60
   3   3   0  155.68    4.60
  -4  -3   0   73.29    2.90
   4   3   0   76.79    2.90
   4   3   0   75.79    3.00
   4   3   0   73.39    3.60
   4   3   0   67.69    4.80
   4   3   0   75.99    3.10
  -5  -3   0   14.70    1.60
   5   3   0   21.00    2.30
   5   3   0   16.80    1.60
   5   3   0   14.40    1.70
  -6  -3   0   17.50    1.90
   6   3   0   16.10    2.00
   6   3   0   17.90    2.30
   6  -4   0   -0.20    1.30
  -6   4   0   -1.50    1.00
   5  -4   0    0.70    0.50
   5  -4   0    0.50    1.10
  -5   4   0   -0.50    0.80
   4  -4   0    0.90    0.70
  -4   4   0    1.60    0.70
   3  -4   0    1.90    0.80
   3  -4   0    1.00    0.70
  -3   4   0    1.80    0.60
  -3   4   0    4.10    1.20
   2  -4   0   36.10    1.80
   2  -4   0   37.50    2.10
  -2   4   0   39.10    2.20
  -2   4   0   37.40    1.50
  -2   4   0   40.00    1.40
   1  -4   0   23.50    1.40
   1  -4   0   25.60    1.40
   1  -4   0   23.30    1.00
  -1   4   0   24.10    0.80
  -1   4   0   23.90    0.80
  -1   4   0   24.80    1.50
   0  -4   0   99.39    3.10
   0  -4   0  101.69    3.20
   0  -4   0  107.39    3.10
   0   4   0  107.69    3.40
  -1  -4   0  119.89    3.50
   1   4   0  120.69    3.10
   1   4   0  117.69    3.20
   1   4   0  118.59    4.00
  -2  -4   0  299.57    8.50
   2   4   0  278.07    7.50
   2   4   0  278.27    8.40
   2   4   0  276.17    8.60
  -3  -4   0   86.19    2.40
  -3  -4   0   84.49    3.90
  -3  -4   0   88.59    2.40
   3   4   0   84.29    2.90
   3   4   0   80.69    2.90
   3   4   0   88.39    3.70
   3   4   0   88.19    2.90
   3   4   0   85.69    4.10
  -4  -4   0    2.80    0.70
   4   4   0    3.30    1.00
   4   4   0    5.30    1.30
   4   4   0    4.20    0.90
  -5  -4   0    9.30    1.30
   5   4   0    7.80    1.20
   5   4   0    6.10    1.70
  -6  -4   0   12.20    1.70
   6   4   0    9.50    2.10
   5  -5   0    5.20    1.50
  -5   5   0    3.10    1.10
   4  -5   0    7.40    1.40
  -4   5   0    8.50    1.30
   3  -5   0    1.30    0.70
   3  -5   0    0.70    0.90
  -3   5   0    0.70    0.60
   2  -5   0    1.30    0.60
   2  -5   0    0.90    0.40
   2  -5   0    0.60    0.70
  -2   5   0    0.70    0.80
  -2   5   0    0.40    0.30
  -2   5   0    1.20    0.40
   1  -5   0   95.79    3.00
   1  -5   0   97.39    3.60
   1  -5   0   98.09    3.30
  -1   5   0  100.09    3.70
  -1   5   0   98.69    2.60
  -1   5   0   97.29    2.60
   0  -5   0    3.00    0.60
   0  -5   0    2.80    0.70
   0  -5   0    1.90    0.50
   0   5   0    3.20    0.70
  -1  -5   0  117.89    3.70
   1   5   0  122.59    4.20
   1   5   0  120.19    3.20
   1   5   0  118.39    3.10
  -2  -5   0   92.49    3.10
  -2  -5   0   93.19    3.70
   2   5   0   87.19    3.70
   2   5   0   90.79    2.80
   2   5   0   92.09    2.80
   2   5   0   92.99    4.00
   3   5   0   34.70    2.50
   3   5   0   35.40    2.70
   3   5   0   38.40    1.80
   4   5   0   34.20    2.80
   4   5   0   33.80    2.00
   4   5   0   33.30    1.90
  -5  -5   0   16.30    1.10
   5   5   0   17.50    1.70
   5   5   0   18.90    2.40
  -6  -5   0    2.90    0.90
   6   5   0    3.20    1.40
   6   5   0    4.80    1.60
   5  -6   0   15.10    2.10
  -5   6   0   13.90    1.80
   4  -6   0   20.20    2.10
  -4   6   0   21.70    1.80
   3  -6   0    9.50    1.40
  -3   6   0    8.40    1.00
   2  -6   0    6.40    0.70
   2  -6   0    6.20    1.20
   2  -6   0    4.90    1.00
  -2   6   0    5.50    0.70
  -2   6   0    5.90    1.20
   1  -6   0    8.50    0.80
   1  -6   0    9.50    1.20
   1  -6   0    6.60    0.90
  -1   6   0    7.60    0.40
  -1   6   0    8.20    1.20
  -1   6   0    7.00    0.50
   0  -6   0   31.40    1.60
   0  -6   0   31.90    1.50
   0  -6   0   31.10    1.70
   0   6   0   32.60    1.90
  -1  -6   0   72.49    2.70
   1   6   0   73.59    2.00
   1   6   0   70.89    2.00
   1   6   0   74.09    3.20
  -2  -6   0   65.69    2.60
   2   6   0   65.29    3.20
   2   6   0   65.49    3.40
   2   6   0   62.49    2.20
   2   6   0   60.39    2.10
  -3  -6   0    7.40    1.10
   3   6   0    6.80    0.90
   3   6   0    7.20    1.40
   3   6   0    3.10    1.30
   4   6   0   33.40    1.90
   4   6   0   35.60    3.10
   5   6   0    5.90    1.20
   5   6   0    8.90    2.20
   6   6   0   19.50    2.10
   6   6   0   17.50    2.80
   5  -7   0    8.20    1.80
  -5   7   0   10.20    1.70
   4  -7   0   15.00    2.00
  -4   7   0   16.90    1.70
   3  -7   0   24.00    2.10
  -3   7   0   21.80    1.50
   2  -7   0   40.00    1.80
   2  -7   0   41.70    2.40
   2  -7   0   40.50    2.60
  -2   7   0   37.30    1.60
   1  -7   0   28.60    1.60
   1  -7   0   29.40    1.80
  -1   7   0   30.00    1.00
  -1   7   0   28.40    0.90
  -1   7   0   27.60    2.10
   0  -7   0    3.90    0.70
   0  -7   0    4.70    0.80
   0  -7   0    3.70    0.90
   0   7   0    3.40    0.90
  -1  -7   0   17.40    1.50
   1   7   0   17.90    0.70
   1   7   0   17.60    1.70
   1   7   0   16.70    0.70
   1   7   0   18.20    1.60
  -2  -7   0   14.40    1.40
   2   7   0   13.60    1.80
   2   7   0   12.40    0.90
   2   7   0   12.80    1.70
  -3  -7   0    3.50    1.10
   3   7   0    3.80    1.20
   3   7   0    3.10    0.70
  -4  -7   0    9.30    1.50
   4   7   0    7.40    1.80
   4   7   0    6.00    1.10
   5   7   0    9.60    1.40
   5   7   0    9.10    2.40
   4  -8   0    9.80    1.80
  -4   8   0    9.10    1.30
   3  -8   0   23.20    2.20
  -3   8   0   21.40    1.60
   2  -8   0   20.80    1.90
  -2   8   0   20.40    1.20
   1  -8   0   70.89    3.10
   1  -8   0   73.39    2.80
  -1   8   0   70.99    2.00
  -1   8   0   65.19    2.00
   0  -8   0   26.00    2.00
   0  -8   0   26.50    1.80
   0  -8   0   27.00    1.70
  -1  -8   0    1.40    1.00
   1   8   0    2.50    0.30
   1   8   0    2.40    1.00
   1   8   0    2.00    0.30
   1   8   0    4.30    1.20
  -2  -8   0    1.00    0.80
   2   8   0    0.50    1.10
   2   8   0    0.60    0.40
  -3  -8   0   22.50    2.00
   3   8   0   26.40    2.80
   3   8   0   24.70    1.50
  -4  -8   0   46.70    2.90
   4   8   0   47.00    4.10
   4   8   0   45.60    2.40
  -5  -8   0    5.70    1.70
   5   8   0    6.10    1.30
   5   8   0    2.10    1.80
   4  -9   0   12.00    2.00
  -4   9   0    4.90    1.20
   3  -9   0   51.59    3.20
  -3   9   0   49.60    2.40
   2  -9   0   16.40    1.80
  -2   9   0   18.30    1.20
   1  -9   0   37.90    2.40
   1  -9   0   39.40    2.10
  -1   9   0   33.80    1.30
   0  -9   0   35.40    2.50
  -1  -9   0   58.09    2.80
   1   9   0   61.29    3.60
   1   9   0   50.79    1.60
   1   9   0   50.09    1.60
  -2  -9   0    2.20    1.00
   2   9   0    0.60    0.50
   2   9   0    1.60    1.40
  -3  -9   0    4.60    1.30
   3   9   0    4.70    0.90
   3   9   0    3.50    0.80
   3   9   0    5.60    1.70
  -4  -9   0   17.90    2.20
   4   9   0   19.40    1.80
   4   9   0   20.40    3.10
   3 -10   0   32.70    2.90
  -3  10   0   34.70    2.00
   2 -10   0   24.00    2.30
  -2  10   0   23.00    1.40
   1 -10   0    2.70    1.10
  -1  10   0    5.90    0.60
   0 -10   0   21.60    2.30
   0  10   0   24.90    2.50
  -1 -10   0    4.60    1.30
   1  10   0    4.00    0.50
   1  10   0    8.20    1.80
  -2 -10   0    5.30    1.90
   2  10   0    4.60    1.80
   2  10   0    3.00    0.70
   3  10   0    1.10    0.70
   3  10   0    1.60    1.50
   2 -11   0   14.60    1.90
  -2  11   0   12.90    1.10
   1 -11   0   17.30    1.90
  -1  11   0   20.50    1.00
   1  11   0   10.20    2.10
   2  11   0   11.40    2.50
   2  11   0   11.80    1.10
   2  11  -1    0.50    1.50
   2  11  -1    1.60    0.60
   1  11  -1    8.20    0.70
   1  11  -1    6.30    2.00
   0  11  -1    9.60    2.00
   0 -11   1    6.10    1.70
  -1  11  -1    6.00    0.60
   3  10  -1    0.00    0.70
   3  10  -1    1.50    1.50
  -3 -10   1   -1.40    1.30
   2  10  -1    8.60    2.10
   2  10  -1    5.00    0.80
  -2 -10   1    7.80    1.50
   1  10  -1    3.50    0.50
   1  10  -1    4.00    1.70
  -1 -10   1    3.90    1.30
   0 -10   1    6.20    1.50
  -1  10  -1    6.90    0.60
  -2  10  -1   16.50    1.30
   2 -10   1   17.40    2.00
  -3  10  -1   36.20    2.20
   3 -10   1   37.60    3.00
   4   9  -1    6.00    2.50
   4   9  -1    5.70    1.20
  -4  -9   1    5.40    1.60
   3   9  -1    4.50    0.90
   3   9  -1    5.00    1.80
  -3  -9   1    4.90    1.40
   2   9  -1    2.60    0.60
   2   9  -1    5.10    1.60
  -2  -9   1    2.30    1.20
   1   9  -1   17.90    0.80
  -1  -9   1   18.40    1.90
   0  -9   1   18.40    1.70
   0  -9   1   19.50    2.10
  -1   9  -1    1.40    0.40
   1  -9   1    2.90    0.90
   1  -9   1    1.00    0.90
  -2   9  -1   13.00    1.10
   2  -9   1   11.50    1.70
  -3   9  -1    1.00    0.70
   3  -9   1    2.50    1.30
   5   8  -1    3.10    1.20
   5   8  -1    0.30    1.60
  -5  -8   1   -1.70    1.20
   4   8  -1    7.30    2.20
   4   8  -1    5.00    1.10
  -4  -8   1    5.10    1.50
   3   8  -1   10.80    2.20
   3   8  -1    8.80    1.00
  -3  -8   1   10.50    1.60
   2   8  -1    0.40    0.50
   2   8  -1    1.20    1.10
  -2  -8   1    0.30    0.90
   1   8  -1    3.00    0.40
   1   8  -1    3.80    0.40
   1   8  -1    2.80    0.90
  -1  -8   1    4.10    1.10
   0   8  -1   15.80    1.60
   0  -8   1   19.20    1.90
   0  -8   1   15.90    1.60
   1  -8   1  143.99    4.80
   1  -8   1  143.19    5.40
   1  -8   1  147.19    5.00
  -2   8  -1   13.80    1.00
   2  -8   1   14.90    1.30
   2  -8   1   13.80    1.60
  -3   8  -1   -0.80    0.60
   3  -8   1   -0.90    0.90
  -4   8  -1    5.40    1.20
   4  -8   1    5.70    1.50
   5   7  -1    9.00    1.60
   5   7  -1    9.80    2.20
  -5  -7   1    7.40    1.50
   4   7  -1   79.99    3.30
   4   7  -1   85.49    4.80
  -4  -7   1   87.09    3.90
   3   7  -1   24.20    2.70
   3   7  -1   21.50    1.50
  -3  -7   1   22.60    2.00
   2   7  -1    9.80    1.60
   2   7  -1   10.30    0.80
   2   7  -1   10.40    0.90
  -2  -7   1   10.30    1.30
   1   7  -1   34.40    1.20
   1   7  -1   33.10    2.10
   1   7  -1   30.10    2.20
   1   7  -1   33.80    1.20
  -1  -7   1   32.20    2.00
   0   7  -1   10.00    1.30
   0   7  -1   14.10    1.50
   0  -7   1   13.00    1.30
   0  -7   1   13.40    1.50
  -1   7  -1  333.57    8.50
  -1   7  -1  313.87    8.50
  -1   7  -1  329.87    8.60
  -1   7  -1  353.56   10.20
   1  -7   1  336.37    9.90
   1  -7   1  348.17    9.30
   1  -7   1  332.37    9.50
  -2   7  -1  174.78    5.00
   2  -7   1  166.98    6.00
   2  -7   1  178.38    5.30
   2  -7   1  184.68    5.90
  -3   7  -1    0.50    0.50
   3  -7   1   -0.10    0.90
  -4   7  -1    2.90    1.00
   4  -7   1    3.90    1.30
  -5   7  -1    3.00    1.20
   5  -7   1    2.00    1.20
   5   6  -1   15.80    1.70
   5   6  -1   15.20    2.50
   4   6  -1    9.40    1.80
   4   6  -1    7.00    1.10
   3   6  -1    8.30    0.90
   3   6  -1    7.20    1.60
   3   6  -1    7.80    1.40
  -3  -6   1    8.40    1.30
   2   6  -1   30.40    2.30
   2   6  -1   28.30    1.30
  -2  -6   1   29.60    1.80
   1   6  -1   37.60    1.20
   1   6  -1   31.80    2.00
   1   6  -1   36.50    1.20
  -1  -6   1   38.40    2.00
  -1  -6   1   37.70    1.90
   0   6  -1   14.50    1.40
   0  -6   1   13.50    1.30
   0  -6   1   15.00    1.20
  -1   6  -1   28.60    0.90
  -1   6  -1   29.40    1.90
  -1   6  -1   28.30    1.00
  -1   6  -1   26.60    1.00
   1  -6   1   27.00    1.60
   1  -6   1   28.10    1.50
   1  -6   1   26.70    1.80
  -2   6  -1   10.50    1.50
  -2   6  -1   10.20    0.90
   2  -6   1    9.50    1.20
   2  -6   1    9.50    1.30
   2  -6   1    9.80    1.00
  -3   6  -1    1.90    0.70
   3  -6   1    2.80    1.00
   3  -6   1    2.60    0.70
   3  -6   1    1.90    1.00
  -4   6  -1    2.50    0.90
   4  -6   1   -0.70    1.00
  -5   6  -1    0.80    1.10
   5  -6   1    0.20    1.10
   6   5  -1    0.30    1.10
   6   5  -1    0.60    1.60
   5   5  -1   17.50    1.80
   5   5  -1   14.90    2.40
   4   5  -1   17.70    2.30
   4   5  -1   20.10    1.70
   4   5  -1   18.40    1.50
   3   5  -1   69.49    2.50
   3   5  -1   73.29    3.90
   3   5  -1   71.79    3.50
   3   5  -1   73.39    2.60
   2   5  -1  117.49    4.70
   2   5  -1  117.49    3.50
   2   5  -1  114.69    3.50
   2   5  -1  114.19    3.40
  -2  -5   1  119.99    4.30
  -2  -5   1  121.69    3.90
   1   5  -1  123.19    3.40
   1   5  -1  127.99    3.40
   1   5  -1  124.69    4.40
  -1  -5   1  126.39    4.00
  -1  -5   1  126.79    4.00
   0   5  -1  456.85   12.20
   0  -5   1  445.76   12.10
   0  -5   1  455.45   12.00
   0  -5   1  459.35   12.00
  -1   5  -1  167.88    5.30
  -1   5  -1  161.28    4.30
  -1   5  -1  158.78    4.20
  -1   5  -1  161.58    4.20
   1  -5   1  163.08    4.70
   1  -5   1  163.98    4.90
   1  -5   1  159.68    5.10
   1  -5   1  160.98    5.10
  -2   5  -1   42.20    1.60
  -2   5  -1   41.60    2.40
  -2   5  -1   41.00    1.60
   2  -5   1   41.40    2.20
   2  -5   1   39.50    1.70
   2  -5   1   40.20    2.10
  -3   5  -1    5.20    0.80
   3  -5   1    5.80    1.00
   3  -5   1    4.20    1.10
  -4   5  -1   18.50    1.70
   4  -5   1   17.90    1.90
  -5   5  -1    1.20    0.90
   5  -5   1    1.20    1.10
   6   4  -1   23.30    2.90
  -6  -4   1   22.20    2.00
   5   4  -1   41.90    2.40
   5   4  -1   41.90    3.30
  -5  -4   1   43.30    2.20
   4   4  -1   38.40    2.30
   4   4  -1   40.90    2.00
   4   4  -1   39.80    2.70
  -4  -4   1   40.70    1.80
   3   4  -1  106.89    3.50
   3   4  -1  110.69    3.50
   3   4  -1  110.69    4.80
   3   4  -1  109.79    4.40
  -3  -4   1  105.79    4.50
   2   4  -1  138.09    5.10
   2   4  -1  142.59    4.10
   2   4  -1  143.79    4.10
  -2  -4   1  146.19    4.90
   1   4  -1  117.89    3.20
   1   4  -1  117.99    4.00
   1   4  -1  117.39    3.20
  -1  -4   1  115.99    3.70
  -1  -4   1  118.09    3.60
   0   4  -1   74.19    2.60
   0  -4   1   73.79    2.60
   0  -4   1   76.99    2.50
   0  -4   1   73.09    2.50
  -1   4  -1   98.79    2.70
  -1   4  -1  100.39    2.70
  -1   4  -1   99.89    2.80
  -1   4  -1  105.59    3.60
   1  -4   1  105.49    3.40
   1  -4   1   99.59    3.50
   1  -4   1  104.99    3.30
   1  -4   1  101.29    3.10
  -2   4  -1   26.90    1.20
  -2   4  -1   26.60    1.20
  -2   4  -1   24.20    1.80
   2  -4   1   25.20    1.50
   2  -4   1   29.50    1.80
  -3   4  -1   69.29    2.60
  -3   4  -1   69.59    3.60
   3  -4   1   69.99    2.20
   3  -4   1   69.59    3.30
   3  -4   1   65.09    2.90
  -4   4  -1   36.70    2.10
   4  -4   1   42.60    2.50
  -5   4  -1    0.60    0.90
   5  -4   1    3.20    1.30
  -6   4  -1   -1.10    1.10
   6  -4   1   -0.80    1.10
   6   3  -1    7.20    1.60
  -6  -3   1    7.00    1.50
   5   3  -1   24.70    2.40
   5   3  -1   24.70    2.10
   5   3  -1   24.00    1.90
  -5  -3   1   26.50    1.90
   4   3  -1   18.20    1.40
   4   3  -1   17.80    1.60
   4   3  -1   21.30    2.00
   4   3  -1   18.90    1.50
  -4  -3   1   18.50    1.40
   3   3  -1   94.79    3.80
   3   3  -1   93.09    4.20
   3   3  -1   91.79    3.10
   3   3  -1   93.89    3.10
   3   3  -1   95.59    3.20
  -3  -3   1   95.19    3.00
  -3  -3   1   92.89    4.00
   2   3  -1  140.09    5.00
   2   3  -1  148.19    4.20
   2   3  -1  139.79    4.00
   2   3  -1  137.09    3.90
  -2  -3   1  142.19    3.60
  -2  -3   1  140.19    4.80
   1   3  -1  385.96    9.30
   1   3  -1  362.26   10.00
   1   3  -1  361.56    9.30
  -1  -3   1  364.06    9.60
  -1  -3   1  344.17    9.60
  -1  -3   1  383.36    9.90
   0   3  -1   28.10    1.20
   0  -3   1   26.00    1.10
   0  -3   1   27.20    1.20
   0  -3   1   26.20    1.20
  -1   3  -1  452.75   12.00
  -1   3  -1  451.85   11.30
  -1   3  -1  453.45   11.30
  -1   3  -1  450.35   11.30
   1  -3   1  453.05   11.50
   1  -3   1  437.46   11.90
   1  -3   1  445.76   11.70
   1  -3   1  457.15   11.80
  -2   3  -1   48.70    2.40
  -2   3  -1   49.80    1.80
   2  -3   1   46.60    2.00
   2  -3   1   48.40    1.70
   2  -3   1   52.49    2.40
  -3   3  -1   39.40    2.60
  -3   3  -1   41.00    1.80
  -3   3  -1   41.70    1.70
   3  -3   1   42.50    1.60
   3  -3   1   42.20    2.10
   3  -3   1   41.50    1.30
   3  -3   1   44.50    2.50
  -4   3  -1   11.30    1.20
   4  -3   1   11.50    1.80
   4  -3   1   12.80    1.50
   4  -3   1   11.30    1.00
  -5   3  -1   44.00    2.70
   5  -3   1   46.70    2.10
   5  -3   1   44.40    2.80
  -6   3  -1    4.50    1.30
   6  -3   1    6.20    1.20
   6  -3   1    7.10    1.60
   6   2  -1    2.30    1.40
  -6  -2   1    2.30    1.30
   5   2  -1   17.50    1.60
   5   2  -1   17.70    1.80
   5   2  -1   16.60    2.00
  -5  -2   1   15.70    1.60
   4   2  -1   23.30    2.50
   4   2  -1   24.40    1.60
   4   2  -1   24.10    1.70
   4   2  -1   24.80    1.70
   4   2  -1   23.70    2.00
  -4  -2   1   24.80    1.60
   3   2  -1  175.78    5.10
   3   2  -1  176.68    5.60
   3   2  -1  166.28    5.00
   3   2  -1  179.08    6.40
   3   2  -1  172.18    5.20
  -3  -2   1  168.98    5.00
  -3  -2   1  173.18    6.20
   2   2  -1  227.88    7.20
   2   2  -1  242.58    6.30
   2   2  -1  228.78    6.30
   2   2  -1  234.48    6.30
  -2  -2   1  237.18    7.20
  -2  -2   1  240.38    6.30
   1   2  -1  374.86   10.00
   1   2  -1  363.76    9.40
  -1  -2   1  364.86    9.70
  -1  -2   1  384.16    9.90
   0   2  -1  611.04   15.00
   0  -2   1  605.84   15.00
   0  -2   1  569.94   14.90
  -1   2  -1  783.52   19.20
  -1   2  -1  777.32   19.20
  -1   2  -1  786.32   19.70
  -1   2  -1  778.32   19.20
   1  -2   1  764.22   19.30
   1  -2   1  759.62   19.50
   1  -2   1  763.02   19.60
  -2   2  -1  623.34   15.50
  -2   2  -1  614.54   15.60
  -2   2  -1  611.04   15.50
  -2   2  -1  607.14   16.40
   2  -2   1  622.94   15.50
   2  -2   1  608.44   15.30
   2  -2   1  621.84   16.30
   2  -2   1  599.04   15.90
  -3   2  -1   95.79    3.10
  -3   2  -1   95.59    3.20
  -3   2  -1   92.59    4.10
   3  -2   1   90.49    3.40
   3  -2   1  100.69    4.10
   3  -2   1   97.29    3.00
   3  -2   1   96.49    3.00
  -4   2  -1   13.30    1.30
  -4   2  -1   13.40    1.30
   4  -2   1   12.30    1.20
   4  -2   1   12.10    1.80
   4  -2   1   13.40    1.10
   4  -2   1   14.60    1.40
  -5   2  -1   31.60    2.30
  -5   2  -1   31.80    2.20
   5  -2   1   34.90    2.40
   5  -2   1   34.40    2.00
  -6   2  -1    1.10    1.50
   6  -2   1    4.80    1.20
   6   1  -1   -0.10    0.90
   6   1  -1    1.30    1.20
  -6  -1   1    0.70    1.30
   5   1  -1   19.00    1.80
   5   1  -1   19.20    1.80
  -5  -1   1   15.10    1.70
   4   1  -1   51.29    2.50
   4   1  -1   52.39    2.40
   4   1  -1   53.49    2.30
   4   1  -1   53.89    3.60
   4   1  -1   56.49    2.70
  -4  -1   1   54.29    2.20
  -4  -1   1   54.39    2.40
   3   1  -1  324.77    8.80
   3   1  -1  323.07   10.10
   3   1  -1  318.67    8.90
   3   1  -1  321.97    8.90
   3   1  -1  327.37    9.20
  -3  -1   1  325.87   10.00
  -3  -1   1  327.17    8.70
  -3  -1   1  327.67    8.80
  -3  -1   1  332.57    8.80
   2   1  -1   78.89    3.20
   2   1  -1   76.99    2.70
   2   1  -1   77.79    2.50
   2   1  -1   75.99    2.50
   2   1  -1   77.59    2.40
  -2  -1   1   75.89    2.40
  -2  -1   1   76.79    2.40
  -2  -1   1   78.39    3.10
  -2  -1   1   74.79    2.30
   1   1  -1  712.73   18.50
   1   1  -1  736.43   19.00
   1   1  -1  739.33   18.50
   1   1  -1  766.82   18.50
  -1  -1   1  720.43   18.40
  -1  -1   1  781.82   19.00
   0   1  -1  558.04   13.70
   0   1  -1  549.25   13.70
   0   1  -1  541.85   13.70
   0   1  -1  553.64   13.70
   0  -1   1  543.95   13.70
   0  -1   1  551.14   13.70
  -1   1  -1  442.76   11.00
  -1   1  -1  447.06   11.10
  -1   1  -1  447.06   11.50
   1  -1   1  445.96   11.10
   1  -1   1  438.46   11.00
   1  -1   1  422.76   11.20
   1  -1   1  446.16   11.40
  -2   1  -1  180.18    5.50
  -2   1  -1  170.48    4.70
  -2   1  -1  171.28    4.70
  -2   1  -1  174.58    4.70
   2  -1   1  168.18    4.70
   2  -1   1  174.18    4.40
   2  -1   1  159.78    4.80
   2  -1   1  164.48    4.60
   2  -1   1  165.88    4.60
   2  -1   1  163.68    5.30
  -3   1  -1  729.33   20.00
  -3   1  -1  720.23   18.80
  -3   1  -1  743.73   18.80
   3  -1   1  740.33   19.90
   3  -1   1  710.63   18.60
   3  -1   1  738.03   18.40
   3  -1   1  728.33   18.60
   3  -1   1  728.83   18.90
  -4   1  -1  141.69    4.70
  -4   1  -1  143.79    4.70
   4  -1   1  144.39    4.50
   4  -1   1  141.59    4.80
   4  -1   1  142.99    5.90
   4  -1   1  137.69    4.50
  -5   1  -1   16.90    1.80
  -5   1  -1   14.70    1.50
   5  -1   1   19.00    1.80
   5  -1   1   18.90    1.70
  -6   1  -1    5.60    1.50
   6  -1   1    3.70    1.40
   6  -1   1    5.70    1.40
   6   0  -1    0.70    1.40
   6   0  -1    1.00    1.10
  -6   0   1    1.50    1.20
   5   0  -1  132.99    5.10
   5   0  -1  146.99    5.10
  -5   0   1  136.59    4.90
   4   0  -1   11.20    1.30
   4   0  -1   11.00    1.80
   4   0  -1   10.10    1.20
   4   0  -1    8.20    1.10
   4   0  -1   10.30    1.00
  -4   0   1   10.80    1.20
  -4   0   1   11.60    1.30
   3   0  -1  155.78    4.50
   3   0  -1  150.08    4.40
   3   0  -1  155.18    4.70
   3   0  -1  145.49    4.50
   3   0  -1  153.98    5.60
  -3   0   1  148.59    4.60
  -3   0   1  150.98    5.60
  -3   0   1  150.68    4.50
  -3   0   1  147.69    4.50
   2   0  -1  154.78    4.20
   2   0  -1  145.39    5.00
   2   0  -1  156.48    4.30
   2   0  -1  149.69    4.30
   2   0  -1  150.28    4.40
  -2   0   1  152.28    4.30
  -2   0   1  155.68    5.10
  -2   0   1  146.49    4.20
  -2   0   1  149.99    4.30
   1   0  -1 1067.09   26.40
   1   0  -1 1058.69   26.30
   1   0  -1 1025.00   26.80
   1   0  -1 1080.49   26.40
  -1   0   1 1045.80   26.40
  -1   0   1 1098.79   26.90
  -1   0   1 1068.89   26.40
   0   0  -1   40.50    1.10
   0   0  -1   40.80    1.10
   0   0  -1   39.10    1.20
   0   0  -1   39.20    1.10
   0   0   1   39.10    1.10
   0   0   1   38.00    1.10
   0   0   1   39.20    1.10
  -1   0  -1  597.24   15.00
  -1   0  -1  611.74   15.00
  -1   0  -1  621.44   15.00
  -1   0  -1  567.04   15.30
   1   0   1  596.04   15.00
   1   0   1  589.34   15.40
   1   0   1  585.34   15.00
   1   0   1  616.74   15.00
   1   0   1  607.34   15.10
   1   0   1  606.24   15.00
   1   0   1  620.34   15.20
  -2   0  -1  269.97    7.10
  -2   0  -1  276.97    7.10
  -2   0  -1  277.47    7.90
  -2   0  -1  275.27    7.10
   2   0   1  258.17    7.10
   2   0   1  268.17    7.20
   2   0   1  258.37    7.10
   2   0   1  272.87    7.10
   2   0   1  259.17    7.80
   2   0   1  256.57    7.10
  -3   0  -1  184.68    6.60
  -3   0  -1  200.58    5.60
  -3   0  -1  194.18    5.60
  -3   0  -1  186.18    5.60
   3   0   1  196.88    5.50
   3   0   1  190.78    5.60
   3   0   1  190.38    6.60
   3   0   1  199.88    5.50
   3   0   1  199.28    5.70
   3   0   1  196.78    5.70
  -4   0  -1  114.99    4.00
  -4   0  -1  115.69    3.90
   4   0   1  110.89    5.10
   4   0   1  115.19    3.80
   4   0   1  115.19    3.70
   4   0   1  112.89    4.00
   4   0   1  113.89    4.00
   4   0   1  112.29    3.90
  -5   0  -1   32.40    2.40
   5   0   1   37.70    2.00
   5   0   1   37.60    2.20
   5   0   1   35.00    2.30
   5   0   1   36.70    2.40
  -6   0  -1    4.80    1.40
   6   0   1    5.30    1.60
   6   0   1    3.40    1.10
   6  -1  -1    2.10    1.30
   6  -1  -1    0.50    1.30
  -6   1   1    1.40    1.40
   5  -1  -1   89.29    3.70
   5  -1  -1   88.69    4.00
   4  -1  -1  257.37    7.50
   4  -1  -1  256.57    9.20
   4  -1  -1  261.27    7.90
   4  -1  -1  266.17    7.40
  -4   1   1  261.17    7.60
  -4   1   1  258.17    7.60
   3  -1  -1  134.59    4.10
   3  -1  -1  148.99    4.20
   3  -1  -1  138.19    4.20
   3  -1  -1  140.69    5.40
  -3   1   1  145.09    4.40
  -3   1   1  142.59    4.30
  -3   1   1  139.19    5.40
   2  -1  -1   46.40    1.60
   2  -1  -1   47.50    1.70
   2  -1  -1   49.20    1.60
   2  -1  -1   49.70    2.40
  -2   1   1   49.50    1.80
  -2   1   1   48.30    1.80
  -2   1   1   50.89    2.50
   1  -1  -1  714.83   18.20
   1  -1  -1  683.03   17.70
   1  -1  -1  709.23   17.60
  -1   1   1  747.93   18.30
  -1   1   1  702.43   17.70
   0  -1  -1    4.30    0.40
   0  -1  -1    5.30    0.40
   0  -1  -1    4.20    0.20
   0   1   1    4.30    0.30
   0   1   1    4.20    0.30
   0   1   1    4.00    0.20
  -1  -1  -1  662.43   17.40
  -1  -1  -1  712.13   17.80
   1   1   1  700.53   17.80
   1   1   1  677.73   17.40
   1   1   1  743.63   17.20
   1   1   1  704.03   17.40
   1   1   1  687.13   17.60
  -2  -1  -1   79.59    2.40
  -2  -1  -1   71.09    2.40
  -2  -1  -1   78.09    3.00
   2   1   1   70.79    2.30
   2   1   1   74.19    3.00
   2   1   1   71.29    2.20
   2   1   1   71.09    2.40
   2   1   1   71.39    2.60
   2   1   1   75.49    2.40
  -3  -1  -1  147.99    4.50
  -3  -1  -1  148.99    4.60
  -3  -1  -1  150.68    5.50
   3   1   1  153.68    4.50
   3   1   1  157.18    4.60
   3   1   1  153.58    4.60
   3   1   1  145.59    5.60
   3   1   1  156.78    4.90
   3   1   1  147.79    4.50
   3   1   1  150.98    4.50
  -4  -1  -1   25.10    1.60
  -4  -1  -1   23.90    1.60
   4   1   1   26.00    1.50
   4   1   1   25.70    2.50
   4   1   1   25.40    1.60
   4   1   1   27.20    1.70
   4   1   1   23.10    1.70
   4   1   1   25.80    1.80
  -5  -1  -1  213.08    6.80
   5   1   1  209.88    6.60
   5   1   1  198.38    6.90
   5   1   1  215.38    6.80
  -6  -1  -1   83.49    4.10
   6   1   1   90.59    4.20
   6  -2  -1    6.80    1.50
   6  -2  -1    5.40    1.50
  -6   2   1    6.30    1.50
   5  -2  -1   13.40    1.50
   5  -2  -1   11.70    1.70
  -5   2   1   12.20    1.60
  -5   2   1   12.00    1.50
   4  -2  -1   24.40    1.90
   4  -2  -1   22.60    1.60
  -4   2   1   21.60    1.50
  -4   2   1   23.10    1.60
   3  -2  -1    3.90    0.60
   3  -2  -1    3.20    0.80
   3  -2  -1    2.70    0.90
   3  -2  -1    3.10    0.40
   3  -2  -1    4.60    0.70
  -3   2   1    3.60    1.10
  -3   2   1    3.70    0.70
  -3   2   1    2.60    0.60
   2  -2  -1    2.10    0.40
   2  -2  -1    1.50    0.60
   2  -2  -1    4.10    0.90
   2  -2  -1    3.00    0.30
  -2   2   1    2.40    0.50
  -2   2   1    3.40    0.80
  -2   2   1    2.60    0.50
   1  -2  -1 1588.14   40.00
   1  -2  -1 1615.04   39.50
   1  -2  -1 1559.74   39.50
   1  -2  -1 1603.84   39.80
  -1   2   1 1603.94   40.10
  -1   2   1 1621.24   40.00
   0  -2  -1  407.36   10.10
   0  -2  -1  393.26   10.10
   0  -2  -1  391.96   10.40
   0   2   1  400.36    9.90
   0   2   1  402.36   10.00
   0   2   1  410.26   10.40
   0   2   1  399.26    9.90
   0   2   1  391.16   10.20
   0   2   1  417.66   10.00
  -1  -2  -1  195.28    5.00
  -1  -2  -1  203.18    5.10
  -1  -2  -1  209.18    5.70
   1   2   1  193.68    5.70
   1   2   1  211.28    5.30
   1   2   1  196.88    5.60
  -2  -2  -1  825.72   21.10
  -2  -2  -1  806.02   20.30
   2   2   1  776.32   20.80
   2   2   1  796.32   21.20
   2   2   1  826.32   20.30
   2   2   1  804.92   20.30
  -3  -2  -1  124.89    3.80
  -3  -2  -1  122.49    3.70
  -3  -2  -1  118.29    4.60
   3   2   1  120.39    3.80
   3   2   1  112.69    4.10
   3   2   1  113.39    3.70
   3   2   1  115.69    3.80
   3   2   1  115.59    4.70
  -4  -2  -1   31.30    1.80
   4   2   1   30.90    1.80
   4   2   1   29.90    1.60
   4   2   1   26.80    1.70
   4   2   1   32.30    2.00
   4   2   1   30.80    1.70
   4   2   1   29.40    2.00
   4   2   1   29.30    2.60
  -5  -2  -1   31.20    2.10
   5   2   1   34.30    2.00
   5   2   1   33.80    2.50
   5   2   1   34.20    2.20
   5   2   1   32.70    2.10
  -6  -2  -1   12.80    1.80
   6   2   1   13.90    2.00
   6  -3  -1   18.40    2.40
   6  -3  -1   23.00    2.00
   5  -3  -1    2.50    0.90
   5  -3  -1    5.70    1.30
  -5   3   1    2.90    1.10
   4  -3  -1   20.10    1.40
   4  -3  -1   22.80    1.90
  -4   3   1   21.20    1.60
  -4   3   1   17.80    1.50
   3  -3  -1   66.69    2.90
   3  -3  -1   64.99    2.20
   3  -3  -1   66.09    3.40
  -3   3   1   71.89    2.60
  -3   3   1   65.19    3.60
   2  -3  -1  637.54   17.00
   2  -3  -1  658.13   16.10
   2  -3  -1  651.93   16.10
   2  -3  -1  644.74   17.40
  -2   3   1  651.43   16.60
  -2   3   1  656.13   17.70
   1  -3  -1   90.19    3.00
   1  -3  -1   94.69    2.50
   1  -3  -1   92.79    3.20
  -1   3   1   94.79    3.30
  -1   3   1   93.29    2.60
  -1   3   1   96.39    2.60
   0  -3  -1  124.29    3.40
   0  -3  -1  119.49    3.40
   0   3   1  125.69    3.80
   0   3   1  122.29    3.10
   0   3   1  123.59    3.40
   0   3   1  117.79    3.60
   0   3   1  127.79    3.40
  -1  -3  -1   45.00    1.50
   1   3   1   43.50    1.90
   1   3   1   44.20    1.40
   1   3   1   44.30    1.90
   1   3   1   45.40    1.40
  -2  -3  -1    0.10    0.20
  -2  -3  -1    0.30    0.50
  -2  -3  -1   -0.40    0.30
   2   3   1    0.10    0.60
   2   3   1    0.40    0.30
   2   3   1    0.70    0.50
   2   3   1   -0.20    0.30
  -3  -3  -1  146.79    5.50
  -3  -3  -1  149.29    4.40
   3   3   1  145.09    4.50
   3   3   1  144.29    4.40
   3   3   1  156.08    4.50
   3   3   1  154.08    5.20
   3   3   1  145.89    5.60
  -4  -3  -1    8.80    1.10
   4   3   1    9.10    1.10
   4   3   1    9.10    1.20
   4   3   1    9.00    1.10
   4   3   1    8.90    1.70
   4   3   1    8.10    1.40
   4   3   1    8.40    1.20
  -5  -3  -1   17.70    1.70
   5   3   1   18.80    1.80
   5   3   1   20.40    1.70
   5   3   1   23.10    2.30
  -6  -3  -1   16.70    1.90
   6   3   1   15.50    2.30
   6   3   1   13.10    1.90
   6  -4  -1    5.80    1.70
   6  -4  -1    6.50    1.00
  -6   4   1    4.10    1.60
   5  -4  -1    9.50    1.00
   5  -4  -1   10.10    1.80
  -5   4   1   10.00    1.50
   4  -4  -1    7.60    0.70
   4  -4  -1    6.90    1.30
  -4   4   1    8.30    1.10
   3  -4  -1   20.50    2.00
   3  -4  -1   20.00    1.60
  -3   4   1   17.50    1.20
   2  -4  -1  117.69    3.20
   2  -4  -1  114.19    3.90
   2  -4  -1  109.09    4.20
  -2   4   1  116.49    3.50
  -2   4   1  112.39    4.50
   1  -4  -1   76.69    2.70
   1  -4  -1   77.39    2.20
   1  -4  -1   74.89    2.90
  -1   4   1   79.39    2.20
  -1   4   1   76.99    3.00
  -1   4   1   78.29    2.20
   0  -4  -1   34.10    1.30
   0  -4  -1   36.80    1.40
   0  -4  -1   36.60    1.40
   0   4   1   35.80    1.70
  -1  -4  -1   23.30    1.10
   1   4   1   24.20    0.80
   1   4   1   23.50    0.90
   1   4   1   23.80    1.40
   1   4   1   23.90    1.50
  -2  -4  -1    1.10    0.70
   2   4   1    0.50    0.40
   2   4   1    1.90    0.90
   2   4   1    1.40    0.70
  -3  -4  -1    6.50    1.20
  -3  -4  -1    5.60    0.60
  -3  -4  -1    5.60    0.50
   3   4   1    5.40    0.80
   3   4   1    6.50    0.80
   3   4   1    7.00    1.40
   3   4   1    5.10    1.10
  -4  -4  -1   76.49    2.70
   4   4   1   73.89    3.70
   4   4   1   75.59    3.00
   4   4   1   76.39    3.00
   4   4   1   78.39    3.10
  -5  -4  -1   10.20    1.40
   5   4   1    8.20    1.30
   5   4   1   10.30    1.80
  -6  -4  -1   18.40    2.00
   6   4   1   19.30    2.50
   5  -5  -1   21.10    2.40
  -5   5   1   23.90    2.20
   4  -5  -1   18.00    2.00
  -4   5   1   17.00    1.60
   3  -5  -1    8.60    1.50
   3  -5  -1   11.00    1.40
  -3   5   1   10.40    1.00
   2  -5  -1   58.99    1.90
   2  -5  -1   58.59    2.60
   2  -5  -1   59.79    2.90
  -2   5   1   57.79    2.10
  -2   5   1   53.79    3.00
  -2   5   1   59.19    2.00
   1  -5  -1   43.00    1.50
   1  -5  -1   41.90    1.90
   1  -5  -1   43.30    2.10
  -1   5   1   41.70    1.30
  -1   5   1   44.60    1.40
  -1   5   1   44.40    2.30
   0  -5  -1   12.80    0.90
   0  -5  -1   13.00    0.90
   0  -5  -1   12.10    1.00
   0   5   1   14.00    1.20
  -1  -5  -1   85.09    2.60
   1   5   1   81.29    2.30
   1   5   1   81.69    2.30
   1   5   1   82.79    3.20
   1   5   1   83.99    3.30
  -2  -5  -1    6.00    1.00
  -2  -5  -1    7.80    0.80
   2   5   1    5.70    0.60
   2   5   1    7.00    0.70
   2   5   1    7.50    1.30
   2   5   1    6.40    1.10
   3   5   1    6.30    1.20
   3   5   1    7.40    0.90
   3   5   1    7.60    1.40
   4   5   1    1.80    1.20
   4   5   1    2.40    0.80
   4   5   1    1.20    0.70
  -5  -5  -1    2.80    0.80
   5   5   1    3.30    1.00
   5   5   1    4.30    1.60
  -6  -5  -1    1.30    1.00
   6   5   1    1.10    1.40
   6   5   1    1.30    1.10
   5  -6  -1   14.70    2.00
  -5   6   1   15.20    2.00
   4  -6  -1   34.90    2.70
  -4   6   1   42.40    2.40
   3  -6  -1   75.69    3.50
  -3   6   1   75.29    2.90
   2  -6  -1   19.70    1.10
   2  -6  -1   21.40    1.70
   2  -6  -1   21.60    1.80
  -2   6   1   21.90    1.20
   1  -6  -1   26.90    1.30
   1  -6  -1   27.20    1.80
   1  -6  -1   26.70    1.60
  -1   6   1   26.70    0.90
  -1   6   1   25.80    1.00
  -1   6   1   26.00    2.00
   0  -6  -1   96.19    3.10
   0  -6  -1   96.69    3.30
   0   6   1   93.79    3.70
   0   6   1   94.79    3.50
  -1  -6  -1   66.59    2.40
   1   6   1   64.59    1.90
   1   6   1   65.79    3.00
   1   6   1   69.29    3.10
   1   6   1   65.29    1.90
  -2  -6  -1   26.20    1.50
   2   6   1   26.50    2.10
   2   6   1   27.80    2.10
   2   6   1   27.70    1.30
   2   6   1   25.20    1.20
  -3  -6  -1    4.30    1.00
   3   6   1    2.20    1.10
   3   6   1    2.60    1.00
   3   6   1    3.40    0.70
   4   6   1    2.70    1.40
   4   6   1    1.20    0.70
   5   6   1    2.60    1.10
   5   6   1    3.80    1.80
   6   6   1    1.80    1.50
   6   6   1    3.90    1.30
   5  -7  -1   17.00    2.40
  -5   7   1   16.20    2.00
   4  -7  -1   27.60    2.50
  -4   7   1   28.70    2.10
   3  -7  -1    9.40    1.40
  -3   7   1    8.30    1.00
   2  -7  -1   50.09    2.60
   2  -7  -1   47.40    3.30
  -2   7   1   46.60    1.90
   1  -7  -1   73.39    3.40
   1  -7  -1   75.99    2.60
   1  -7  -1   72.59    3.00
  -1   7   1   74.89    2.20
  -1   7   1   72.59    2.10
   0  -7  -1   15.90    1.40
   0  -7  -1   14.90    1.20
   0   7   1   13.10    1.40
   0   7   1   14.40    1.50
  -1  -7  -1  122.59    4.00
   1   7   1  128.89    4.80
   1   7   1  123.29    4.70
   1   7   1  119.09    4.70
   1   7   1  122.69    3.30
   1   7   1  120.29    3.30
  -2  -7  -1    5.10    0.90
   2   7   1    4.20    1.20
   2   7   1    5.60    1.30
   2   7   1    5.60    0.70
  -3  -7  -1   16.10    1.50
   3   7   1   13.40    1.20
   3   7   1   14.20    2.00
  -4  -7  -1    0.70    0.90
   4   7   1    2.20    1.40
   4   7   1    1.00    0.70
   5   7   1    1.70    1.70
   5   7   1    0.20    1.00
   4  -8  -1   12.60    2.00
  -4   8   1   10.30    1.40
   3  -8  -1   31.40    2.50
  -3   8   1   30.70    1.80
   2  -8  -1   41.50    2.50
  -2   8   1   38.90    1.70
   1  -8  -1   87.19    3.10
   1  -8  -1   85.59    3.40
  -1   8   1   83.29    2.50
  -1   8   1   85.49    2.40
  -1   8   1   86.59    3.50
   0  -8  -1   35.00    1.90
   0  -8  -1   32.70    2.00
   0   8   1   37.10    2.30
  -1  -8  -1   17.60    1.50
   1   8   1   11.70    1.70
   1   8   1   16.20    0.70
   1   8   1   17.40    1.90
   1   8   1   15.10    0.80
  -2  -8  -1   39.90    2.10
   2   8   1   39.50    1.60
   2   8   1   40.30    2.80
  -3  -8  -1    0.20    0.80
   3   8   1   -0.50    0.50
   3   8   1    0.30    1.30
  -4  -8  -1    3.60    1.20
   4   8   1    5.10    1.10
   4   8   1    5.00    2.00
   5   8   1    6.70    2.40
   5   8   1    9.00    1.40
   4  -9  -1   13.00    2.10
  -4   9   1   11.50    1.50
   3  -9  -1   20.10    2.20
  -3   9   1   16.20    1.50
   2  -9  -1   31.20    2.30
  -2   9   1   29.50    1.50
   1  -9  -1   44.10    2.50
  -1   9   1   42.40    1.50
   0  -9  -1  277.57    8.50
   0   9   1  270.07    8.80
  -1  -9  -1   61.29    2.80
   1   9   1   61.29    1.90
   1   9   1   67.39    3.60
   1   9   1   57.89    1.90
   1   9   1   59.79    1.90
  -2  -9  -1   20.30    1.80
   2   9   1   24.60    2.70
   2   9   1   20.40    1.20
   3   9   1    5.10    0.90
   3   9   1    5.80    1.60
   4   9   1   15.30    2.90
   4   9   1   10.70    1.40
   3 -10  -1    9.00    1.80
  -3  10   1    7.30    1.20
   2 -10  -1    9.80    1.60
  -2  10   1   11.30    1.10
   1 -10  -1   45.60    2.70
  -1  10   1   44.90    1.60
   0  10   1   41.00    2.90
   1  10   1   17.90    2.30
   1  10   1   14.90    0.90
   1  10   1   14.80    0.80
   2  10   1   28.60    3.10
   2  10   1   20.60    1.30
   3  10   1    7.40    1.10
   3  10   1    9.70    2.10
   4  10   1   13.70    1.50
   4  10   1   16.30    3.00
   4  10   1   12.00    1.50
   2 -11  -1    5.80    1.50
  -2  11   1    6.40    0.90
   1 -11  -1    6.00    1.30
  -1  11   1    4.60    0.60
   1  11   1    4.20    0.60
   1  11   1    5.50    1.60
   2  11   1   15.30    1.20
   2  11   1   15.30    1.30
   2  11   1   15.90    2.60
   3  11   1    7.80    1.10
   3  11   1   10.60    1.30
   3  11   1   16.00    3.00
   1  11  -2    0.40    1.70
   1  11  -2    1.30    0.50
  -1 -11   2    1.60    1.50
   0 -11   2   -0.80    1.30
   3  10  -2    3.30    1.90
   3  10  -2    3.30    0.80
  -3 -10   2    3.90    1.50
   2  10  -2    3.30    0.70
   2  10  -2    4.30    1.80
  -2 -10   2    5.20    1.60
   1  10  -2    3.30    0.50
  -1 -10   2    4.70    1.50
   0 -10   2    2.10    1.10
   0 -10   2    1.80    1.40
   1 -10   2    3.20    1.10
  -2  10  -2    4.90    0.80
   2 -10   2    2.70    1.30
   4   9  -2    8.70    2.60
   4   9  -2    6.20    1.20
  -4  -9   2    5.10    1.60
   3   9  -2    8.90    1.10
   3   9  -2    8.00    2.00
  -3  -9   2    6.90    1.70
   2   9  -2   37.00    1.70
  -2  -9   2   38.50    2.70
   1   9  -2    3.20    0.50
  -1  -9   2    3.70    1.30
   0  -9   2    5.70    1.50
   0  -9   2    7.60    1.30
  -1   9  -2    0.20    0.40
   1  -9   2    2.10    0.90
   1  -9   2    1.90    1.40
  -2   9  -2    8.50    0.90
   2  -9   2    7.50    1.40
  -3   9  -2    8.30    1.10
   3  -9   2    7.60    1.60
   4   8  -2   12.70    2.80
   4   8  -2   16.60    1.60
  -4  -8   2   12.60    2.00
   3   8  -2    1.20    0.70
   3   8  -2    2.50    1.50
  -3  -8   2    1.70    1.20
   2   8  -2   13.60    1.00
  -2  -8   2   13.60    1.70
   1   8  -2   60.79    2.00
  -1  -8   2   62.19    3.10
  -1  -8   2   62.29    3.00
   0   8  -2   16.90    0.80
   0  -8   2   18.30    1.60
   0  -8   2   15.50    1.80
  -1   8  -2   14.90    0.80
   1  -8   2   14.60    2.00
   1  -8   2   16.10    1.50
  -2   8  -2    0.70    0.50
   2  -8   2    0.60    0.70
   2  -8   2    0.40    0.90
  -3   8  -2    6.40    1.00
   3  -8   2    8.70    1.50
  -4   8  -2    9.60    1.40
   4  -8   2   11.10    1.90
   5   7  -2    4.10    2.10
   5   7  -2    6.60    1.30
  -5  -7   2    4.80    1.70
   4   7  -2    4.20    2.00
   4   7  -2    8.80    1.30
  -4  -7   2    9.90    1.80
   3   7  -2  144.89    6.30
   3   7  -2  147.39    4.60
  -3  -7   2  151.48    5.40
   2   7  -2   20.90    1.20
   2   7  -2   19.60    2.10
  -2  -7   2   19.60    1.90
   1   7  -2   76.29    2.30
   1   7  -2   77.99    3.30
   1   7  -2   73.69    2.30
   1   7  -2   72.29    3.40
  -1  -7   2   73.89    3.20
  -1  -7   2   74.29    3.20
   0   7  -2  164.38    4.50
   0   7  -2  170.18    5.70
   0   7  -2  173.68    4.40
   0  -7   2  178.28    5.80
   0  -7   2  174.78    5.50
  -1   7  -2    1.20    0.80
  -1   7  -2    1.10    0.40
  -1   7  -2    1.10    0.40
  -1   7  -2    1.20    0.40
   1  -7   2    3.20    1.10
   1  -7   2    2.10    0.80
   1  -7   2    1.60    0.80
  -2   7  -2   34.70    3.00
  -2   7  -2   37.10    1.70
   2  -7   2   34.00    2.70
   2  -7   2   38.60    2.40
   2  -7   2   41.50    2.00
  -3   7  -2   14.60    1.30
   3  -7   2   10.70    1.50
   3  -7   2   14.10    1.30
  -4   7  -2   12.50    1.50
   4  -7   2   14.60    1.90
  -5   7  -2   -0.10    1.10
   5  -7   2    1.70    1.30
   5   6  -2   18.10    1.90
   5   6  -2   18.30    2.70
   4   6  -2   93.89    5.00
   4   6  -2   86.39    3.50
  -4  -6   2   86.69    4.00
   3   6  -2   70.59    2.70
   3   6  -2   72.39    4.10
  -3  -6   2   77.49    3.40
   2   6  -2   17.40    1.80
   2   6  -2   20.70    1.10
  -2  -6   2   20.40    1.70
   1   6  -2   79.09    3.40
   1   6  -2   78.69    2.40
   1   6  -2   79.89    2.30
  -1  -6   2   79.39    3.10
  -1  -6   2   80.19    3.20
   0   6  -2   80.79    3.10
   0   6  -2   81.19    2.10
   0   6  -2   78.39    2.20
   0   6  -2   78.79    3.10
   0  -6   2   78.59    3.20
   0  -6   2   80.19    3.00
  -1   6  -2  189.18    5.10
  -1   6  -2  196.38    5.10
  -1   6  -2  198.38    6.30
   1  -6   2  191.08    5.70
   1  -6   2  192.48    5.90
   1  -6   2  187.08    6.20
  -2   6  -2   88.59    2.90
  -2   6  -2   94.19    4.10
   2  -6   2   92.49    3.70
   2  -6   2   89.59    3.60
   2  -6   2   91.19    3.20
  -3   6  -2   88.29    3.10
   3  -6   2   87.49    3.60
   3  -6   2   78.99    3.70
   3  -6   2   83.99    3.10
  -4   6  -2    6.20    1.20
   4  -6   2    5.80    1.40
  -5   6  -2    0.60    1.10
   5  -6   2    0.90    1.10
   5   5  -2   32.00    3.20
   5   5  -2   24.40    2.00
   4   5  -2    4.20    0.90
   4   5  -2    4.10    1.20
   4   5  -2    5.10    1.50
   3   5  -2   67.59    2.60
   3   5  -2   64.59    3.80
  -3  -5   2   70.79    3.10
   2   5  -2  116.09    3.50
   2   5  -2  116.29    4.70
  -2  -5   2  113.99    4.00
  -2  -5   2  117.29    4.30
   1   5  -2  287.97    7.50
   1   5  -2  291.37    7.60
   1   5  -2  297.27    8.60
  -1  -5   2  298.57    8.30
  -1  -5   2  288.27    8.20
   0   5  -2   44.60    2.00
   0   5  -2   42.20    1.30
   0   5  -2   41.40    1.90
   0   5  -2   42.60    1.20
   0  -5   2   42.60    2.00
   0  -5   2   42.30    1.90
  -1   5  -2  109.49    3.00
  -1   5  -2  110.89    3.90
  -1   5  -2  107.69    3.00
   1  -5   2  108.59    3.90
   1  -5   2  110.19    3.70
   1  -5   2  114.39    3.50
   1  -5   2  108.89    3.70
  -2   5  -2   28.60    1.40
  -2   5  -2   32.60    1.40
  -2   5  -2   31.80    2.10
   2  -5   2   28.30    1.90
   2  -5   2   30.50    1.50
   2  -5   2   31.70    1.80
  -3   5  -2   10.00    1.70
  -3   5  -2   10.60    1.00
   3  -5   2   14.50    1.70
   3  -5   2   10.60    1.30
  -4   5  -2   20.30    1.70
   4  -5   2   20.40    2.00
  -5   5  -2    0.20    0.90
   5  -5   2    2.30    1.20
   6   4  -2    7.30    2.50
  -6  -4   2    8.00    1.30
   5   4  -2    9.50    1.50
   5   4  -2   11.20    1.90
  -5  -4   2   10.50    1.20
   4   4  -2   10.00    1.40
   4   4  -2   11.30    1.70
   4   4  -2    7.30    1.20
  -4  -4   2    9.40    0.90
   3   4  -2   95.99    4.40
   3   4  -2  100.59    3.30
   3   4  -2   97.59    3.30
  -3  -4   2   93.09    4.20
   2   4  -2  252.97    8.00
   2   4  -2  251.77    6.90
  -2  -4   2  256.97    7.70
  -2  -4   2  258.77    7.40
   1   4  -2  232.58    6.00
   1   4  -2  229.28    6.80
   1   4  -2  220.98    5.90
  -1  -4   2  227.68    6.40
  -1  -4   2  223.28    6.50
   0   4  -2   73.79    2.00
   0   4  -2   76.29    2.60
   0   4  -2   75.39    2.10
   0   4  -2   76.69    2.60
   0  -4   2   75.49    2.70
   0  -4   2   70.29    2.50
  -1   4  -2  338.47    8.60
  -1   4  -2  324.27    8.50
  -1   4  -2  349.17    9.30
   1  -4   2  339.07    9.40
   1  -4   2  330.67    9.10
   1  -4   2  341.37    9.10
   1  -4   2  329.57    8.90
  -2   4  -2  109.59    3.40
  -2   4  -2  112.89    4.20
  -2   4  -2  115.29    3.40
  -2   4  -2  115.49    3.40
   2  -4   2  113.19    3.50
   2  -4   2  113.69    4.00
   2  -4   2  110.39    3.80
  -3   4  -2   89.99    3.20
  -3   4  -2   86.19    4.10
   3  -4   2   92.69    3.00
   3  -4   2   91.29    3.80
   3  -4   2   91.49    3.50
  -4   4  -2   21.80    1.80
   4  -4   2   22.20    1.90
  -5   4  -2   51.59    2.90
   5  -4   2   52.99    3.10
  -6   4  -2    4.50    1.60
   6  -4   2    3.00    1.50
  -6  -3   2    4.60    1.30
   5   3  -2   11.30    1.90
   5   3  -2   10.20    1.40
  -5  -3   2   12.40    1.50
   4   3  -2   24.90    1.70
   4   3  -2   23.00    1.70
   4   3  -2   21.00    2.10
   4   3  -2   21.00    1.50
  -4  -3   2   20.90    1.50
   3   3  -2   44.90    1.90
   3   3  -2   45.10    2.00
   3   3  -2   44.80    2.10
   3   3  -2   48.90    3.00
  -3  -3   2   43.60    1.70
  -3  -3   2   39.60    2.60
   2   3  -2   42.70    1.60
   2   3  -2   44.00    1.70
   2   3  -2   45.00    2.40
   2   3  -2   43.70    1.70
  -2  -3   2   44.90    2.30
   1   3  -2  259.67    6.70
   1   3  -2  250.27    6.60
   1   3  -2  255.77    7.30
  -1  -3   2  245.38    7.00
  -1  -3   2  265.57    7.10
  -1  -3   2  259.87    7.10
   0   3  -2 1122.39   27.50
   0   3  -2 1147.79   27.80
   0   3  -2 1105.09   27.40
   0   3  -2 1104.79   27.80
   0  -3   2 1111.69   27.90
   0  -3   2 1073.49   27.80
  -1   3  -2  187.38    5.00
  -1   3  -2  192.58    5.50
  -1   3  -2  190.78    5.00
   1  -3   2  188.98    5.30
   1  -3   2  190.48    5.30
   1  -3   2  198.08    5.60
   1  -3   2  193.38    5.40
   1  -3   2  189.68    5.30
  -2   3  -2  491.85   12.40
  -2   3  -2  495.45   12.90
  -2   3  -2  500.05   12.80
  -2   3  -2  492.35   13.60
   2  -3   2  510.05   12.90
   2  -3   2  494.75   13.20
   2  -3   2  498.55   13.40
  -3   3  -2   75.99    2.80
  -3   3  -2   73.99    3.60
  -3   3  -2   77.09    2.70
   3  -3   2   74.59    2.60
   3  -3   2   77.29    3.00
   3  -3   2   77.59    3.40
  -4   3  -2   39.90    2.10
   4  -3   2   42.30    2.50
   4  -3   2   36.10    2.80
   4  -3   2   41.40    1.60
  -5   3  -2   13.50    1.60
   5  -3   2   17.50    1.90
   5  -3   2   16.40    1.30
  -6   3  -2    7.80    1.50
   6  -3   2    6.70    1.10
   6  -3   2    8.60    1.70
   6   2  -2    2.70    1.40
  -6  -2   2    2.40    1.40
   5   2  -2    3.00    1.10
   5   2  -2    2.70    1.10
   5   2  -2    4.40    1.10
  -5  -2   2    2.40    1.00
   4   2  -2   10.50    1.30
   4   2  -2   11.90    1.30
   4   2  -2   12.00    1.20
   4   2  -2   11.40    1.50
  -4  -2   2   14.00    1.30
   3   2  -2   62.39    2.80
   3   2  -2   63.89    2.40
   3   2  -2   60.99    2.30
   3   2  -2   61.09    2.50
   3   2  -2   63.29    3.40
  -3  -2   2   63.79    2.30
  -3  -2   2   62.39    3.20
   2   2  -2    2.10    0.50
   2   2  -2    2.40    0.80
   2   2  -2    2.00    0.50
   2   2  -2    3.10    0.50
  -2  -2   2    2.50    0.70
  -2  -2   2    2.60    0.50
   1   2  -2  553.84   13.80
   1   2  -2  556.34   13.60
   1   2  -2  545.85   14.40
  -1  -2   2  563.34   14.30
  -1  -2   2  528.25   14.00
  -1  -2   2  537.95   13.50
  -1  -2   2  554.14   14.10
   0   2  -2  162.98    4.20
   0   2  -2  156.18    4.30
   0   2  -2  170.08    4.30
   0  -2   2  167.58    4.60
   0  -2   2  162.78    4.50
  -1   2  -2  268.67    7.20
  -1   2  -2  262.37    6.80
   1  -2   2  270.57    7.10
   1  -2   2  267.87    7.30
   1  -2   2  268.27    7.00
   1  -2   2  256.77    7.10
  -2   2  -2  335.97    9.00
  -2   2  -2  352.76    9.10
  -2   2  -2  337.77    8.90
  -2   2  -2  344.97    9.70
   2  -2   2  332.87    8.70
   2  -2   2  341.07    9.30
   2  -2   2  362.36    9.60
   2  -2   2  345.07    9.00
  -3   2  -2   75.69    2.80
  -3   2  -2   75.69    3.50
  -3   2  -2   82.09    2.80
   3  -2   2   83.29    3.60
   3  -2   2   80.49    2.70
   3  -2   2   80.09    2.50
   3  -2   2   79.99    3.00
  -4   2  -2   33.70    2.00
  -4   2  -2   34.20    2.00
   4  -2   2   32.30    2.60
   4  -2   2   35.70    2.00
   4  -2   2   31.70    1.60
   4  -2   2   31.80    1.60
  -5   2  -2   18.80    2.00
  -5   2  -2   18.60    1.80
   5  -2   2   21.00    2.10
   5  -2   2   20.80    1.70
   6  -2   2    9.90    1.50
   6  -2   2    9.80    1.60
   6   1  -2    3.60    1.30
   6   1  -2    3.40    1.50
  -6  -1   2    3.50    1.40
   5   1  -2    3.10    1.20
  -5  -1   2    1.80    0.90
   4   1  -2    4.10    0.80
   4   1  -2    6.00    1.20
   4   1  -2    4.50    0.90
   4   1  -2    4.60    1.00
  -4  -1   2    5.50    1.00
   3   1  -2    6.50    1.00
   3   1  -2    6.10    1.20
   3   1  -2    6.20    0.90
   3   1  -2    7.00    0.80
   3   1  -2    6.20    0.80
  -3  -1   2    5.50    0.80
  -3  -1   2    6.30    0.80
  -3  -1   2    5.00    1.20
  -3  -1   2    5.80    0.70
   2   1  -2  487.75   13.50
   2   1  -2  504.45   12.60
   2   1  -2  479.95   12.60
   2   1  -2  494.05   12.60
  -2  -1   2  479.55   12.50
  -2  -1   2  494.55   12.40
  -2  -1   2  487.05   12.60
  -2  -1   2  484.35   13.50
   1   1  -2   91.99    2.60
   1   1  -2   91.99    2.60
   1   1  -2   90.79    2.60
   1   1  -2   90.69    3.00
  -1  -1   2   91.49    2.70
  -1  -1   2   91.29    2.60
  -1  -1   2   91.89    3.00
   0   1  -2  481.45   12.20
   0   1  -2  485.05   12.30
   0  -1   2  493.95   12.20
   0  -1   2  482.05   12.20
   0  -1   2  508.95   12.50
   0  -1   2  501.45   12.50
   0  -1   2  488.45   12.40
  -1   1  -2  798.42   19.90
  -1   1  -2  769.32   20.10
  -1   1  -2  820.32   19.80
   1  -1   2  797.52   20.00
   1  -1   2  867.71   19.90
   1  -1   2  765.12   20.00
   1  -1   2  780.32   20.10
   1  -1   2  776.42   19.80
   1  -1   2  811.22   20.20
  -2   1  -2   47.40    1.70
  -2   1  -2   49.90    2.20
  -2   1  -2   46.90    1.70
  -2   1  -2   49.30    1.80
   2  -1   2   46.70    1.80
   2  -1   2   45.00    1.60
   2  -1   2   44.80    1.30
   2  -1   2   42.30    1.70
   2  -1   2   47.90    1.70
   2  -1   2   45.60    2.20
  -3   1  -2  321.67    9.70
  -3   1  -2  311.07    8.70
  -3   1  -2  326.87    8.70
   3  -1   2  312.87    8.50
   3  -1   2  305.47    8.50
   3  -1   2  321.87    9.60
   3  -1   2  319.47    8.60
   3  -1   2  320.77    8.20
   3  -1   2  315.47    8.60
   3  -1   2  307.67    8.70
  -4   1  -2   84.29    3.20
  -4   1  -2   77.39    3.10
   4  -1   2   72.09    3.00
   4  -1   2   79.39    3.00
   4  -1   2   74.09    3.90
   4  -1   2   77.89    2.90
  -5   1  -2   18.50    1.90
  -5   1  -2   24.00    1.80
   5  -1   2   23.50    1.80
   5  -1   2   23.60    2.00
  -6   1  -2    8.70    1.70
   6  -1   2   12.70    1.70
   6  -1   2   10.40    1.60
   6   0  -2   -0.10    1.20
   6   0  -2   -0.10    1.10
  -6   0   2    1.20    1.40
   5   0  -2    8.10    1.40
  -5   0   2    6.60    1.30
   4   0  -2   30.70    1.90
   4   0  -2   28.20    1.70
   4   0  -2   29.40    1.70
   4   0  -2   27.50    1.80
  -4   0   2   26.30    1.80
  -4   0   2   29.80    1.80
   3   0  -2   35.50    1.70
   3   0  -2   34.80    2.40
   3   0  -2   33.60    1.50
   3   0  -2   34.50    1.60
   3   0  -2   35.30    1.70
  -3   0   2   37.40    1.70
  -3   0   2   35.10    2.40
  -3   0   2   33.40    1.70
  -3   0   2   35.20    1.60
   2   0  -2  109.79    3.30
   2   0  -2  110.59    3.40
   2   0  -2  109.69    3.30
   2   0  -2  110.19    4.10
  -2   0   2  112.59    3.30
  -2   0   2  112.29    3.40
  -2   0   2  119.59    3.40
  -2   0   2  112.99    4.20
   1   0  -2  817.82   20.60
   1   0  -2  840.52   21.00
   1   0  -2  830.22   20.60
   1   0  -2  831.92   20.50
  -1   0   2  835.82   21.10
  -1   0   2  802.72   20.60
  -1   0   2  824.02   20.60
  -1   0   2  810.82   20.50
   0   0  -2  765.02   19.40
   0   0  -2  793.02   19.40
   0   0  -2  754.42   19.30
   0   0  -2  780.02   19.50
   0   0   2  759.02   19.30
   0   0   2  790.92   19.50
   0   0   2  775.42   19.40
   0   0   2  813.12   19.30
  -1   0  -2  247.38    6.60
  -1   0  -2  257.97    6.80
  -1   0  -2  259.77    6.80
  -1   0  -2  254.27    6.60
   1   0   2  255.27    6.50
   1   0   2  254.97    6.70
   1   0   2  261.47    6.80
   1   0   2  246.88    6.50
   1   0   2  248.48    6.80
   1   0   2  249.78    6.50
  -2   0  -2 1127.49   27.70
  -2   0  -2 1139.89   28.30
  -2   0  -2 1115.29   27.70
  -2   0  -2 1146.29   27.60
   2   0   2 1073.29   27.60
   2   0   2 1065.99   27.60
   2   0   2 1122.99   27.70
   2   0   2 1049.49   27.60
   2   0   2 1099.99   27.80
   2   0   2 1110.79   27.60
   2   0   2 1099.09   28.30
  -3   0  -2   65.09    3.20
  -3   0  -2   68.19    2.50
  -3   0  -2   66.49    2.40
  -3   0  -2   67.19    2.50
   3   0   2   65.09    2.40
   3   0   2   66.29    2.60
   3   0   2   68.49    2.40
   3   0   2   68.59    2.40
   3   0   2   67.99    3.30
   3   0   2   67.79    2.40
   3   0   2   64.99    2.50
  -4   0  -2  142.09    4.70
  -4   0  -2  143.39    4.70
   4   0   2  148.69    4.40
   4   0   2  139.89    4.70
   4   0   2  134.49    4.80
   4   0   2  139.99    4.60
   4   0   2  141.29    4.60
   4   0   2  139.19    5.80
   4   0   2  142.89    4.70
  -5   0  -2   22.40    1.90
  -5   0  -2   14.30    2.00
   5   0   2   18.20    1.60
   5   0   2   20.00    1.80
   5   0   2   19.00    1.50
   5   0   2   21.10    1.80
  -6   0  -2    6.80    1.70
   6   0   2    6.60    1.40
   6   0   2    7.20    1.60
   6  -1  -2   13.80    2.00
   6  -1  -2   13.70    2.00
  -6   1   2   12.60    1.90
   5  -1  -2    5.00    1.30
   5  -1  -2    4.70    1.20
  -5   1   2    4.70    1.20
   4  -1  -2  123.09    4.10
  -4   1   2  115.79    4.10
  -4   1   2  120.09    4.20
   3  -1  -2   57.39    3.20
   3  -1  -2   59.49    2.20
   3  -1  -2   63.19    2.30
   3  -1  -2   61.89    2.20
  -3   1   2   61.99    2.40
  -3   1   2   56.89    2.30
  -3   1   2   59.59    3.20
   2  -1  -2   21.80    1.00
   2  -1  -2   22.00    1.60
   2  -1  -2   22.60    1.00
   2  -1  -2   20.30    1.10
  -2   1   2   21.50    1.10
  -2   1   2   21.70    1.70
  -2   1   2   21.70    1.20
   1  -1  -2  224.18    5.50
   1  -1  -2  213.78    5.70
   1  -1  -2  217.88    6.20
   1  -1  -2  218.78    5.70
  -1   1   2  220.88    5.80
  -1   1   2  207.48    5.60
  -1   1   2  221.18    6.30
   0  -1  -2 1108.29   28.50
   0  -1  -2 1187.08   29.70
   0   1   2 1116.59   28.30
   0   1   2 1174.08   28.50
   0   1   2 1149.48   28.40
   0   1   2 1138.99   29.10
  -1  -1  -2 1383.56   34.20
  -1  -1  -2 1331.57   34.30
  -1  -1  -2 1438.76   35.00
   1   1   2 1376.26   34.50
   1   1   2 1399.36   35.00
   1   1   2 1457.75   34.20
   1   1   2 1319.97   34.50
   1   1   2 1357.16   34.30
  -2  -1  -2   72.29    2.40
  -2  -1  -2   74.99    2.90
  -2  -1  -2   73.79    2.40
   2   1   2   75.09    2.20
   2   1   2   71.49    2.60
   2   1   2   71.09    2.30
   2   1   2   70.49    2.90
   2   1   2   69.39    2.30
   2   1   2   71.39    2.30
   2   1   2   70.09    2.40
  -3  -1  -2  113.79    4.40
  -3  -1  -2  111.69    3.60
  -3  -1  -2  109.79    3.60
   3   1   2  116.59    3.70
   3   1   2  112.49    3.60
   3   1   2  111.79    3.80
   3   1   2  112.79    3.60
   3   1   2  110.29    3.40
   3   1   2  109.39    4.50
   3   1   2  112.09    3.60
  -4  -1  -2   49.40    2.30
  -4  -1  -2   47.90    2.30
   4   1   2   49.90    3.30
   4   1   2   46.00    2.30
   4   1   2   48.80    2.10
   4   1   2   49.10    2.30
   4   1   2   49.10    2.20
   4   1   2   51.09    2.50
   4   1   2   55.39    2.40
   4   1   2   49.60    2.30
  -5  -1  -2   18.30    1.90
   5   1   2   19.30    1.90
   5   1   2   16.80    1.70
   5   1   2   21.70    2.00
   5   1   2   16.50    1.60
  -6  -1  -2   13.10    2.00
   6   1   2   13.30    2.00
   6  -2  -2   12.50    1.80
   6  -2  -2   10.90    2.10
  -6   2   2   13.20    2.00
   5  -2  -2    8.30    1.40
   5  -2  -2    9.20    1.60
  -5   2   2    9.20    1.40
  -5   2   2    6.30    1.30
   4  -2  -2  100.09    3.60
   4  -2  -2  103.39    4.10
  -4   2   2   97.79    3.60
  -4   2   2   97.39    3.70
   3  -2  -2   57.89    1.90
   3  -2  -2   61.89    2.20
   3  -2  -2   58.19    2.20
   3  -2  -2   61.99    3.20
  -3   2   2   62.69    3.30
  -3   2   2   58.29    2.40
   2  -2  -2   72.99    2.00
   2  -2  -2   73.79    2.40
   2  -2  -2   68.09    3.00
  -2   2   2   75.49    2.50
  -2   2   2   73.99    2.40
  -2   2   2   73.79    3.30
   1  -2  -2   20.50    1.20
   1  -2  -2   21.10    0.70
   1  -2  -2   20.10    0.80
  -1   2   2   21.10    0.90
  -1   2   2   21.90    0.60
  -1   2   2   21.10    1.40
  -1   2   2   21.00    0.80
   0  -2  -2 1058.99   27.00
   0  -2  -2 1111.29   26.90
   0  -2  -2 1080.89   27.30
   0   2   2 1118.69   27.40
   0   2   2 1080.49   27.00
   0   2   2 1094.59   27.40
  -1  -2  -2 9443.06  240.98
  -1  -2  -2 9650.03  243.98
   1   2   2 9783.22  241.18
   1   2   2 9960.10  241.38
   1   2   2 9603.44  241.78
   1   2   2 9942.61  244.28
   1   2   2 9999.00  243.48
  -2  -2  -2  670.33   17.10
  -2  -2  -2  630.04   16.40
  -2  -2  -2  637.74   16.40
   2   2   2  616.54   16.40
   2   2   2  638.64   16.40
   2   2   2  657.03   16.40
   2   2   2  659.63   16.00
   2   2   2  649.74   17.20
   2   2   2  630.84   16.80
  -3  -2  -2   75.79    2.70
  -3  -2  -2   70.59    2.60
  -3  -2  -2   72.19    3.30
   3   2   2   76.79    3.60
   3   2   2   72.39    2.60
   3   2   2   72.19    2.60
   3   2   2   69.79    2.60
   3   2   2   73.49    3.00
   3   2   2   76.29    2.40
  -4  -2  -2   23.90    1.60
   4   2   2   21.90    1.30
   4   2   2   24.00    1.60
   4   2   2   24.50    1.50
   4   2   2   24.80    1.90
   4   2   2   24.40    2.50
   4   2   2   25.60    1.80
  -5  -2  -2   12.10    1.50
   5   2   2   11.10    1.20
   5   2   2   10.40    1.50
   5   2   2   14.00    1.70
   5   2   2   11.90    1.70
   5   2   2   13.90    1.60
  -6  -2  -2   22.10    2.40
   6   2   2   22.80    2.30
   6   2   2   21.40    2.40
   6  -3  -2    3.60    1.50
   6  -3  -2    4.10    1.40
   5  -3  -2    7.10    1.20
   5  -3  -2    4.80    1.60
  -5   3   2    6.20    1.30
   4  -3  -2   19.90    2.00
   4  -3  -2   16.50    1.50
  -4   3   2   16.30    1.50
  -4   3   2   18.60    1.50
   3  -3  -2  147.99    5.10
   3  -3  -2  143.89    5.60
   3  -3  -2  153.78    4.40
  -3   3   2  157.08    4.70
   2  -3  -2   94.29    2.70
   2  -3  -2   94.79    2.70
   2  -3  -2   94.99    3.40
   2  -3  -2   94.99    3.80
  -2   3   2   96.59    3.00
  -2   3   2   90.49    3.90
   1  -3  -2   59.89    2.50
   1  -3  -2   58.29    2.20
  -1   3   2   58.89    2.50
  -1   3   2   60.19    1.60
  -1   3   2   59.49    1.90
   0  -3  -2   13.10    1.00
   0  -3  -2   15.00    0.80
   0   3   2   16.40    0.60
   0   3   2   16.30    1.10
   0   3   2   14.40    0.60
   0   3   2   15.00    0.80
   0   3   2   14.30    0.60
  -1  -3  -2  298.27    7.30
   1   3   2  295.37    8.10
   1   3   2  286.67    7.50
   1   3   2  293.07    7.50
   1   3   2  281.57    8.00
  -2  -3  -2    4.60    0.50
  -2  -3  -2    4.80    0.50
  -2  -3  -2    4.50    0.80
   2   3   2    3.70    0.60
   2   3   2    4.30    0.80
   2   3   2    3.90    1.00
   2   3   2    5.00    0.60
  -3  -3  -2   45.30    2.60
  -3  -3  -2   45.80    1.90
   3   3   2   43.90    1.50
   3   3   2   41.80    1.90
   3   3   2   46.70    1.90
   3   3   2   45.50    1.90
   3   3   2   46.10    2.80
   3   3   2   39.80    2.30
  -4  -3  -2   16.60    1.40
   4   3   2   17.60    2.30
   4   3   2   17.70    1.70
   4   3   2   17.20    1.50
   4   3   2   17.40    1.50
   4   3   2   17.00    1.10
   4   3   2   18.10    1.40
  -5  -3  -2   20.30    1.80
   5   3   2   20.30    2.20
   5   3   2   24.30    2.00
   5   3   2   19.80    2.00
   5   3   2   23.20    1.90
  -6  -3  -2   33.80    2.70
   6   3   2   34.70    3.10
   6   3   2   30.70    2.80
   6  -4  -2    5.70    1.80
   6  -4  -2    5.30    1.10
   5  -4  -2   11.60    1.20
   5  -4  -2   11.80    1.90
  -5   4   2   10.20    1.50
   4  -4  -2   25.50    1.40
   4  -4  -2   29.30    2.20
  -4   4   2   27.80    1.90
   3  -4  -2   25.80    1.10
   3  -4  -2   29.50    1.10
   3  -4  -2   29.50    2.00
   3  -4  -2   27.10    2.30
  -3   4   2   30.80    1.60
   2  -4  -2  172.28    5.90
   2  -4  -2  171.08    4.50
   2  -4  -2  164.58    5.40
  -2   4   2  180.48    4.90
  -2   4   2  173.48    5.00
  -2   4   2  176.78    6.10
   1  -4  -2  111.39    3.50
   1  -4  -2  108.59    2.90
   1  -4  -2  114.69    3.90
  -1   4   2  103.99    3.00
  -1   4   2  104.09    3.90
  -1   4   2  109.79    3.00
  -1   4   2  104.39    3.10
   0  -4  -2  788.92   19.90
   0   4   2  788.42   19.50
   0   4   2  793.52   20.40
   0   4   2  766.92   19.50
   0   4   2  755.32   20.00
   0   4   2  831.62   19.80
  -1  -4  -2   40.40    1.20
  -1  -4  -2   40.00    1.30
   1   4   2   37.60    1.40
   1   4   2   39.10    1.90
   1   4   2   38.00    1.40
   1   4   2   41.40    2.00
   1   4   2   42.40    1.30
  -2  -4  -2   32.20    1.90
   2   4   2   26.50    1.80
   2   4   2   26.90    1.30
   2   4   2   28.10    1.90
  -3  -4  -2   69.59    2.30
  -3  -4  -2   68.99    3.30
  -3  -4  -2   70.69    2.20
   3   4   2   71.29    2.60
   3   4   2   69.99    3.30
   3   4   2   72.79    2.60
   3   4   2   66.39    3.60
  -4  -4  -2   21.50    1.50
   4   4   2   22.60    2.20
   4   4   2   22.90    1.70
   4   4   2   21.70    1.60
   4   4   2   23.70    1.70
  -5  -4  -2    6.90    1.20
   5   4   2    5.90    1.20
   5   4   2    6.50    1.30
   5   4   2    9.00    1.80
   5   4   2    4.70    1.10
  -6  -4  -2    5.00    1.50
   6   4   2    1.90    1.40
   5  -5  -2   36.10    3.00
  -5   5   2   37.50    2.60
   4  -5  -2   48.30    2.80
  -4   5   2   50.89    2.60
   3  -5  -2   21.30    1.80
  -3   5   2   22.00    1.40
   2  -5  -2  146.99    5.40
   2  -5  -2  149.19    5.00
   2  -5  -2  150.18    4.00
  -2   5   2  153.78    5.70
  -2   5   2  146.79    4.40
   1  -5  -2  467.95   12.00
   1  -5  -2  464.55   13.00
   1  -5  -2  477.75   12.60
  -1   5   2  476.85   12.20
  -1   5   2  478.05   12.00
  -1   5   2  477.75   11.90
  -1   5   2  467.15   13.20
   0  -5  -2   36.00    1.50
   0   5   2   34.60    1.10
   0   5   2   36.80    1.10
   0   5   2   33.60    1.60
   0   5   2   35.80    2.00
  -1  -5  -2   92.49    2.80
  -1  -5  -2   90.59    2.70
   1   5   2   98.99    3.60
   1   5   2   85.19    3.40
   1   5   2   95.49    2.70
   1   5   2   91.79    2.70
   1   5   2   95.99    2.70
  -2  -5  -2   42.30    1.70
   2   5   2   42.40    2.30
   2   5   2   40.90    2.40
   2   5   2   44.60    1.70
   2   5   2   45.00    1.70
   3   5   2    9.50    1.00
   3   5   2    7.30    1.30
   3   5   2    7.80    1.50
  -4  -5  -2   24.70    1.20
   4   5   2   27.50    1.90
   4   5   2   27.50    2.40
   4   5   2   23.10    1.70
  -5  -5  -2    2.30    0.80
   5   5   2    0.20    1.30
   5   5   2    2.30    1.00
   5   5   2    2.20    1.00
  -6  -5  -2    0.50    1.00
   6   5   2    2.00    1.70
   6   5   2    2.50    1.30
   6   5   2    3.10    1.50
   5  -6  -2   17.00    2.30
  -5   6   2   20.30    2.10
   4  -6  -2   24.40    2.30
  -4   6   2   20.60    1.80
   3  -6  -2   42.10    2.50
  -3   6   2   36.00    1.90
   2  -6  -2   72.39    3.10
   2  -6  -2   71.19    3.40
  -2   6   2   70.09    2.50
   1  -6  -2   44.70    2.10
   1  -6  -2   42.40    2.40
  -1   6   2   41.60    1.50
  -1   6   2   43.80    2.60
  -1   6   2   38.50    1.40
  -1   6   2   42.40    1.80
   0  -6  -2   53.59    2.00
   0  -6  -2   48.40    2.00
   0   6   2   51.39    2.60
   0   6   2   49.20    1.50
   0   6   2   46.90    2.20
   0   6   2   50.69    1.50
  -1  -6  -2   37.70    1.40
  -1  -6  -2   36.50    1.50
   1   6   2   36.10    1.30
   1   6   2   38.50    2.20
   1   6   2   38.00    2.20
   1   6   2   39.40    1.30
   1   6   2   32.20    2.00
   1   6   2   38.60    1.30
  -2  -6  -2    8.70    0.90
   2   6   2    6.80    1.20
   2   6   2    8.00    1.30
   2   6   2    6.50    0.70
   2   6   2    7.20    0.70
   3   6   2   16.30    2.10
   3   6   2   18.90    1.30
   3   6   2   13.60    1.80
   4   6   2   -0.20    0.90
   4   6   2    0.90    0.80
   4   6   2    1.70    0.80
   5   6   2   13.10    1.60
   5   6   2    6.80    1.90
   6   6   2    3.00    1.20
   6   6   2    3.70    1.50
   6   6   2    0.60    1.50
   5  -7  -2   -1.40    1.20
  -5   7   2    2.10    1.30
   4  -7  -2   11.90    1.90
  -4   7   2   14.40    1.70
   3  -7  -2   18.40    2.00
  -3   7   2   23.60    1.50
   2  -7  -2   52.19    2.70
  -2   7   2   51.99    2.00
   1  -7  -2   66.39    2.80
   1  -7  -2   64.69    3.20
  -1   7   2   66.69    2.10
  -1   7   2   59.39    2.50
  -1   7   2   62.99    2.00
   0  -7  -2  159.68    4.90
   0   7   2  162.38    4.30
   0   7   2  171.08    4.30
   0   7   2  156.28    5.30
  -1  -7  -2   52.29    1.90
  -1  -7  -2   54.29    2.10
   1   7   2   49.70    1.70
   1   7   2   56.69    2.80
   1   7   2   55.59    3.00
   1   7   2   49.60    1.70
   1   7   2   53.99    1.70
  -2  -7  -2  149.59    4.50
   2   7   2  144.69    4.30
   2   7   2  139.19    5.70
   2   7   2  154.38    5.70
  -3  -7  -2   33.00    1.80
   3   7   2   27.30    2.50
   3   7   2   32.20    1.70
   4   7   2    4.40    1.00
   4   7   2    4.80    1.60
   5   7   2    3.20    1.10
   5   7   2    2.40    1.70
   4  -8  -2   13.60    2.10
  -4   8   2   13.10    1.60
   3  -8  -2   77.69    3.80
  -3   8   2   72.29    3.00
   2  -8  -2   25.00    2.10
  -2   8   2   28.50    1.50
   1  -8  -2   68.09    3.10
  -1   8   2   69.39    3.30
  -1   8   2   66.09    2.20
   0  -8  -2   82.69    3.00
   0   8   2   77.19    2.20
   0   8   2   74.29    2.20
   0   8   2   76.19    3.40
  -1  -8  -2   58.29    2.50
   1   8   2   58.09    1.90
   1   8   2   59.79    1.90
   1   8   2   59.29    3.20
   1   8   2   56.39    1.90
  -2  -8  -2   10.50    1.10
   2   8   2   10.40    1.00
   2   8   2    8.40    1.50
   2   8   2   10.10    0.90
  -3  -8  -2   16.50    1.40
   3   8   2   13.60    1.20
   3   8   2   20.30    2.50
   4   8   2   16.60    2.50
   4   8   2   15.20    1.50
   5   8   2   -1.00    1.80
   5   8   2    3.90    1.30
   4  -9  -2    1.00    1.40
  -4   9   2    5.10    1.20
   3  -9  -2    3.60    1.40
  -3   9   2    3.00    0.90
   2  -9  -2   25.30    2.20
  -2   9   2   26.20    1.50
   1  -9  -2    3.20    1.00
  -1   9   2    3.60    0.60
   0  -9  -2    4.30    0.90
   0   9   2    3.50    0.50
   0   9   2    4.40    0.50
   0   9   2    2.30    1.00
   1   9   2   25.40    1.20
   1   9   2   29.30    2.50
   1   9   2   27.20    1.20
   2   9   2    6.50    0.80
   2   9   2    8.50    1.90
   2   9   2    8.40    0.90
   3   9   2   13.10    2.20
   3   9   2   10.00    1.10
   4   9   2   21.10    1.90
   4   9   2   29.30    3.40
   5   9   2   15.70    2.00
   5   9   2   12.10    2.60
   5   9   2   11.60    1.60
   5   9   2   12.50    1.80
   3 -10  -2    6.90    1.60
  -3  10   2    6.30    1.10
   2 -10  -2   11.70    1.70
  -2  10   2   12.20    1.10
   1 -10  -2   32.40    2.40
  -1  10   2   30.10    1.40
   0 -10  -2   47.50    2.50
   0  10   2   44.30    1.60
   0  10   2   49.10    3.00
   1  10   2   60.49    3.70
   1  10   2   56.79    2.00
   2  10   2   13.40    2.30
   2  10   2    9.90    1.00
   2  10   2   10.10    1.00
   3  10   2    7.80    1.00
   3  10   2    9.70    2.30
   3  10   2    6.40    1.00
   4  10   2   -1.80    0.70
   4  10   2   -1.20    1.40
   4  10   2   -0.30    0.80
   2 -11  -2    6.40    1.50
  -2  11   2    8.60    1.00
   1 -11  -2    9.40    1.60
  -1  11   2   11.30    1.00
   0  11   2   27.50    1.20
   1  11   2    3.00    1.50
   1  11   2    2.60    0.60
   2  11   2   11.00    1.00
   2  11   2   15.10    2.40
   2  11   2    9.60    1.00
   3  11   2    5.00    0.90
   3  11   2    6.70    2.30
   3  11   2    3.60    0.90
   0  12   2    3.50    0.60
   1  12   2    2.30    0.60
   1  12   2    2.10    2.10
   2  10  -3    6.10    0.90
  -2 -10   3    7.60    1.80
   1  10  -3    2.90    0.60
  -1 -10   3    2.20    1.40
   0  10  -3    1.00    0.50
   0 -10   3    0.60    1.00
   0 -10   3    1.90    1.40
  -1  10  -3    1.20    0.50
   1 -10   3    0.90    1.00
   1 -10   3    1.00    1.40
  -2  10  -3    3.70    0.80
   3   9  -3    9.60    2.40
   3   9  -3   10.30    1.10
  -3  -9   3    8.60    1.80
   2   9  -3    6.40    0.80
  -2  -9   3    6.10    1.60
   1   9  -3   18.00    1.10
  -1  -9   3   22.80    2.30
  -1  -9   3   19.50    2.10
   0   9  -3    9.80    0.80
   0  -9   3    8.90    1.40
   0  -9   3    9.20    1.70
  -1   9  -3    7.20    0.70
   1  -9   3    9.50    1.90
   1  -9   3   10.20    1.50
  -2   9  -3    1.80    0.70
   2  -9   3    1.70    1.00
  -3   9  -3    1.90    0.90
   3  -9   3    3.00    1.30
   4   8  -3   15.90    1.60
   4   8  -3   20.70    3.10
  -4  -8   3   17.20    2.20
   3   8  -3   18.90    1.50
  -3  -8   3   20.10    2.20
   2   8  -3   19.30    1.20
  -2  -8   3   18.40    2.10
   1   8  -3   13.20    0.90
  -1  -8   3   11.90    1.70
  -1  -8   3   13.70    1.70
   0   8  -3   23.70    1.00
   0  -8   3   26.60    2.30
   0  -8   3   26.20    2.00
  -1   8  -3   19.90    1.10
   1  -8   3   20.20    1.70
   1  -8   3   22.80    2.30
  -2   8  -3   13.60    1.20
   2  -8   3   12.80    1.60
   2  -8   3   14.10    1.50
  -3   8  -3   28.00    1.90
   3  -8   3   27.80    2.40
  -4   8  -3   11.50    1.50
   4  -8   3   14.20    2.00
   4   7  -3   21.20    3.10
   4   7  -3   16.90    1.60
  -4  -7   3   17.00    2.20
   3   7  -3   31.80    1.90
  -3  -7   3   40.70    2.70
   2   7  -3   34.20    1.60
  -2  -7   3   37.10    2.50
   1   7  -3   49.70    1.80
  -1  -7   3   47.90    2.50
  -1  -7   3   51.39    2.80
   0   7  -3   86.09    2.50
   0  -7   3   85.59    3.70
   0  -7   3   93.39    3.60
  -1   7  -3    7.70    0.70
   1  -7   3    8.00    1.10
   1  -7   3    7.70    1.50
  -2   7  -3   19.10    1.30
   2  -7   3   19.00    1.50
   2  -7   3   18.00    1.80
  -3   7  -3    6.30    1.00
   3  -7   3    6.80    1.10
   3  -7   3    7.40    1.40
  -4   7  -3   10.80    1.40
   4  -7   3   12.70    1.80
   5   6  -3    3.60    1.20
   5   6  -3    2.90    1.70
  -5  -6   3    4.30    1.60
   4   6  -3   41.40    3.40
   4   6  -3   40.30    2.30
  -4  -6   3   38.30    2.80
   3   6  -3   11.60    1.90
   3   6  -3   15.60    1.20
  -3  -6   3   13.80    1.80
   2   6  -3  116.19    3.60
   2   6  -3  115.29    4.80
  -2  -6   3  113.99    4.20
   1   6  -3   51.79    2.60
   1   6  -3   54.29    1.80
  -1  -6   3   55.69    2.60
  -1  -6   3   53.79    2.60
   0   6  -3  119.19    4.10
   0   6  -3  127.09    3.40
   0   6  -3  124.09    4.20
   0   6  -3  122.09    3.50
   0  -6   3  123.69    4.40
   0  -6   3  119.79    4.20
  -1   6  -3   21.50    1.10
  -1   6  -3   24.90    1.70
  -1   6  -3   22.10    1.10
   1  -6   3   23.20    1.90
   1  -6   3   25.90    1.60
  -2   6  -3  238.48    6.80
   2  -6   3  247.08    7.50
   2  -6   3  250.87    7.20
  -3   6  -3   78.19    3.00
   3  -6   3   80.79    3.60
   3  -6   3   74.39    3.00
  -4   6  -3   15.30    1.60
   4  -6   3   15.00    1.80
   4  -6   3   14.80    1.50
  -5   6  -3    1.20    1.10
   5  -6   3    3.00    1.40
   5   5  -3    0.80    1.60
   5   5  -3    1.40    1.00
   4   5  -3   14.30    1.40
   4   5  -3   12.20    2.10
   4   5  -3    8.10    1.50
   3   5  -3  119.39    3.90
   3   5  -3  119.09    5.30
  -3  -5   3  117.79    4.50
   2   5  -3   56.59    2.20
   2   5  -3   60.59    3.10
  -2  -5   3   62.89    2.70
  -2  -5   3   66.09    2.90
   1   5  -3   71.69    2.20
   1   5  -3   69.49    2.30
   1   5  -3   71.69    3.00
  -1  -5   3   72.99    2.90
  -1  -5   3   71.39    2.80
   0   5  -3   79.39    2.90
   0   5  -3   82.39    2.40
   0   5  -3   78.29    2.30
   0   5  -3   77.69    2.80
   0  -5   3   81.29    3.00
   0  -5   3   74.69    3.00
  -1   5  -3  124.59    3.50
  -1   5  -3  128.99    3.60
  -1   5  -3  122.79    4.10
   1  -5   3  119.89    4.30
   1  -5   3  119.89    3.90
  -2   5  -3  664.43   18.10
  -2   5  -3  662.13   17.20
   2  -5   3  687.33   17.50
   2  -5   3  653.03   17.60
   2  -5   3  684.13   17.80
  -3   5  -3   47.40    2.20
  -3   5  -3   47.30    2.90
   3  -5   3   50.79    2.20
   3  -5   3   50.29    2.60
   3  -5   3   49.20    2.70
   3  -5   3   49.00    2.30
  -4   5  -3   25.60    1.90
   4  -5   3   25.20    2.10
  -5   5  -3    8.60    1.50
   5  -5   3    9.90    1.70
   5   4  -3    0.90    1.10
   5   4  -3    3.10    1.50
  -5  -4   3    2.10    0.80
   4   4  -3   -0.10    0.90
   4   4  -3    0.10    0.70
   4   4  -3   -0.50    0.90
  -4  -4   3    0.00    0.50
   3   4  -3   28.20    1.60
   3   4  -3   28.30    2.40
   3   4  -3   27.60    1.70
  -3  -4   3   24.20    2.20
   2   4  -3  176.48    6.10
   2   4  -3  173.48    4.90
   2   4  -3  170.78    4.80
  -2  -4   3  176.48    5.50
  -2  -4   3  169.88    5.70
   1   4  -3   43.80    1.60
   1   4  -3   45.00    1.60
   1   4  -3   47.00    2.20
  -1  -4   3   48.90    2.00
  -1  -4   3   48.80    2.10
   0   4  -3  200.58    5.50
   0   4  -3  192.28    5.50
   0   4  -3  191.88    5.20
   0   4  -3  188.88    5.10
   0  -4   3  190.18    5.80
   0  -4   3  205.38    5.70
  -1   4  -3   50.59    1.70
  -1   4  -3   48.70    2.00
  -1   4  -3   47.10    1.60
   1  -4   3   46.90    1.90
   1  -4   3   49.50    2.30
  -2   4  -3   70.49    2.40
  -2   4  -3   69.69    2.40
  -2   4  -3   68.59    3.00
   2  -4   3   68.39    2.70
   2  -4   3   71.09    2.60
   2  -4   3   71.39    2.80
   2  -4   3   70.29    2.60
  -3   4  -3   49.80    2.90
  -3   4  -3   54.89    2.30
   3  -4   3   52.19    2.70
   3  -4   3   58.19    2.20
   3  -4   3   54.69    2.60
  -4   4  -3   32.30    2.00
   4  -4   3   29.20    2.20
   4  -4   3   30.60    2.50
  -5   4  -3   18.90    1.90
   5  -4   3   21.10    2.10
  -6   4  -3    5.90    1.50
   6  -4   3    6.30    1.50
  -6  -3   3    2.90    1.30
   5   3  -3   14.10    2.00
   5   3  -3   15.80    1.70
  -5  -3   3   13.00    1.50
   4   3  -3   11.00    1.40
   4   3  -3   13.50    1.30
   4   3  -3   12.50    1.80
  -4  -3   3   12.70    1.20
   3   3  -3   19.70    1.40
   3   3  -3   22.30    1.30
   3   3  -3   17.40    2.10
   3   3  -3   16.80    1.40
  -3  -3   3   16.40    1.90
  -3  -3   3   20.80    1.10
   2   3  -3   14.70    1.50
   2   3  -3   15.50    1.00
   2   3  -3   16.30    1.00
   2   3  -3   16.70    1.00
  -2  -3   3   14.80    1.40
   1   3  -3   64.89    2.00
   1   3  -3   61.69    2.50
  -1  -3   3   65.69    2.40
  -1  -3   3   63.39    2.40
  -1  -3   3   66.39    2.50
   0   3  -3   37.20    1.20
   0   3  -3   34.00    1.30
   0   3  -3   34.90    1.40
   0   3  -3   33.80    1.30
   0  -3   3   35.60    1.50
   0  -3   3   36.80    1.70
  -1   3  -3  567.44   14.30
  -1   3  -3  578.34   14.40
  -1   3  -3  567.54   14.60
   1  -3   3  564.34   14.70
   1  -3   3  573.24   14.40
   1  -3   3  560.44   14.60
   1  -3   3  547.55   14.90
  -2   3  -3   60.09    2.10
  -2   3  -3   60.59    1.90
  -2   3  -3   58.29    2.50
  -2   3  -3   59.09    2.10
   2  -3   3   58.79    2.20
   2  -3   3   59.19    2.40
   2  -3   3   59.79    2.40
  -3   3  -3   83.99    3.80
  -3   3  -3   89.49    3.10
   3  -3   3   82.49    3.60
   3  -3   3   87.09    3.00
   3  -3   3   89.19    3.30
  -4   3  -3   55.99    2.60
   4  -3   3   55.69    2.30
   4  -3   3   61.59    2.90
   4  -3   3   58.39    1.80
   4  -3   3   54.09    3.30
  -5   3  -3    4.40    1.20
   5  -3   3    3.50    0.70
   5  -3   3    4.20    1.10
  -6   3  -3    9.50    1.70
   6  -3   3   12.40    1.10
   6  -3   3   12.30    1.90
   6   2  -3    3.50    1.60
  -6  -2   3    2.10    1.30
   5   2  -3    6.80    1.40
   5   2  -3    6.20    1.40
   5   2  -3    6.00    1.50
  -5  -2   3    6.20    1.20
   4   2  -3   23.90    1.60
   4   2  -3   21.20    2.00
   4   2  -3   21.80    1.80
   4   2  -3   22.40    1.60
  -4  -2   3   21.90    1.50
   3   2  -3    0.10    0.70
   3   2  -3    0.10    0.70
   3   2  -3    1.50    0.70
   3   2  -3    1.20    0.50
  -3  -2   3    0.40    0.80
  -3  -2   3   -0.40    0.50
   2   2  -3    1.90    0.60
   2   2  -3    2.50    0.50
   2   2  -3    2.00    0.60
   2   2  -3    2.30    0.80
  -2  -2   3    2.70    0.80
  -2  -2   3    2.00    0.50
   1   2  -3   56.69    1.80
   1   2  -3   56.09    2.30
   1   2  -3   56.19    1.80
   1   2  -3   60.79    2.10
  -1  -2   3   58.99    1.70
  -1  -2   3   58.29    2.20
  -1  -2   3   57.59    2.10
  -1  -2   3   58.09    2.20
  -1  -2   3   60.59    1.70
   0   2  -3  445.36   11.60
   0   2  -3  468.15   11.60
   0  -2   3  463.35   12.00
   0  -2   3  479.55   12.00
   0  -2   3  448.86   11.90
  -1   2  -3  166.68    4.50
  -1   2  -3  160.88    4.60
   1  -2   3  170.98    4.90
   1  -2   3  159.38    4.70
   1  -2   3  168.98    4.40
  -2   2  -3  260.57    6.90
  -2   2  -3  257.07    7.00
  -2   2  -3  261.57    7.50
  -2   2  -3  258.07    7.00
   2  -2   3  259.17    6.60
   2  -2   3  263.37    7.40
   2  -2   3  259.07    7.10
   2  -2   3  252.87    7.20
  -3   2  -3   54.89    2.80
  -3   2  -3   54.69    2.30
  -3   2  -3   55.89    2.20
   3  -2   3   55.99    2.80
   3  -2   3   55.29    2.20
   3  -2   3   57.99    1.90
   3  -2   3   53.39    2.30
  -4   2  -3   30.20    1.90
  -4   2  -3   28.10    1.80
   4  -2   3   33.10    2.00
   4  -2   3   28.80    1.60
   4  -2   3   22.80    2.30
   4  -2   3   26.60    1.50
  -5   2  -3   63.29    3.10
   5  -2   3   64.69    3.20
   5  -2   3   61.69    2.70
   6  -2   3   17.90    2.00
   6  -2   3   20.40    1.90
   6   1  -3   26.80    2.60
  -6  -1   3   22.20    2.30
   5   1  -3    4.70    1.20
  -5  -1   3    2.20    1.10
   4   1  -3    8.30    1.10
   4   1  -3   11.70    1.40
   4   1  -3   12.90    1.40
   4   1  -3    9.20    1.20
  -4  -1   3    9.30    1.10
   3   1  -3   19.40    1.80
   3   1  -3   19.30    1.20
   3   1  -3   22.30    1.40
   3   1  -3   19.90    1.40
  -3  -1   3   20.90    2.00
  -3  -1   3   18.90    1.20
  -3  -1   3   16.60    1.40
  -3  -1   3   19.00    1.10
   2   1  -3   32.00    1.50
   2   1  -3   33.20    1.40
   2   1  -3   35.90    2.10
   2   1  -3   34.90    1.50
  -2  -1   3   35.40    1.40
  -2  -1   3   36.20    1.50
  -2  -1   3   36.00    2.00
  -2  -1   3   33.30    1.30
   1   1  -3    8.30    0.80
   1   1  -3    7.50    0.70
   1   1  -3    7.80    0.60
   1   1  -3    7.60    0.60
  -1  -1   3    8.00    0.90
  -1  -1   3    6.50    0.60
   0   1  -3    7.00    0.60
   0   1  -3    6.30    0.50
   0   1  -3    6.20    0.50
   0   1  -3    6.40    0.30
   0  -1   3    6.30    0.60
   0  -1   3    5.50    0.40
   0  -1   3    6.30    0.50
   0  -1   3    6.30    0.60
  -1   1  -3  233.08    6.00
  -1   1  -3  221.18    6.10
  -1   1  -3  220.68    6.00
  -1   1  -3  226.58    5.90
   1  -1   3  231.38    6.30
   1  -1   3  224.58    6.00
   1  -1   3  228.38    6.20
   1  -1   3  227.28    5.80
  -2   1  -3   24.00    1.10
  -2   1  -3   22.10    1.40
  -2   1  -3   21.40    1.10
  -2   1  -3   20.70    1.10
   2  -1   3   19.20    1.10
   2  -1   3   21.00    1.40
   2  -1   3   20.20    1.20
   2  -1   3   19.20    1.00
  -3   1  -3   10.60    1.40
  -3   1  -3   12.20    1.10
  -3   1  -3   11.00    1.00
   3  -1   3   12.40    1.10
   3  -1   3   14.00    1.00
   3  -1   3   12.90    1.00
   3  -1   3   13.00    1.10
   3  -1   3   14.20    0.70
   3  -1   3   13.20    1.50
   3  -1   3   12.60    1.00
  -4   1  -3   40.90    2.20
  -4   1  -3   40.50    2.10
   4  -1   3   40.10    2.10
   4  -1   3   42.90    2.90
   4  -1   3   37.50    1.90
   4  -1   3   39.90    2.00
  -5   1  -3   14.10    1.70
  -5   1  -3   12.80    1.50
   5  -1   3   13.30    1.40
   5  -1   3   14.90    1.50
   5  -1   3   15.50    1.60
  -6   1  -3    9.30    1.70
   6  -1   3    7.70    1.50
   6  -1   3    7.70    1.50
   6   0  -3    2.20    1.50
   6   0  -3    3.00    1.60
  -6   0   3    3.20    1.30
   5   0  -3   15.60    1.90
  -5   0   3   14.40    1.70
   4   0  -3   69.59    3.00
   4   0  -3   78.59    3.10
   4   0  -3   75.89    2.90
  -4   0   3   73.09    3.00
   3   0  -3   43.80    1.90
   3   0  -3   39.90    2.60
   3   0  -3   45.10    1.90
   3   0  -3   47.70    2.00
  -3   0   3   43.90    1.90
  -3   0   3   38.00    2.70
  -3   0   3   40.40    1.90
  -3   0   3   41.90    1.90
   2   0  -3  215.48    5.90
   2   0  -3  211.38    6.80
   2   0  -3  210.68    6.00
   2   0  -3  221.18    6.00
  -2   0   3  220.28    6.00
  -2   0   3  215.58    6.00
  -2   0   3  220.58    6.90
   1   0  -3   10.80    0.90
   1   0  -3    8.60    0.60
   1   0  -3   10.60    0.70
  -1   0   3    9.40    0.60
  -1   0   3    8.70    0.70
  -1   0   3   10.50    0.70
  -1   0   3    9.20    0.90
   0   0  -3   23.80    1.10
   0   0  -3   24.10    0.90
   0   0  -3   23.80    1.00
   0   0   3   25.50    1.00
   0   0   3   24.90    0.90
   0   0   3   23.90    1.10
   0   0   3   24.50    0.90
   0   0   3   24.20    1.00
   0   0   3   24.70    1.00
  -1   0  -3    7.90    0.60
  -1   0  -3    8.80    0.70
  -1   0  -3    7.50    0.70
   1   0   3    7.80    0.70
   1   0   3    8.40    0.70
   1   0   3    9.40    0.70
   1   0   3    7.90    0.70
   1   0   3    9.10    0.60
   1   0   3    7.80    0.60
  -2   0  -3   62.49    2.20
  -2   0  -3   68.09    2.60
  -2   0  -3   61.29    2.20
   2   0   3   61.99    2.10
   2   0   3   58.99    2.00
   2   0   3   60.39    2.00
   2   0   3   58.89    2.10
   2   0   3   60.19    2.60
   2   0   3   61.39    2.30
   2   0   3   58.89    2.10
  -3   0  -3  134.99    4.20
  -3   0  -3  133.69    4.30
  -3   0  -3  132.59    5.00
   3   0   3  135.29    4.20
   3   0   3  138.29    4.40
   3   0   3  132.49    4.10
   3   0   3  127.19    5.00
   3   0   3  138.89    4.20
   3   0   3  138.79    4.10
   3   0   3  140.59    4.20
  -4   0  -3  111.49    4.10
  -4   0  -3  108.99    3.90
   4   0   3  112.99    3.80
   4   0   3  116.99    4.10
   4   0   3  108.09    5.00
   4   0   3  114.39    3.90
   4   0   3  118.59    3.70
  -5   0  -3   11.50    1.60
  -5   0  -3    9.50    1.30
   5   0   3   13.50    1.50
   5   0   3   13.20    1.50
   5   0   3   10.80    1.30
   5   0   3   10.00    1.10
  -6   0  -3    7.80    1.70
   6   0   3    7.00    1.60
   6  -1  -3    5.40    1.70
   6  -1  -3   10.00    1.90
  -6   1   3   10.20    1.80
   5  -1  -3   20.20    2.00
  -5   1   3   20.80    1.90
   4  -1  -3   31.50    1.90
  -4   1   3   28.40    1.80
  -4   1   3   26.40    1.80
   3  -1  -3   62.69    2.30
   3  -1  -3   60.49    2.30
   3  -1  -3   65.79    3.40
   3  -1  -3   61.69    2.40
  -3   1   3   60.39    3.40
  -3   1   3   61.49    2.40
   2  -1  -3  102.99    3.10
   2  -1  -3  101.09    3.90
   2  -1  -3  103.79    3.20
  -2   1   3  101.09    3.20
  -2   1   3   98.49    4.00
  -2   1   3  105.69    3.30
   1  -1  -3  558.84   15.00
   1  -1  -3  601.84   14.30
   1  -1  -3  556.04   14.50
   1  -1  -3  583.14   14.50
  -1   1   3  582.14   14.50
  -1   1   3  567.04   14.30
  -1   1   3  578.24   14.60
  -1   1   3  561.04   14.40
  -1   1   3  569.94   15.10
  -1   1   3  569.64   14.40
   0  -1  -3  279.07    7.20
   0  -1  -3  271.77    7.20
   0  -1  -3  270.47    7.30
   0   1   3  280.77    7.10
   0   1   3  290.97    7.30
   0   1   3  267.87    7.20
   0   1   3  282.37    7.20
   0   1   3  271.17    7.10
  -1  -1  -3    1.20    0.40
  -1  -1  -3    2.10    0.40
  -1  -1  -3    2.00    0.30
   1   1   3    1.60    0.40
   1   1   3    1.10    0.40
   1   1   3    2.30    0.40
   1   1   3    1.40    0.40
  -2  -1  -3   28.10    1.60
  -2  -1  -3   25.40    1.20
  -2  -1  -3   25.00    1.30
   2   1   3   26.00    1.20
   2   1   3   26.10    1.70
   2   1   3   24.30    1.50
   2   1   3   25.50    1.20
   2   1   3   26.10    1.00
   2   1   3   24.60    1.20
   2   1   3   23.90    1.20
  -3  -1  -3    3.30    0.70
  -3  -1  -3    5.00    0.90
  -3  -1  -3    4.40    1.00
   3   1   3    4.10    0.60
   3   1   3    4.30    0.70
   3   1   3    4.30    0.80
   3   1   3    4.30    0.80
   3   1   3    5.90    1.20
   3   1   3    4.70    0.80
   3   1   3    4.20    0.80
  -4  -1  -3   49.60    2.30
  -4  -1  -3   46.50    2.40
   4   1   3   48.90    2.30
   4   1   3   52.19    3.30
   4   1   3   50.39    2.10
   4   1   3   45.60    2.20
   4   1   3   46.80    2.40
   4   1   3   46.50    2.20
   4   1   3   50.79    2.40
  -5  -1  -3   13.80    1.70
   5   1   3   12.90    1.60
   5   1   3   17.80    1.80
   5   1   3   11.30    1.40
   5   1   3   12.30    1.20
  -6  -1  -3    7.30    1.60
   6   1   3    7.20    1.60
   6  -2  -3    7.90    1.70
   6  -2  -3    8.40    2.00
  -6   2   3    5.70    1.80
   5  -2  -3   22.30    2.40
   5  -2  -3   23.50    2.10
  -5   2   3   22.20    1.90
   4  -2  -3  100.89    3.70
  -4   2   3  100.19    3.80
  -4   2   3   94.29    3.60
   3  -2  -3  102.99    3.40
   3  -2  -3  102.89    4.50
   3  -2  -3  100.59    3.10
  -3   2   3  109.49    3.60
   2  -2  -3    8.40    0.80
   2  -2  -3    7.50    1.20
   2  -2  -3    8.70    0.50
   2  -2  -3    8.20    0.70
  -2   2   3    8.80    1.30
  -2   2   3    9.00    0.80
  -2   2   3    8.60    0.80
   1  -2  -3   76.39    2.40
   1  -2  -3   79.29    2.90
  -1   2   3   77.79    2.40
  -1   2   3   78.59    2.30
  -1   2   3   77.69    2.20
  -1   2   3   81.29    3.00
   0  -2  -3  998.90   25.80
   0  -2  -3 1048.40   26.20
   0   2   3 1025.80   25.90
   0   2   3 1070.49   26.20
   0   2   3 1058.29   25.80
   0   2   3 1033.40   25.90
  -1  -2  -3  628.74   15.90
  -1  -2  -3  631.94   15.70
   1   2   3  641.94   16.30
   1   2   3  624.94   16.30
   1   2   3  614.34   15.90
   1   2   3  646.54   16.00
  -2  -2  -3  108.69    3.30
  -2  -2  -3  104.99    3.40
  -2  -2  -3  116.69    3.90
   2   2   3  103.69    3.90
   2   2   3  108.39    3.70
   2   2   3  113.29    3.40
   2   2   3  109.29    3.40
   2   2   3  115.69    3.40
  -3  -2  -3  156.68    4.80
  -3  -2  -3  157.28    4.70
  -3  -2  -3  160.38    5.60
   3   2   3  155.28    4.30
   3   2   3  160.18    5.20
   3   2   3  155.28    4.70
   3   2   3  155.28    4.80
   3   2   3  150.08    5.70
   3   2   3  154.38    4.70
   3   2   3  153.18    4.80
  -4  -2  -3    2.60    0.90
   4   2   3    3.70    0.90
   4   2   3    2.70    0.90
   4   2   3    4.00    0.60
   4   2   3    3.70    1.00
   4   2   3    3.60    0.80
   4   2   3    3.30    0.90
   4   2   3    2.50    1.20
  -5  -2  -3   16.70    1.80
   5   2   3   14.60    1.80
   5   2   3   14.60    1.70
  -6  -2  -3   31.80    2.80
   6   2   3   21.80    2.30
   6   2   3   28.70    2.60
   6  -3  -3    3.00    1.50
   6  -3  -3    5.70    1.40
   5  -3  -3   27.60    2.60
   5  -3  -3   33.00    2.30
  -5   3   3   27.30    2.20
  -5   3   3   26.70    2.10
   4  -3  -3  339.37    9.20
   4  -3  -3  319.67   10.00
  -4   3   3  337.47    9.30
  -4   3   3  306.37    9.40
   3  -3  -3  449.86   13.50
   3  -3  -3  444.86   12.00
  -3   3   3  473.05   12.30
   2  -3  -3    8.80    0.80
   2  -3  -3    9.00    1.20
  -2   3   3    9.40    1.30
  -2   3   3    9.10    0.80
   1  -3  -3  105.09    2.90
   1  -3  -3  103.29    3.60
   1  -3  -3   99.99    2.90
  -1   3   3  103.79    2.80
  -1   3   3  103.89    3.80
  -1   3   3  102.99    3.10
  -1   3   3  102.49    3.00
   0  -3  -3   10.40    0.90
   0  -3  -3   10.40    0.50
   0  -3  -3   10.10    0.50
   0   3   3    9.10    0.60
   0   3   3   10.00    1.00
   0   3   3    9.30    0.70
  -1  -3  -3  279.37    7.10
  -1  -3  -3  281.77    7.10
   1   3   3  287.17    7.40
   1   3   3  284.27    7.90
   1   3   3  276.97    7.50
   1   3   3  265.97    7.70
  -2  -3  -3   24.40    1.20
  -2  -3  -3   24.60    1.60
   2   3   3   24.00    1.30
   2   3   3   24.30    1.20
   2   3   3   23.70    1.60
   2   3   3   24.20    1.20
   2   3   3   24.30    1.80
  -3  -3  -3  120.19    3.90
  -3  -3  -3  125.29    4.00
  -3  -3  -3  131.59    4.90
   3   3   3  127.69    5.10
   3   3   3  135.29    4.10
   3   3   3  127.89    3.50
   3   3   3  128.59    4.00
   3   3   3  129.29    4.20
   3   3   3  136.49    4.70
   3   3   3  128.29    4.10
  -4  -3  -3    5.30    1.00
   4   3   3    4.00    1.20
   4   3   3    5.40    1.10
   4   3   3    3.50    0.50
   4   3   3    5.60    0.90
   4   3   3    3.30    0.90
   4   3   3    3.00    1.00
   4   3   3    4.90    0.90
  -5  -3  -3    3.60    1.20
   5   3   3    3.20    1.20
   5   3   3    2.70    1.10
   5   3   3    3.70    1.00
   5   3   3    3.60    1.20
  -6  -3  -3   28.10    2.70
   6   3   3   29.30    3.00
   6   3   3   29.70    2.70
   5  -4  -3   62.59    3.80
   5  -4  -3   61.59    2.70
  -5   4   3   59.59    3.40
   4  -4  -3   15.40    1.30
   4  -4  -3   15.00    1.80
  -4   4   3   15.70    1.60
   3  -4  -3   41.30    2.40
   3  -4  -3   47.60    1.80
   3  -4  -3   45.20    2.90
  -3   4   3   43.70    2.10
   2  -4  -3   44.80    2.50
   2  -4  -3   44.20    2.20
   2  -4  -3   44.00    1.40
   2  -4  -3   43.50    1.40
  -2   4   3   42.10    2.60
  -2   4   3   46.40    1.90
   1  -4  -3  102.49    3.80
   1  -4  -3  106.69    3.50
  -1   4   3  104.79    2.90
  -1   4   3   98.89    3.90
  -1   4   3  108.59    3.10
   0  -4  -3   48.80    2.20
   0  -4  -3   53.79    1.90
   0   4   3   51.89    2.30
   0   4   3   51.49    1.70
   0   4   3   54.79    1.60
   0   4   3   50.69    1.70
   0   4   3   53.99    2.00
  -1  -4  -3  152.58    4.00
  -1  -4  -3  150.48    3.90
   1   4   3  149.19    4.20
   1   4   3  152.18    4.80
   1   4   3  151.08    4.30
   1   4   3  156.68    4.90
  -2  -4  -3   78.89    2.10
  -2  -4  -3   82.29    3.30
  -2  -4  -3   80.19    2.20
   2   4   3   70.19    3.30
   2   4   3   81.59    2.70
   2   4   3   71.69    2.50
   2   4   3   71.79    3.10
   2   4   3   77.69    2.60
  -3  -4  -3  103.69    3.30
  -3  -4  -3  108.79    4.40
   3   4   3   99.99    4.60
   3   4   3  104.99    3.50
   3   4   3  109.89    3.60
   3   4   3  107.99    3.60
   3   4   3  102.99    4.10
  -4  -4  -3   16.10    1.40
   4   4   3   16.40    1.50
   4   4   3   15.20    1.50
   4   4   3   17.30    1.60
   4   4   3   18.10    1.90
   4   4   3   17.70    1.50
  -5  -4  -3    6.20    1.20
   5   4   3    5.80    1.20
   5   4   3    5.60    1.50
   5   4   3    7.80    1.40
   5   4   3    7.40    1.40
  -6  -4  -3    4.30    1.40
   6   4   3    4.20    1.70
   6   4   3    6.20    1.70
   5  -5  -3    7.20    1.70
  -5   5   3    5.60    1.40
   4  -5  -3   15.20    1.90
  -4   5   3   17.80    1.70
   3  -5  -3   26.00    2.00
  -3   5   3   27.10    1.70
   2  -5  -3  253.77    7.50
   2  -5  -3  239.98    7.90
  -2   5   3  248.18    6.90
   1  -5  -3  612.04   16.70
   1  -5  -3  629.44   16.20
  -1   5   3  596.54   15.60
  -1   5   3  626.24   15.60
   0  -5  -3   72.49    2.40
   0   5   3   70.49    2.10
   0   5   3   69.59    2.10
   0   5   3   70.29    3.00
   0   5   3   63.29    2.50
  -1  -5  -3  157.48    4.30
  -1  -5  -3  158.18    4.20
   1   5   3  161.18    4.40
   1   5   3  156.58    4.30
   1   5   3  149.88    4.40
   1   5   3  155.58    5.10
   1   5   3  165.18    5.30
   2   5   3   99.09    3.10
   2   5   3   90.69    3.80
   2   5   3   94.79    4.00
   2   5   3   96.99    3.10
   3   5   3   37.80    2.40
   3   5   3   37.70    1.80
   3   5   3   35.10    2.70
   3   5   3   39.90    1.90
  -4  -5  -3    8.30    0.90
   4   5   3    7.20    1.10
   4   5   3    8.50    1.60
   4   5   3    6.30    1.10
   4   5   3    6.20    1.20
  -5  -5  -3   25.40    1.80
   5   5   3   24.70    2.20
   5   5   3   23.60    2.70
   5   5   3   27.30    2.10
  -6  -5  -3    2.40    1.20
   6   5   3    2.70    1.50
   6   5   3    2.90    1.60
   6   5   3    2.10    1.20
   6   5   3    5.60    1.70
   5  -6  -3   33.00    3.00
  -5   6   3   34.20    2.60
   4  -6  -3   13.10    1.90
  -4   6   3   16.60    1.70
   3  -6  -3   54.59    3.00
  -3   6   3   55.59    2.40
   2  -6  -3   24.50    2.00
   2  -6  -3   27.10    1.90
  -2   6   3   24.50    1.40
   1  -6  -3   48.70    2.70
   1  -6  -3   55.09    2.30
  -1   6   3   48.40    1.90
  -1   6   3   48.70    1.80
  -1   6   3   46.50    2.80
   0  -6  -3  210.08    5.80
   0   6   3  197.78    6.50
   0   6   3  191.38    5.90
   0   6   3  194.38    5.30
   0   6   3  194.58    5.30
  -1  -6  -3   72.39    2.30
  -1  -6  -3   73.09    2.30
   1   6   3   77.39    3.30
   1   6   3   78.59    3.40
   1   6   3   76.69    2.30
   1   6   3   72.99    2.30
   1   6   3   72.79    3.10
   1   6   3   73.89    2.40
  -2  -6  -3  120.69    3.60
   2   6   3  129.59    3.80
   2   6   3  123.09    4.70
   2   6   3  117.59    3.70
   2   6   3  120.69    4.90
   3   6   3   37.50    3.40
   3   6   3   44.00    2.80
   3   6   3   40.20    2.00
   3   6   3   42.80    2.00
   4   6   3   21.40    1.80
   4   6   3   20.60    2.40
   4   6   3   22.20    1.70
   5   6   3    5.20    1.20
   5   6   3    7.40    1.40
   5   6   3    6.90    1.70
   6   6   3    8.80    1.70
   6   6   3    6.30    2.00
   6   6   3    7.00    1.70
   6   6   3    6.60    1.50
   5  -7  -3    1.40    1.50
  -5   7   3   -1.70    1.20
   4  -7  -3   13.90    2.00
  -4   7   3   13.30    1.60
   3  -7  -3   57.69    3.20
  -3   7   3   64.39    2.70
   2  -7  -3   21.70    1.90
  -2   7   3   22.30    1.30
   1  -7  -3   38.80    2.10
   1  -7  -3   37.70    2.50
  -1   7   3   40.00    1.60
  -1   7   3   39.40    1.80
   0  -7  -3   14.50    1.30
   0   7   3   16.20    0.80
   0   7   3   13.10    1.30
   0   7   3   14.60    0.90
  -1  -7  -3   82.39    2.60
  -1  -7  -3   80.09    2.70
   1   7   3   80.39    2.60
   1   7   3   84.09    2.60
   1   7   3   82.79    3.70
   1   7   3   78.89    3.50
  -2  -7  -3   18.50    1.20
   2   7   3   18.50    1.20
   2   7   3   19.30    2.00
   2   7   3   15.60    1.20
   2   7   3   13.90    1.80
  -3  -7  -3   39.70    1.90
   3   7   3   40.00    2.00
   3   7   3   40.00    3.00
   3   7   3   43.00    2.10
   4   7   3   18.50    1.70
   4   7   3   17.50    1.70
   4   7   3   24.50    2.70
   5   7   3    3.80    1.20
   5   7   3    5.50    1.40
   5   7   3    6.60    1.90
   6   7   3    1.40    1.40
   6   7   3    3.60    1.50
   6   7   3    3.00    1.70
   6   7   3    0.70    1.40
   4  -8  -3   -0.60    1.20
  -4   8   3    0.30    0.90
   3  -8  -3    3.70    1.30
  -3   8   3    4.30    1.00
   2  -8  -3   54.89    2.90
  -2   8   3   40.30    1.90
   1  -8  -3   34.10    2.10
  -1   8   3   35.80    1.50
   0  -8  -3   27.90    1.70
   0   8   3   28.30    1.90
   0   8   3   28.10    1.20
   0   8   3   27.90    1.30
  -1  -8  -3   34.80    1.70
   1   8   3   33.50    1.50
   1   8   3   37.20    2.50
   2   8   3   12.90    1.80
   2   8   3   10.60    1.00
   2   8   3   10.80    1.00
   3   8   3    8.80    1.10
   3   8   3   10.60    1.10
   3   8   3   11.80    2.00
   4   8   3    9.00    2.00
   4   8   3    8.70    1.20
   4   8   3    9.70    1.30
   5   8   3   13.60    1.90
   5   8   3   10.60    2.30
   5   8   3   12.30    1.80
   4  -9  -3    1.00    1.40
  -4   9   3   -1.50    1.00
   3  -9  -3   -0.50    1.10
  -3   9   3    1.80    0.90
   2  -9  -3   13.70    1.80
  -2   9   3   13.50    1.20
   1  -9  -3    2.00    0.90
  -1   9   3    3.50    0.60
   0  -9  -3   35.00    2.00
   0   9   3   33.10    1.40
   0   9   3   33.40    2.30
   1   9   3   34.90    2.60
   1   9   3   34.80    1.60
   2   9   3   63.49    2.50
   2   9   3   68.69    2.50
   2   9   3   71.89    4.00
   3   9   3   11.10    1.20
   3   9   3    8.40    1.10
   3   9   3   13.10    2.10
   4   9   3   22.60    3.10
   4   9   3   16.40    1.70
   4   9   3   19.70    1.80
   5   9   3    9.10    1.80
   5   9   3    4.50    2.00
   5   9   3    5.80    1.30
   3 -10  -3    0.00    1.20
  -3  10   3   -1.00    0.70
   2 -10  -3   -0.20    1.00
  -2  10   3    1.00    0.70
   1 -10  -3    2.00    0.90
  -1  10   3    2.20    0.60
   0  10   3   19.80    1.20
   1  10   3   28.60    1.50
   1  10   3   27.40    2.70
   2  10   3    6.70    1.70
   2  10   3    5.00    0.80
   2  10   3    5.00    0.80
   3  10   3    6.60    1.10
   3  10   3    6.00    1.00
   3  10   3   10.90    2.20
   4  10   3    7.40    1.40
   4  10   3    8.80    2.30
   4  10   3    6.30    1.20
   2 -11  -3   -0.10    1.10
  -2  11   3    1.20    0.70
   1 -11  -3    1.10    1.10
  -1  11   3    1.60    0.60
   0  11   3   34.10    1.60
   1  11   3   33.90    3.10
   1  11   3   28.60    1.60
   2  11   3    7.50    1.80
   2  11   3    5.00    0.90
   3  11   3    8.50    2.10
   3  11   3    9.00    1.20
   3  11   3    8.70    1.20
   0  12   3    2.90    0.70
   1  12   3   13.60    1.20
   2  12   3   -1.60    1.60
   2  12   3    0.20    0.70
   1  10  -4    8.20    0.90
  -1 -10   4   10.80    2.10
   0  10  -4    7.50    0.80
   0 -10   4    6.00    1.70
   0 -10   4   10.00    1.80
  -1  10  -4    7.50    0.90
   1 -10   4   10.40    2.60
   1 -10   4    9.80    1.70
   2   9  -4    8.90    1.00
  -2  -9   4    9.00    1.80
   1   9  -4   25.70    1.40
  -1  -9   4   25.60    2.40
  -1  -9   4   29.20    2.70
   0   9  -4    9.40    0.90
   0  -9   4   14.80    2.20
   0  -9   4   12.80    1.70
  -1   9  -4   14.30    1.10
   1  -9   4   19.00    2.50
   1  -9   4   20.60    1.90
  -2   9  -4    9.40    1.10
   2  -9   4   13.20    1.70
   3   8  -4    2.20    0.80
  -3  -8   4    3.80    1.50
   2   8  -4    7.10    0.90
  -2  -8   4    6.80    1.70
   1   8  -4    5.00    0.70
  -1  -8   4    5.60    1.50
  -1  -8   4    7.40    1.40
   0   8  -4   21.20    1.20
   0  -8   4   24.50    2.00
   0  -8   4   24.60    2.30
  -1   8  -4   41.50    1.80
   1  -8   4   49.50    2.60
   1  -8   4   47.10    3.00
  -2   8  -4   16.60    1.40
   2  -8   4   19.50    1.80
  -3   8  -4   31.20    2.00
   3  -8   4   21.80    2.30
   3  -8   4   28.60    2.10
   4   7  -4    1.50    0.90
   4   7  -4   -1.00    1.50
  -4  -7   4   -2.10    1.20
   3   7  -4   12.80    1.30
  -3  -7   4   11.20    1.80
   2   7  -4    6.40    0.80
  -2  -7   4    4.10    1.40
   1   7  -4  142.49    4.20
  -1  -7   4  143.79    5.20
  -1  -7   4  149.99    5.40
   0   7  -4   60.39    2.10
   0  -7   4   59.89    3.20
   0  -7   4   60.59    2.80
  -1   7  -4   53.69    2.00
   1  -7   4   53.99    3.20
   1  -7   4   56.99    2.70
  -2   7  -4   30.70    1.60
   2  -7   4   30.40    2.00
  -3   7  -4   57.59    2.70
   3  -7   4   62.39    2.90
   3  -7   4   59.29    3.20
  -4   7  -4   15.60    1.70
   4  -7   4   22.10    2.30
   4   6  -4    5.50    1.20
   4   6  -4    7.40    2.00
  -4  -6   4    3.40    1.30
   3   6  -4   25.10    1.70
  -3  -6   4   26.20    2.40
   2   6  -4   32.30    1.60
  -2  -6   4   28.20    2.20
  -2  -6   4   31.40    2.30
   1   6  -4   19.60    1.10
  -1  -6   4   20.70    1.90
  -1  -6   4   18.90    1.70
   0   6  -4   22.20    1.10
   0  -6   4   25.30    1.70
   0  -6   4   25.30    2.00
  -1   6  -4   13.20    1.00
   1  -6   4   18.70    1.90
   1  -6   4   17.90    1.50
  -2   6  -4   24.50    1.40
   2  -6   4   32.00    1.80
  -3   6  -4   28.30    1.90
   3  -6   4   34.30    2.30
   3  -6   4   32.10    2.00
  -4   6  -4   28.20    2.10
   4  -6   4   25.10    1.90
   4  -6   4   30.40    2.50
  -5   6  -4   21.00    2.10
   5  -6   4   17.10    2.20
   5   5  -4   -0.10    1.50
   5   5  -4   -0.10    1.00
   4   5  -4    3.90    1.70
   4   5  -4    1.50    0.90
  -4  -5   4    2.50    1.40
   3   5  -4  114.09    3.90
   3   5  -4  112.29    5.20
  -3  -5   4  117.69    4.60
   2   5  -4  158.08    5.70
   2   5  -4  152.28    4.60
  -2  -5   4  155.18    5.30
  -2  -5   4  151.78    5.30
   1   5  -4   23.20    1.70
   1   5  -4   24.90    1.20
  -1  -5   4   21.30    1.70
  -1  -5   4   23.30    1.60
   0   5  -4   25.10    1.30
   0   5  -4   25.60    1.10
   0   5  -4   25.90    1.50
   0  -5   4   23.70    1.60
   0  -5   4   24.10    1.70
  -1   5  -4  333.17    8.80
  -1   5  -4  340.27    9.20
   1  -5   4  340.67    9.30
   1  -5   4  312.77    9.60
  -2   5  -4   81.49    3.00
   2  -5   4   93.69    3.30
   2  -5   4   96.69    3.60
  -3   5  -4   99.09    3.60
   3  -5   4   99.19    3.60
   3  -5   4   97.79    3.60
   3  -5   4   97.19    3.90
  -4   5  -4   22.70    1.90
   4  -5   4   19.50    2.00
  -5   5  -4   41.20    2.70
   5  -5   4   35.20    2.80
   5   4  -4    7.20    1.70
   5   4  -4    6.50    1.30
  -5  -4   4    7.60    0.90
   4   4  -4    6.70    1.70
   4   4  -4    6.00    1.00
   3   4  -4   62.69    2.70
   3   4  -4   62.59    2.50
   3   4  -4   59.19    3.50
  -3  -4   4   59.39    2.90
   2   4  -4  239.98    7.70
   2   4  -4  235.28    6.60
   2   4  -4  232.28    6.60
  -2  -4   4  244.18    7.30
  -2  -4   4  242.18    7.20
  -2  -4   4  226.68    7.10
   1   4  -4   78.29    2.40
   1   4  -4   73.39    2.90
  -1  -4   4   72.39    2.90
  -1  -4   4   70.89    2.90
   0   4  -4   12.10    0.90
   0   4  -4   11.10    0.80
   0   4  -4   10.10    0.80
   0   4  -4   10.80    0.70
   0  -4   4   10.20    1.10
   0  -4   4   10.40    1.00
  -1   4  -4   93.49    2.90
  -1   4  -4   94.79    3.00
  -1   4  -4   94.79    3.00
   1  -4   4   89.39    3.50
   1  -4   4   97.99    3.30
  -2   4  -4   63.89    2.00
  -2   4  -4   60.89    2.30
  -2   4  -4   63.39    2.70
   2  -4   4   65.19    2.60
   2  -4   4   67.09    2.70
   2  -4   4   60.29    2.50
   2  -4   4   60.59    2.40
  -3   4  -4  121.29    4.00
  -3   4  -4  113.89    4.70
   3  -4   4  119.79    4.00
   3  -4   4  115.69    4.30
   3  -4   4  119.89    4.30
  -4   4  -4   35.30    2.20
   4  -4   4   37.70    2.40
  -5   4  -4   26.00    2.30
   5  -4   4   25.70    2.30
   5   3  -4    5.10    1.20
   5   3  -4    6.70    1.70
  -5  -3   4    6.80    1.20
   4   3  -4   18.40    1.60
   4   3  -4   18.10    2.20
  -4  -3   4   16.60    1.40
   3   3  -4   18.90    2.00
   3   3  -4   17.10    1.30
   3   3  -4   19.70    1.60
  -3  -3   4   17.90    1.10
  -3  -3   4   17.30    1.90
   2   3  -4    1.10    0.70
   2   3  -4    0.50    0.40
   2   3  -4    0.80    0.60
   2   3  -4    0.40    0.50
  -2  -3   4    0.90    0.50
  -2  -3   4    0.70    0.70
  -2  -3   4   -0.60    0.60
   1   3  -4    2.70    0.60
   1   3  -4    2.50    0.50
   1   3  -4    3.10    0.50
  -1  -3   4    2.10    0.50
  -1  -3   4    1.60    0.50
  -1  -3   4    1.70    0.60
   0   3  -4  186.48    4.70
   0   3  -4  170.88    4.80
   0   3  -4  176.08    4.80
   0   3  -4  183.68    5.00
   0  -3   4  175.28    5.20
   0  -3   4  179.68    5.40
  -1   3  -4    8.20    0.80
  -1   3  -4    8.20    0.60
  -1   3  -4    8.90    0.80
   1  -3   4    8.00    0.90
   1  -3   4    9.60    1.10
   1  -3   4    8.60    0.80
  -2   3  -4   35.90    1.60
  -2   3  -4   31.10    1.70
  -2   3  -4   35.70    1.40
   2  -3   4   33.80    1.60
   2  -3   4   33.00    1.80
   2  -3   4   35.50    1.70
  -3   3  -4    4.10    0.80
  -3   3  -4    4.60    1.00
   3  -3   4    3.20    0.80
   3  -3   4    3.20    0.80
   3  -3   4    4.30    0.90
  -4   3  -4   48.80    2.60
   4  -3   4   52.79    2.60
   4  -3   4   45.30    2.20
   4  -3   4   41.30    2.80
  -5   3  -4   37.60    2.50
   5  -3   4   36.80    2.40
   5  -3   4   33.90    1.40
  -6   3  -4    5.80    1.50
   6  -3   4   10.70    1.70
   5   2  -4    8.30    1.60
  -5  -2   4    8.90    1.40
   4   2  -4   64.79    2.80
   4   2  -4   62.59    2.90
   4   2  -4   68.39    3.50
  -4  -2   4   68.69    2.70
   3   2  -4   27.30    1.60
   3   2  -4   26.80    1.70
   3   2  -4   23.40    2.20
   3   2  -4   25.70    1.50
  -3  -2   4   24.60    1.40
  -3  -2   4   25.50    2.10
   2   2  -4  115.69    4.50
   2   2  -4  126.99    3.80
   2   2  -4  119.59    3.80
   2   2  -4  124.39    3.90
  -2  -2   4  127.99    3.60
  -2  -2   4  125.89    4.50
  -2  -2   4  121.99    4.00
   1   2  -4  106.49    3.20
   1   2  -4  100.19    3.50
   1   2  -4  115.29    3.30
   1   2  -4  105.49    3.20
  -1  -2   4  108.29    3.50
  -1  -2   4  108.09    3.10
  -1  -2   4  108.79    3.00
  -1  -2   4  108.59    3.50
  -1  -2   4  105.49    3.40
   0   2  -4  438.56   11.10
   0   2  -4  416.26   11.00
   0  -2   4  434.66   11.30
   0  -2   4  431.26   11.50
   0  -2   4  446.66   11.50
  -1   2  -4   68.29    2.00
  -1   2  -4   65.69    1.90
  -1   2  -4   67.69    2.20
   1  -2   4   62.39    2.50
   1  -2   4   69.39    1.80
   1  -2   4   67.29    2.50
  -2   2  -4   32.00    1.70
  -2   2  -4   34.10    1.50
  -2   2  -4   32.90    1.50
  -2   2  -4   33.00    1.40
   2  -2   4   31.70    1.60
   2  -2   4   33.40    1.60
   2  -2   4   33.10    1.60
   2  -2   4   33.70    1.10
  -3   2  -4   28.80    1.70
  -3   2  -4   28.40    1.60
  -3   2  -4   29.00    1.90
   3  -2   4   28.80    1.20
   3  -2   4   31.70    1.60
   3  -2   4   25.10    1.80
   3  -2   4   25.00    1.60
  -4   2  -4    9.90    1.30
   4  -2   4    9.80    1.20
   4  -2   4   10.40    1.00
   4  -2   4    9.10    1.10
   4  -2   4    9.00    1.50
  -5   2  -4    6.70    1.20
   5  -2   4    6.60    1.00
   5  -2   4    6.30    1.30
  -6   2  -4    9.90    2.60
   6  -2   4   10.30    1.30
   6  -2   4    9.40    1.70
   6   1  -4    6.30    1.90
  -6  -1   4    4.80    1.60
   5   1  -4   16.10    1.90
  -5  -1   4   16.50    1.80
   4   1  -4    4.20    1.00
   4   1  -4    4.90    1.10
   4   1  -4    4.80    1.10
  -4  -1   4    3.50    0.80
   3   1  -4   24.10    1.50
   3   1  -4   24.50    1.40
   3   1  -4   24.40    2.10
   3   1  -4   24.20    1.60
  -3  -1   4   26.10    2.20
  -3  -1   4   23.40    1.40
   2   1  -4  188.78    5.40
   2   1  -4  188.08    6.10
   2   1  -4  182.98    5.40
   2   1  -4  176.78    5.30
  -2  -1   4  178.08    5.40
  -2  -1   4  192.58    6.20
  -2  -1   4  196.88    5.40
  -2  -1   4  187.68    5.20
   1   1  -4   42.00    1.80
   1   1  -4   42.70    1.60
   1   1  -4   48.90    1.70
   1   1  -4   45.10    1.60
  -1  -1   4   45.10    1.90
  -1  -1   4   43.80    1.70
  -1  -1   4   44.60    1.90
   0   1  -4   51.99    1.90
   0   1  -4   50.89    1.40
   0   1  -4   53.89    1.80
   0  -1   4   53.89    1.90
   0  -1   4   51.09    1.90
   0  -1   4   50.49    1.80
   0  -1   4   51.49    1.50
  -1   1  -4  249.48    6.50
  -1   1  -4  264.27    7.00
  -1   1  -4  266.77    6.90
   1  -1   4  256.97    7.10
   1  -1   4  252.97    6.60
   1  -1   4  260.97    7.10
   1  -1   4  249.68    6.60
  -2   1  -4    4.10    0.60
  -2   1  -4    3.90    0.70
  -2   1  -4    4.30    0.70
  -2   1  -4    5.00    0.60
   2  -1   4    4.00    0.60
   2  -1   4    4.00    0.70
   2  -1   4    3.40    0.60
   2  -1   4    4.40    0.50
  -3   1  -4   98.79    3.40
  -3   1  -4   91.09    3.80
  -3   1  -4   93.79    3.30
   3  -1   4   92.89    3.00
   3  -1   4   96.69    3.40
   3  -1   4   90.39    3.20
   3  -1   4   97.19    3.90
  -4   1  -4    8.00    1.20
  -4   1  -4    5.30    1.30
  -4   1  -4    7.70    1.10
   4  -1   4    6.30    1.40
   4  -1   4    6.20    0.90
   4  -1   4    9.00    1.10
   4  -1   4    7.10    1.00
  -5   1  -4    3.00    1.10
  -5   1  -4    1.10    0.90
   5  -1   4    2.50    0.90
   5  -1   4    1.90    0.80
   5  -1   4    2.10    0.90
  -6   1  -4    2.60    1.50
   6  -1   4    3.80    1.20
   6  -1   4    5.90    1.40
   6   0  -4    6.90    1.90
  -6   0   4    8.20    1.80
   5   0  -4   17.80    1.90
  -5   0   4   15.30    1.80
   4   0  -4   36.50    2.10
  -4   0   4   37.70    2.10
   3   0  -4   39.30    2.00
   3   0  -4   43.50    1.90
   3   0  -4   45.00    2.80
  -3   0   4   41.50    2.00
  -3   0   4   40.60    1.90
  -3   0   4   38.00    1.80
  -3   0   4   42.30    2.80
   2   0  -4    8.40    0.90
   2   0  -4    7.90    1.10
   2   0  -4    7.10    0.70
  -2   0   4    7.10    0.80
  -2   0   4    7.40    0.80
  -2   0   4    7.00    1.10
   1   0  -4  161.28    4.50
   1   0  -4  157.08    4.80
   1   0  -4  160.48    4.40
  -1   0   4  157.08    4.50
  -1   0   4  148.79    4.80
  -1   0   4  151.28    4.40
  -1   0   4  162.48    4.40
   0   0  -4  463.35   12.10
   0   0  -4  480.95   11.90
   0   0  -4  483.85   12.20
   0   0   4  468.05   12.00
   0   0   4  478.25   12.10
   0   0   4  464.15   11.90
   0   0   4  481.65   12.20
   0   0   4  464.75   12.20
   0   0   4  467.35   12.00
   0   0   4  463.75   11.90
  -1   0  -4   56.09    2.00
  -1   0  -4   55.99    1.90
   1   0   4   54.19    1.70
   1   0   4   51.09    1.80
   1   0   4   51.59    2.00
   1   0   4   53.39    1.90
   1   0   4   55.29    2.00
   1   0   4   52.29    1.80
  -2   0  -4    4.40    0.70
  -2   0  -4    4.50    0.80
  -2   0  -4    3.40    0.60
   2   0   4    3.10    0.60
   2   0   4    3.90    0.70
   2   0   4    3.80    0.60
   2   0   4    3.90    0.60
   2   0   4    3.80    0.80
  -3   0  -4   11.90    1.10
  -3   0  -4   12.80    1.30
  -3   0  -4   13.00    1.40
   3   0   4   13.10    1.00
   3   0   4   10.80    1.00
   3   0   4   12.00    1.10
   3   0   4   12.40    0.90
   3   0   4   12.00    1.50
   3   0   4   13.00    1.20
   3   0   4   12.10    1.10
  -4   0  -4   25.00    1.70
  -4   0  -4   25.20    2.60
  -4   0  -4   19.70    1.80
   4   0   4   24.80    1.50
   4   0   4   22.50    1.40
   4   0   4   22.00    2.30
   4   0   4   23.70    1.80
   4   0   4   24.60    1.70
  -5   0  -4    3.50    1.00
  -5   0  -4    3.80    1.20
   5   0   4    5.20    1.10
   5   0   4    5.40    1.10
   5   0   4    3.20    0.90
   5   0   4    3.90    0.90
  -6   0  -4   -0.60    1.10
   6   0   4   -1.30    1.10
   6  -1  -4   21.80    2.70
   6  -1  -4   22.60    2.50
  -6   1   4   16.10    2.10
   5  -1  -4   15.60    1.90
  -5   1   4   12.30    1.70
   4  -1  -4   88.29    3.50
  -4   1   4   89.99    3.40
   3  -1  -4   58.19    2.30
   3  -1  -4   60.09    2.40
   3  -1  -4   58.99    3.30
  -3   1   4   60.39    2.50
   2  -1  -4  151.68    4.30
   2  -1  -4  147.59    4.40
   2  -1  -4  153.98    5.20
  -2   1   4  149.19    4.50
  -2   1   4  140.89    4.40
  -2   1   4  140.99    5.20
   1  -1  -4  386.56   10.50
   1  -1  -4  406.26   11.00
   1  -1  -4  410.06   10.50
  -1   1   4  394.86   10.30
  -1   1   4  412.56   10.50
  -1   1   4  429.86   11.20
  -1   1   4  408.16   10.60
  -1   1   4  412.86   10.50
  -1   1   4  390.36   10.40
   0  -1  -4   44.00    1.60
   0  -1  -4   46.20    1.70
   0  -1  -4   41.10    1.60
   0   1   4   44.50    1.70
   0   1   4   43.90    1.60
   0   1   4   41.60    1.50
   0   1   4   42.10    1.60
   0   1   4   45.40    1.50
  -1  -1  -4   44.10    1.70
  -1  -1  -4   43.50    1.70
   1   1   4   48.30    1.80
   1   1   4   47.20    1.60
   1   1   4   43.00    1.60
   1   1   4   43.00    1.80
   1   1   4   48.00    1.80
  -2  -1  -4  176.68    5.20
  -2  -1  -4  198.08    5.60
  -2  -1  -4  178.58    5.40
   2   1   4  186.98    5.20
   2   1   4  183.98    5.30
   2   1   4  179.38    5.20
   2   1   4  182.78    5.70
   2   1   4  180.98    5.50
  -3  -1  -4  100.39    4.00
  -3  -1  -4   99.89    3.40
  -3  -1  -4   97.19    3.50
   3   1   4   92.89    3.30
   3   1   4   95.29    3.30
   3   1   4   98.29    4.10
   3   1   4   98.49    3.00
   3   1   4  100.19    3.40
   3   1   4   99.59    3.30
   3   1   4   94.79    3.60
  -4  -1  -4   27.00    1.70
  -4  -1  -4   26.30    1.90
   4   1   4   29.20    1.80
   4   1   4   26.10    1.80
   4   1   4   27.60    1.80
   4   1   4   26.60    1.80
   4   1   4   25.70    2.30
   4   1   4   24.90    1.40
   4   1   4   28.10    1.80
  -5  -1  -4   -0.10    0.90
   5   1   4   -1.10    0.90
   5   1   4   -0.70    0.90
   5   1   4   -0.10    0.80
   5   1   4    0.20    0.60
  -6  -1  -4   -0.90    1.20
   6   1   4    0.30    1.30
   6   1   4    1.80    1.10
   6  -2  -4   10.00    2.00
   6  -2  -4    7.50    1.80
  -6   2   4    4.30    1.60
   5  -2  -4   17.70    1.80
  -5   2   4   19.50    1.90
   4  -2  -4   69.69    2.90
  -4   2   4   65.49    2.80
  -4   2   4   64.99    3.00
   3  -2  -4  135.69    4.40
   3  -2  -4  139.59    5.50
  -3   2   4  139.59    4.50
   2  -2  -4  349.67   10.30
   2  -2  -4  344.87    9.30
   2  -2  -4  349.27    9.40
  -2   2   4  349.87   10.50
  -2   2   4  359.76    9.50
   1  -2  -4  272.97    7.70
   1  -2  -4  261.87    7.10
   1  -2  -4  264.37    7.10
  -1   2   4  264.27    7.80
  -1   2   4  269.77    7.10
  -1   2   4  275.77    6.80
  -1   2   4  264.97    7.00
  -1   2   4  265.77    7.20
   0  -2  -4 1051.49   27.40
   0  -2  -4 1082.99   27.80
   0  -2  -4 1098.89   27.50
   0   2   4 1111.59   27.60
   0   2   4 1094.89   27.60
   0   2   4 1162.28   27.90
   0   2   4 1111.99   27.50
   0   2   4 1098.49   27.30
  -1  -2  -4  133.69    3.70
  -1  -2  -4  125.99    3.40
  -1  -2  -4  122.49    3.70
   1   2   4  130.89    3.70
   1   2   4  132.09    4.00
   1   2   4  126.19    4.00
   1   2   4  124.49    3.80
  -2  -2  -4   17.40    1.10
  -2  -2  -4   18.70    1.20
  -2  -2  -4   17.70    1.30
   2   2   4   19.10    1.50
   2   2   4   18.10    1.20
   2   2   4   18.20    1.10
   2   2   4   17.00    1.10
   2   2   4   18.70    1.30
  -3  -2  -4   73.49    2.70
  -3  -2  -4   68.49    2.80
  -3  -2  -4   68.39    3.20
   3   2   4   76.59    3.60
   3   2   4   70.89    2.70
   3   2   4   73.49    2.70
   3   2   4   73.99    2.70
   3   2   4   74.49    2.30
   3   2   4   78.79    2.80
   3   2   4   73.29    3.10
  -4  -2  -4    7.30    1.40
  -4  -2  -4    6.90    1.20
   4   2   4    7.40    0.80
   4   2   4    8.50    1.40
   4   2   4    5.90    1.10
   4   2   4    7.20    1.10
   4   2   4    7.90    1.10
   4   2   4    6.90    1.10
   4   2   4    9.70    1.70
  -5  -2  -4    7.60    1.40
   5   2   4    5.80    1.40
   5   2   4    4.60    1.20
  -6  -2  -4    2.40    1.50
   6   2   4    3.80    1.60
   6   2   4    1.40    1.20
   5  -3  -4    9.50    1.80
   5  -3  -4    6.30    1.40
  -5   3   4    7.70    1.40
   4  -3  -4   50.89    2.50
  -4   3   4   50.89    2.60
   3  -3  -4   91.89    4.30
   3  -3  -4   92.39    3.20
  -3   3   4   90.09    3.30
   2  -3  -4  339.07    9.00
   2  -3  -4  340.77   10.10
  -2   3   4  344.67    9.20
  -2   3   4  331.07   10.30
   1  -3  -4  171.08    5.40
   1  -3  -4  165.28    4.60
  -1   3   4  162.88    5.50
  -1   3   4  175.68    4.50
  -1   3   4  167.68    4.80
   0  -3  -4  589.14   15.10
   0  -3  -4  581.94   15.80
   0   3   4  605.84   15.30
   0   3   4  611.44   15.80
   0   3   4  609.54   15.30
   0   3   4  609.84   15.40
  -1  -3  -4  506.25   12.90
   1   3   4  521.65   13.00
   1   3   4  515.65   13.10
   1   3   4  508.25   13.40
   1   3   4  480.75   13.50
  -2  -3  -4  117.69    4.00
  -2  -3  -4  125.39    3.80
  -2  -3  -4  130.49    4.30
   2   3   4  119.29    4.30
   2   3   4  128.39    3.80
   2   3   4  123.69    4.50
   2   3   4  136.19    3.90
   2   3   4  125.09    3.90
  -3  -3  -4   12.90    1.20
  -3  -3  -4   13.00    1.10
  -3  -3  -4   12.50    1.50
   3   3   4   16.30    1.20
   3   3   4   14.00    1.30
   3   3   4   16.20    1.70
   3   3   4   15.50    1.50
   3   3   4   12.60    1.20
  -4  -3  -4   36.60    2.10
   4   3   4   36.90    2.10
   4   3   4   31.50    2.70
   4   3   4   37.20    2.10
   4   3   4   35.80    2.00
   4   3   4   35.10    2.40
   4   3   4   35.60    2.10
  -5  -3  -4    1.20    0.90
   5   3   4    1.50    0.90
   5   3   4   -0.80    1.10
   5   3   4    1.10    1.10
   5   3   4    1.20    1.20
  -6  -3  -4    6.00    1.70
   6   3   4    7.20    1.70
   6   3   4   12.10    2.00
   5  -4  -4    3.80    1.20
   5  -4  -4    6.90    1.60
  -5   4   4    4.60    1.30
   4  -4  -4   12.80    1.80
   4  -4  -4   11.70    1.20
  -4   4   4   13.30    1.50
   3  -4  -4   54.79    2.10
  -3   4   4   44.90    2.30
   2  -4  -4   19.50    1.70
   2  -4  -4   21.30    1.00
  -2   4   4   20.00    1.10
  -2   4   4   21.20    1.30
  -2   4   4   18.70    2.00
   1  -4  -4  134.79    3.60
   1  -4  -4  129.79    3.50
   1  -4  -4  129.59    4.60
  -1   4   4  133.59    3.80
  -1   4   4  134.39    3.70
  -1   4   4  133.69    4.80
  -1   4   4  134.79    4.00
   0  -4  -4  317.57    8.00
   0  -4  -4  313.17    8.00
   0  -4  -4  317.17    9.10
   0   4   4  321.77    8.10
   0   4   4  331.67    8.70
   0   4   4  325.37    8.50
   0   4   4  328.07    9.20
  -1  -4  -4  310.97    7.80
  -1  -4  -4  305.57    7.80
   1   4   4  305.57    8.20
   1   4   4  316.77    8.90
   1   4   4  309.47    8.70
   1   4   4  301.67    8.30
   1   4   4  311.77    8.90
  -2  -4  -4 2238.28   55.59
  -2  -4  -4 2173.98   55.69
   2   4   4 2296.97   55.99
   2   4   4 2363.06   55.99
   2   4   4 2360.36   57.09
   2   4   4 2242.38   56.09
   2   4   4 2108.29   56.59
  -3  -4  -4  101.79    3.30
   3   4   4   98.19    3.40
   3   4   4  100.29    3.50
   3   4   4  102.69    4.10
   3   4   4  102.49    3.50
   3   4   4   95.49    4.40
  -4  -4  -4   11.30    1.30
   4   4   4   12.20    1.30
   4   4   4   13.00    1.40
   4   4   4   10.20    1.30
   4   4   4   14.80    1.50
   4   4   4   12.50    1.70
  -5  -4  -4    3.20    1.10
   5   4   4    2.10    1.10
   5   4   4    4.10    1.30
   5   4   4    2.30    1.20
   5   4   4    2.00    1.10
  -6  -4  -4    0.70    1.30
   6   4   4    0.50    1.20
   6   4   4    0.90    1.50
   5  -5  -4   15.10    2.30
   5  -5  -4   16.90    1.20
  -5   5   4   14.10    1.90
   4  -5  -4    8.60    1.70
   4  -5  -4    9.30    0.80
  -4   5   4   12.40    1.50
   3  -5  -4   19.70    1.90
  -3   5   4   19.40    1.50
   2  -5  -4  215.18    6.90
   2  -5  -4  216.38    7.30
  -2   5   4  226.28    6.30
   1  -5  -4  160.48    5.00
   1  -5  -4  154.28    5.40
  -1   5   4  154.18    4.60
  -1   5   4  156.88    5.60
  -1   5   4  163.48    4.40
   0  -5  -4  249.38    6.90
   0   5   4  249.28    7.60
   0   5   4  241.98    6.70
   0   5   4  243.48    7.00
   0   5   4  253.37    6.40
  -1  -5  -4  158.88    4.30
   1   5   4  153.98    4.60
   1   5   4  149.39    5.00
   1   5   4  162.88    5.40
   1   5   4  161.78    5.30
   2   5   4   13.70    1.50
   2   5   4   15.10    1.20
   2   5   4   16.90    1.10
   2   5   4   15.80    1.10
   2   5   4   14.80    1.70
  -3  -5  -4   50.89    1.70
   3   5   4   48.10    3.00
   3   5   4   55.29    2.40
   3   5   4   51.19    2.90
   3   5   4   43.90    2.20
   3   5   4   46.60    2.20
  -4  -5  -4   15.60    1.30
   4   5   4   16.00    2.00
   4   5   4   16.40    1.60
   4   5   4   16.00    1.50
   4   5   4   18.30    1.70
  -5  -5  -4    1.90    1.00
   5   5   4    2.60    1.20
   5   5   4    1.50    1.00
   5   5   4    3.50    1.40
  -6  -5  -4   12.30    1.70
   6   5   4   15.60    2.60
   5  -6  -4    7.30    1.90
  -5   6   4    7.30    1.60
   4  -6  -4    3.30    1.30
  -4   6   4    2.80    1.10
   3  -6  -4   10.80    1.60
  -3   6   4   11.60    1.30
   2  -6  -4   15.50    1.60
  -2   6   4   13.30    1.20
   1  -6  -4   58.19    2.60
   1  -6  -4   57.39    3.00
  -1   6   4   56.79    2.00
  -1   6   4   58.69    2.10
   0  -6  -4   17.30    1.20
   0   6   4   19.70    1.80
   0   6   4   18.30    1.00
   0   6   4   15.40    1.20
   0   6   4   16.60    1.00
  -1  -6  -4  136.49    3.90
   1   6   4  138.39    5.10
   1   6   4  143.09    4.20
   1   6   4  141.79    4.10
   1   6   4  135.49    4.80
   1   6   4  142.29    5.10
  -2  -6  -4   31.10    1.20
   2   6   4   32.60    1.70
   2   6   4   30.10    1.50
   2   6   4   32.60    2.40
   2   6   4   32.20    2.20
   3   6   4   38.70    2.60
   3   6   4   38.90    2.10
   3   6   4   39.30    2.00
   4   6   4   54.19    2.70
   4   6   4   56.49    2.70
   4   6   4   53.39    3.60
  -5  -6  -4   13.20    1.10
   5   6   4   13.30    1.70
   5   6   4   11.80    2.10
   5   6   4   13.00    1.70
  -6  -6  -4    2.20    0.90
   6   6   4    6.20    1.50
   6   6   4    2.80    1.50
   6   6   4    4.70    2.00
   4  -7  -4    5.80    1.50
  -4   7   4    5.80    1.30
   3  -7  -4    4.70    1.30
  -3   7   4    4.70    1.00
   2  -7  -4   12.10    1.50
  -2   7   4   10.00    1.00
   1  -7  -4    6.70    1.10
  -1   7   4    6.60    0.80
   0  -7  -4  159.68    5.00
   0   7   4  164.08    4.60
   0   7   4  158.08    5.20
  -1  -7  -4   93.69    3.00
   1   7   4  100.29    4.00
   1   7   4   99.29    3.20
   2   7   4   82.99    2.90
   2   7   4   84.99    3.00
   2   7   4   82.49    3.90
   3   7   4   28.70    1.70
   3   7   4   27.70    1.80
   3   7   4   28.90    2.50
   4   7   4    6.30    1.20
   4   7   4    6.60    1.90
   4   7   4    5.50    1.10
   5   7   4   16.80    1.90
   5   7   4   13.90    1.80
   5   7   4   13.00    2.30
   6   7   4    3.80    1.80
   6   7   4    3.30    1.40
   6   7   4    7.60    1.70
   4  -8  -4    5.90    1.70
  -4   8   4    5.90    1.30
   3  -8  -4    4.90    1.40
  -3   8   4    6.40    1.10
   2  -8  -4    1.70    1.00
  -2   8   4    1.80    0.70
   1  -8  -4    8.30    1.20
  -1   8   4    7.90    0.80
   0  -8  -4   10.60    1.20
   0   8   4   13.50    1.40
   0   8   4   10.50    0.90
   1   8   4   18.60    1.30
   1   8   4   20.40    2.00
   2   8   4   29.80    1.60
   2   8   4   31.00    2.40
   2   8   4   26.10    1.60
   3   8   4   24.90    2.70
   3   8   4   18.70    1.60
   3   8   4   17.60    1.50
   4   8   4   17.30    1.70
   4   8   4   18.00    2.50
   4   8   4   18.70    1.70
   5   8   4   10.80    1.80
   5   8   4    6.20    1.50
   5   8   4    9.40    2.50
   3  -9  -4    0.60    1.10
  -3   9   4    0.40    0.80
   2  -9  -4    2.80    1.10
  -2   9   4    1.90    0.70
   1  -9  -4    0.10    0.80
  -1   9   4    1.10    0.50
   0  -9  -4    2.60    0.80
   0   9   4    0.80    0.50
   0   9   4    1.70    0.80
   1   9   4    8.90    1.00
   1   9   4   10.70    1.60
   2   9   4    2.70    1.30
   2   9   4    1.60    0.60
   2   9   4    1.40    0.70
   3   9   4    8.10    1.10
   3   9   4   12.70    2.30
   3   9   4    8.60    1.10
   4   9   4    6.90    1.30
   4   9   4    9.70    1.40
   4   9   4   10.70    2.30
   5   9   4    5.00    1.40
   5   9   4    2.10    1.10
   5   9   4    3.60    2.10
   3 -10  -4    2.90    1.40
  -3  10   4    4.30    1.10
   2 -10  -4    7.40    1.60
  -2  10   4    6.70    1.00
   1 -10  -4    1.50    0.90
  -1  10   4    0.00    0.50
   0  10   4    1.10    0.60
   1  10   4    2.00    0.70
   1  10   4    1.70    1.10
   2  10   4    4.10    0.90
   2  10   4    6.30    1.60
   3  10   4    7.00    1.10
   3  10   4    5.40    1.90
   3  10   4    6.40    1.10
   4  10   4    0.60    1.00
   4  10   4   -1.10    1.60
   4  10   4    1.00    0.90
   2 -11  -4    2.30    1.30
  -2  11   4    1.80    0.90
  -1  11   4    0.20    0.70
   0  11   4    3.60    0.80
   1  11   4   23.20    2.70
   1  11   4   19.00    1.50
   2  11   4    0.90    0.70
   2  11   4    0.40    1.50
   3  11   4    2.40    0.90
   3  11   4    3.40    1.90
   3  11   4    1.60    0.90
   0  12   4    0.00    0.70
   1  12   4    4.50    0.90
   2  12   4    2.80    0.90
   2  12   4    3.60    2.00
   2   9  -5    8.00    1.10
   1   9  -5   15.50    1.40
  -1  -9   5   19.50    2.30
  -1  -9   5   17.90    2.40
   0   9  -5   16.10    1.30
   0  -9   5   14.60    2.00
   0  -9   5   19.40    2.50
  -1   9  -5   -0.80    0.60
   1  -9   5   -0.20    1.50
   1  -9   5    1.30    1.10
   2  -9   5   19.70    2.10
   3   8  -5    0.30    0.80
   2   8  -5   17.00    1.40
  -2  -8   5   14.10    2.00
   1   8  -5   16.40    1.30
  -1  -8   5   22.80    2.30
  -1  -8   5   17.30    2.10
   0   8  -5   21.00    1.30
   0  -8   5   25.70    2.50
   0  -8   5   20.80    2.10
  -1   8  -5    5.50    0.90
   1  -8   5    7.50    1.80
   1  -8   5    7.50    1.30
  -2   8  -5   14.20    1.40
   2  -8   5   21.90    2.00
  -3   8  -5    0.40    0.90
   3  -8   5    1.10    1.00
   3   7  -5    1.40    0.80
  -3  -7   5    1.40    1.30
   2   7  -5    5.50    0.90
  -2  -7   5    2.80    1.40
  -2  -7   5    5.80    1.50
   1   7  -5    5.10    0.80
  -1  -7   5    7.40    1.40
  -1  -7   5    6.80    1.30
   0   7  -5   10.60    0.90
   0  -7   5   10.70    1.60
   0  -7   5   11.00    1.50
  -1   7  -5   18.10    1.30
   1  -7   5   24.40    1.90
   1  -7   5   23.10    2.50
  -2   7  -5   17.50    1.40
   2  -7   5   16.50    1.70
  -3   7  -5    9.30    1.30
   3  -7   5   11.20    1.40
  -4   7  -5   11.80    1.60
   4  -7   5   14.10    1.80
   4  -7   5   11.90    1.80
   4   6  -5   -0.70    0.90
  -4  -6   5   -0.10    1.10
   3   6  -5    8.50    1.20
  -3  -6   5    6.00    1.60
   2   6  -5    0.90    0.60
  -2  -6   5    0.70    0.80
  -2  -6   5    0.70    1.00
   1   6  -5    2.00    0.60
  -1  -6   5    2.10    0.90
  -1  -6   5    1.00    0.90
   0   6  -5   61.79    2.30
   0  -6   5   64.29    3.00
   0  -6   5   65.49    3.20
  -1   6  -5    9.80    0.90
   1  -6   5   12.70    1.80
   1  -6   5   11.60    1.40
  -2   6  -5   16.30    1.30
   2  -6   5   15.30    2.10
   2  -6   5   19.50    1.50
  -3   6  -5   25.80    1.80
   3  -6   5   28.20    2.00
  -4   6  -5   23.20    2.00
   4  -6   5   18.00    2.10
   4  -6   5   19.20    1.90
   4   5  -5    2.80    1.00
  -4  -5   5    1.60    1.20
   3   5  -5    6.20    1.00
  -3  -5   5    3.40    1.40
   2   5  -5   63.89    2.50
  -2  -5   5   62.99    3.10
  -2  -5   5   59.29    3.00
   1   5  -5    1.80    0.60
  -1  -5   5    1.20    0.80
  -1  -5   5    1.50    0.90
   0   5  -5   13.20    1.00
   0  -5   5   14.40    1.60
   0  -5   5   14.70    1.50
  -1   5  -5   47.20    1.90
   1  -5   5   50.59    2.30
   1  -5   5   45.60    2.60
  -2   5  -5   32.60    1.70
   2  -5   5   33.90    2.50
   2  -5   5   38.60    2.10
  -3   5  -5    7.40    1.10
   3  -5   5    7.40    1.10
   3  -5   5    9.70    1.30
   3  -5   5    6.70    1.20
  -4   5  -5    9.50    1.40
   4  -5   5   11.40    1.60
  -5   5  -5    2.10    1.40
   5  -5   5    0.80    1.20
   5   4  -5    5.40    1.80
   5   4  -5    2.10    1.20
   4   4  -5   23.30    1.90
  -4  -4   5   26.10    2.20
   3   4  -5   21.70    1.80
   3   4  -5   19.80    1.60
  -3  -4   5   23.00    2.10
   2   4  -5    9.90    1.40
   2   4  -5    9.90    1.00
   2   4  -5    9.60    1.10
  -2  -4   5    9.60    1.40
  -2  -4   5    8.10    1.30
   1   4  -5   31.20    1.70
   1   4  -5   29.50    1.50
   1   4  -5   29.10    1.40
  -1  -4   5   28.90    1.70
  -1  -4   5   27.70    1.90
   0   4  -5    3.30    0.40
   0   4  -5    2.80    0.30
   0   4  -5    2.20    0.50
   0  -4   5    2.00    0.80
   0  -4   5    2.80    0.80
  -1   4  -5   28.90    1.40
   1  -4   5   31.10    1.70
   1  -4   5   32.40    1.90
  -2   4  -5   89.39    3.10
   2  -4   5   84.79    3.80
   2  -4   5   89.39    3.40
   2  -4   5   88.39    3.30
  -3   4  -5  184.48    5.80
   3  -4   5  186.38    5.90
   3  -4   5  188.48    6.10
  -4   4  -5   11.90    1.40
   4  -4   5   13.20    1.40
   4  -4   5   10.00    1.40
  -5   4  -5    5.20    1.40
   5  -4   5    4.60    1.30
   5   3  -5    4.70    1.30
  -5  -3   5    6.50    1.30
   4   3  -5   26.40    1.90
  -4  -3   5   30.90    1.70
   3   3  -5   16.50    1.40
   3   3  -5   19.30    1.70
   3   3  -5   18.90    2.00
  -3  -3   5   15.90    1.80
  -3  -3   5   18.70    1.20
   2   3  -5  192.18    6.40
   2   3  -5  192.38    5.60
   2   3  -5  198.28    5.70
  -2  -3   5  191.68    6.10
  -2  -3   5  190.08    6.00
  -2  -3   5  188.68    6.20
   1   3  -5   28.20    1.40
   1   3  -5   30.40    1.50
   1   3  -5   29.20    1.40
  -1  -3   5   28.60    1.40
  -1  -3   5   28.00    1.60
  -1  -3   5   28.00    1.70
   0   3  -5    4.50    0.50
   0   3  -5    4.60    0.60
   0  -3   5    4.40    0.80
   0  -3   5    3.60    0.70
  -1   3  -5    2.10    0.50
  -1   3  -5    1.30    0.50
   1  -3   5    1.20    0.60
   1  -3   5    2.20    0.80
   1  -3   5    2.00    0.60
  -2   3  -5    2.30    0.60
  -2   3  -5    1.10    0.60
   2  -3   5    1.80    0.90
   2  -3   5    0.50    0.60
   2  -3   5    1.10    0.40
  -3   3  -5  284.47   10.60
  -3   3  -5  279.77    8.00
   3  -3   5  273.87    8.10
   3  -3   5  268.67    8.00
  -4   3  -5   65.59    3.10
   4  -3   5   67.39    3.00
   4  -3   5   76.29    3.30
  -5   3  -5    3.60    1.20
   5  -3   5    3.70    1.10
  -6   3  -5    1.10    1.30
   6  -3   5    1.90    1.20
   5   2  -5   17.60    2.10
  -5  -2   5   21.70    1.90
   4   2  -5   14.50    1.80
   4   2  -5   16.30    1.60
  -4  -2   5   16.00    1.50
   3   2  -5   36.30    2.00
   3   2  -5   38.70    2.70
   3   2  -5   40.90    2.20
   3   2  -5   39.00    1.90
  -3  -2   5   37.80    1.80
  -3  -2   5   37.00    2.70
   2   2  -5   28.30    1.60
   2   2  -5   29.20    1.50
   2   2  -5   30.40    2.00
   2   2  -5   30.60    1.70
  -2  -2   5   30.60    2.00
  -2  -2   5   29.00    1.30
  -2  -2   5   23.80    1.70
  -2  -2   5   27.60    1.60
   1   2  -5   83.49    2.70
   1   2  -5   79.19    2.80
   1   2  -5   82.59    2.90
   1   2  -5   80.39    2.70
  -1  -2   5   83.39    2.40
  -1  -2   5   83.99    2.60
  -1  -2   5   85.69    3.10
  -1  -2   5   78.59    2.90
  -1  -2   5   89.49    2.90
   0   2  -5   18.70    1.20
   0   2  -5   17.90    1.00
   0  -2   5   17.70    0.70
   0  -2   5   15.70    1.10
   0  -2   5   17.70    1.20
   0  -2   5   16.20    1.10
  -1   2  -5   15.80    1.20
  -1   2  -5   17.10    1.10
   1  -2   5   17.70    1.30
   1  -2   5   19.30    1.30
   1  -2   5   15.80    1.10
   1  -2   5   17.20    0.60
  -2   2  -5   20.30    1.40
  -2   2  -5   18.70    1.30
  -2   2  -5   19.30    1.20
   2  -2   5   19.80    0.80
   2  -2   5   19.20    1.10
   2  -2   5   20.00    1.40
  -3   2  -5    0.90    0.80
  -3   2  -5   -0.20    0.70
  -3   2  -5   -0.50    0.50
   3  -2   5    0.20    0.60
   3  -2   5    0.00    0.60
   3  -2   5    0.90    0.60
   3  -2   5    0.60    0.50
  -4   2  -5   -0.30    0.80
  -4   2  -5    0.70    0.80
   4  -2   5   -0.60    0.70
   4  -2   5   -0.40    0.60
   4  -2   5   -1.00    0.80
   4  -2   5   -0.30    0.70
  -5   2  -5    0.90    1.10
   5  -2   5   -0.20    0.90
   5  -2   5    0.00    0.70
   5  -2   5   -1.00    0.70
   6  -2   5    1.00    0.90
   6  -2   5   -0.20    1.00
   5   1  -5   26.60    2.60
  -5  -1   5   22.80    2.10
   4   1  -5    1.10    0.90
   4   1  -5    1.90    0.80
  -4  -1   5    3.50    1.00
   3   1  -5   78.89    3.00
   3   1  -5   83.39    3.20
   3   1  -5   81.99    4.00
   3   1  -5   85.89    3.20
  -3  -1   5   78.69    2.90
  -3  -1   5   82.59    4.60
   2   1  -5   26.20    1.50
   2   1  -5   30.40    1.50
   2   1  -5   29.10    1.90
   2   1  -5   28.00    1.60
  -2  -1   5   27.70    1.40
  -2  -1   5   27.60    1.50
  -2  -1   5   27.10    1.20
  -2  -1   5   30.60    2.00
   1   1  -5   85.59    2.70
   1   1  -5   83.79    2.80
   1   1  -5   81.19    2.90
  -1  -1   5   87.69    2.80
  -1  -1   5   79.19    3.00
  -1  -1   5   81.89    2.90
   0   1  -5   46.80    1.90
   0   1  -5   46.60    1.80
   0  -1   5   45.70    1.80
   0  -1   5   45.50    1.90
   0  -1   5   46.50    1.90
   0  -1   5   45.80    1.40
  -1   1  -5  183.78    5.30
  -1   1  -5  177.68    5.20
   1  -1   5  178.98    5.30
   1  -1   5  188.08    5.40
   1  -1   5  175.88    4.80
  -2   1  -5  266.07    7.30
  -2   1  -5  265.77    7.40
  -2   1  -5  275.07    7.60
   2  -1   5  252.57    7.40
   2  -1   5  263.57    7.60
   2  -1   5  265.77    7.00
  -3   1  -5   56.99    2.50
  -3   1  -5   53.79    2.30
  -3   1  -5   48.20    2.60
   3  -1   5   53.19    2.20
   3  -1   5   50.99    2.00
   3  -1   5   48.30    2.50
   3  -1   5   53.79    2.40
  -4   1  -5    3.30    1.10
  -4   1  -5    5.40    1.20
  -4   1  -5    4.10    1.10
   4  -1   5    3.40    1.10
   4  -1   5    2.80    0.90
   4  -1   5    4.60    0.90
   4  -1   5    5.20    0.90
  -5   1  -5    1.50    1.00
  -5   1  -5    0.80    1.20
   5  -1   5    2.70    1.00
   5  -1   5    2.00    0.80
   5  -1   5    3.00    1.10
   6  -1   5    2.50    1.20
   5   0  -5   19.40    2.20
  -5   0   5   17.50    1.90
   4   0  -5   72.49    3.10
  -4   0   5   67.79    2.90
   3   0  -5   73.09    2.70
   3   0  -5   67.99    3.60
   3   0  -5   70.29    2.90
  -3   0   5   72.29    2.70
   2   0  -5  131.39    4.20
   2   0  -5  144.79    5.00
   2   0  -5  132.29    4.20
  -2   0   5  148.19    4.40
  -2   0   5  137.69    5.10
  -2   0   5  137.19    4.20
  -2   0   5  134.69    4.20
   1   0  -5  104.69    3.40
   1   0  -5  108.09    3.60
   1   0  -5  108.19    3.30
  -1   0   5  110.39    3.80
  -1   0   5  106.09    3.40
  -1   0   5  112.59    3.50
  -1   0   5  102.39    3.20
  -1   0   5  108.79    3.30
  -1   0   5  105.99    3.40
   0   0  -5  162.18    4.60
   0   0  -5  158.98    4.40
   0   0  -5  160.38    4.70
   0   0   5  165.98    4.40
   0   0   5  161.78    4.70
   0   0   5  170.48    4.70
   0   0   5  156.48    4.50
   0   0   5  160.28    4.60
   0   0   5  159.48    4.70
   0   0   5  157.18    4.40
  -1   0  -5  115.19    3.70
  -1   0  -5  111.89    3.50
   1   0   5  116.09    3.60
   1   0   5  115.69    3.40
   1   0   5  111.99    3.40
   1   0   5  121.49    3.30
   1   0   5  117.99    3.60
   1   0   5  118.89    3.30
   1   0   5  112.79    3.70
  -2   0  -5   12.50    1.00
  -2   0  -5   11.80    1.20
  -2   0  -5   11.10    1.00
   2   0   5   11.20    1.00
   2   0   5   10.40    1.10
   2   0   5   10.40    0.90
   2   0   5   11.10    0.90
   2   0   5   10.30    1.10
  -3   0  -5   23.00    1.50
  -3   0  -5   20.00    1.50
  -3   0  -5   20.60    1.60
   3   0   5   21.00    1.20
   3   0   5   20.10    1.70
   3   0   5   15.50    1.90
   3   0   5   20.80    1.40
   3   0   5   21.90    1.60
   3   0   5   21.90    1.20
  -4   0  -5    7.10    1.40
  -4   0  -5    6.30    1.20
  -4   0  -5    4.40    1.00
   4   0   5    7.10    1.40
   4   0   5    5.30    0.80
   4   0   5    6.60    1.10
   4   0   5    5.60    0.90
   4   0   5    6.60    1.10
  -5   0  -5    4.80    1.30
  -5   0  -5    5.60    1.10
   5   0   5    6.10    1.30
   5   0   5    6.00    1.00
   5   0   5    7.30    1.30
  -6   0  -5    8.50    1.90
   6   0   5   10.70    1.70
   5  -1  -5   13.80    1.90
  -5   1   5   15.80    1.80
   4  -1  -5   26.10    2.00
  -4   1   5   22.80    1.70
   3  -1  -5  127.09    4.20
   3  -1  -5  129.29    5.30
   3  -1  -5  131.69    4.30
  -3   1   5  125.89    4.30
   2  -1  -5   42.10    1.90
   2  -1  -5   42.40    2.40
   2  -1  -5   46.70    1.90
  -2   1   5   45.30    1.90
  -2   1   5   47.20    2.00
  -2   1   5   42.60    2.60
   1  -1  -5  139.99    4.10
   1  -1  -5  143.69    4.20
   1  -1  -5  141.29    4.50
  -1   1   5  140.29    4.00
  -1   1   5  144.49    4.30
  -1   1   5  146.19    4.70
  -1   1   5  136.19    4.00
  -1   1   5  138.89    4.10
  -1   1   5  137.99    4.10
   0  -1  -5  112.19    3.40
   0  -1  -5  108.89    3.30
   0  -1  -5  101.59    3.30
   0   1   5  115.09    3.30
   0   1   5  113.19    3.50
   0   1   5  113.29    3.50
   0   1   5  111.09    3.40
   0   1   5  105.79    3.20
  -1  -1  -5  168.78    4.80
  -1  -1  -5  163.38    4.90
   1   1   5  172.18    4.70
   1   1   5  171.78    4.80
   1   1   5  159.08    4.70
   1   1   5  163.48    4.90
   1   1   5  168.98    4.80
   1   1   5  165.98    5.00
  -2  -1  -5   64.19    2.40
  -2  -1  -5   66.49    2.60
  -2  -1  -5   67.59    2.50
   2   1   5   65.09    2.30
   2   1   5   63.59    2.50
   2   1   5   60.99    2.70
   2   1   5   62.99    2.60
   2   1   5   61.59    2.30
  -3  -1  -5   44.00    2.20
  -3  -1  -5   48.00    2.50
  -3  -1  -5   48.30    2.10
   3   1   5   50.59    2.70
   3   1   5   46.00    2.10
   3   1   5   48.40    2.10
   3   1   5   46.60    2.30
   3   1   5   45.70    2.00
  -4  -1  -5    9.70    1.50
  -4  -1  -5   11.00    1.20
   4   1   5   11.90    1.40
   4   1   5   10.80    1.80
   4   1   5   10.00    1.20
   4   1   5   10.20    1.30
   4   1   5   12.10    1.10
  -5  -1  -5    6.60    1.40
   5   1   5    5.70    1.20
   5   1   5    5.40    1.30
   5   1   5    6.30    1.30
  -6  -1  -5    1.10    1.50
   6   1   5   -1.00    1.00
   6   1   5   -0.40    1.20
   5  -2  -5   35.60    2.60
  -5   2   5   36.50    2.60
   4  -2  -5   21.70    1.90
  -4   2   5   19.30    1.80
   3  -2  -5   55.89    3.30
   3  -2  -5   59.49    2.50
  -3   2   5   59.49    2.60
   2  -2  -5   10.60    0.90
   2  -2  -5   10.30    1.00
   2  -2  -5    8.60    1.30
  -2   2   5    8.20    0.90
  -2   2   5    9.10    1.40
   1  -2  -5  269.67    7.60
   1  -2  -5  262.97    7.10
   1  -2  -5  267.27    7.10
  -1   2   5  260.47    6.80
  -1   2   5  266.57    7.80
  -1   2   5  249.68    7.00
  -1   2   5  255.17    7.00
  -1   2   5  252.97    7.20
   0  -2  -5  244.38    6.70
   0  -2  -5  250.77    6.80
   0  -2  -5  248.98    7.00
   0   2   5  253.47    6.70
   0   2   5  251.37    6.50
   0   2   5  253.27    7.10
   0   2   5  238.38    6.80
   0   2   5  249.68    6.90
  -1  -2  -5  154.18    4.60
  -1  -2  -5  158.38    4.60
   1   2   5  165.38    4.80
   1   2   5  158.98    4.80
   1   2   5  159.58    4.40
   1   2   5  158.78    4.60
   1   2   5  164.48    4.80
   1   2   5  154.88    4.80
  -2  -2  -5  116.29    3.90
  -2  -2  -5  123.59    3.80
  -2  -2  -5  134.99    4.20
   2   2   5  118.49    4.30
   2   2   5  120.89    3.80
   2   2   5  129.79    4.20
   2   2   5  118.89    3.90
  -3  -2  -5  151.08    5.30
  -3  -2  -5  145.49    4.60
  -3  -2  -5  153.38    4.90
   3   2   5  142.59    5.50
   3   2   5  155.28    4.70
   3   2   5  144.09    4.60
   3   2   5  146.99    5.10
   3   2   5  152.88    4.80
   3   2   5  143.39    4.60
  -4  -2  -5  109.39    4.10
   4   2   5  106.29    3.40
   4   2   5  112.79    4.00
   4   2   5  103.79    3.90
   4   2   5  110.59    4.00
   4   2   5  110.99    4.00
   4   2   5  111.69    5.10
   4   2   5  103.79    4.30
  -5  -2  -5   19.30    2.10
   5   2   5   21.40    2.00
   5   2   5   19.50    2.10
  -6  -2  -5   -0.90    1.30
   6   2   5   -0.20    1.10
   6   2   5    0.00    1.20
   5  -3  -5    4.20    1.30
  -5   3   5    6.30    1.40
   4  -3  -5   12.20    1.40
  -4   3   5   10.70    1.40
   3  -3  -5   27.70    1.70
  -3   3   5   27.70    1.80
   2  -3  -5  111.99    4.40
   2  -3  -5  111.69    3.50
  -2   3   5  110.99    3.50
  -2   3   5  111.19    3.70
  -2   3   5  114.09    4.70
   1  -3  -5  221.68    6.80
   1  -3  -5  226.08    6.10
   1  -3  -5  210.28    6.10
  -1   3   5  221.38    7.00
  -1   3   5  229.48    6.00
  -1   3   5  223.78    5.70
  -1   3   5  228.38    6.30
   0  -3  -5   25.20    1.20
   0  -3  -5   25.30    1.50
   0  -3  -5   30.20    1.60
   0   3   5   25.70    1.00
   0   3   5   25.10    1.30
   0   3   5   26.40    1.30
   0   3   5   26.00    1.30
   0   3   5   26.20    1.60
  -1  -3  -5  260.87    7.10
  -1  -3  -5  253.57    7.00
   1   3   5  253.67    7.20
   1   3   5  252.97    7.40
   1   3   5  258.47    7.10
   1   3   5  256.37    7.50
   1   3   5  279.87    7.60
  -2  -3  -5  162.48    4.80
  -2  -3  -5  155.38    4.70
   2   3   5  164.48    5.30
   2   3   5  157.98    4.90
   2   3   5  154.78    5.40
   2   3   5  166.88    4.80
  -3  -3  -5   64.29    2.60
  -3  -3  -5   63.49    2.60
  -3  -3  -5   65.09    3.20
   3   3   5   68.49    2.70
   3   3   5   71.19    2.80
   3   3   5   69.79    3.50
   3   3   5   66.09    2.70
   3   3   5   69.09    3.10
  -4  -3  -5   44.10    2.30
   4   3   5   42.20    2.40
   4   3   5   43.40    2.80
   4   3   5   45.70    2.30
   4   3   5   41.90    2.30
   4   3   5   45.90    2.40
   4   3   5   38.10    3.10
  -5  -3  -5   40.30    2.60
   5   3   5   41.80    3.00
   5   3   5   40.90    2.60
  -6  -3  -5    5.50    1.70
   6   3   5    8.70    1.90
   6   3   5    5.40    1.60
   5  -4  -5    3.40    1.20
   5  -4  -5    4.00    1.60
   4  -4  -5   12.00    1.40
  -4   4   5    8.60    1.40
   3  -4  -5  358.66    9.60
  -3   4   5  348.97   10.00
   2  -4  -5    7.80    0.80
   2  -4  -5    8.70    1.40
  -2   4   5    7.70    0.90
  -2   4   5    7.40    1.00
   1  -4  -5   69.99    3.10
   1  -4  -5   64.69    2.20
   1  -4  -5   69.39    2.30
  -1   4   5   70.19    2.50
  -1   4   5   72.79    2.20
  -1   4   5   69.79    3.30
  -1   4   5   70.29    2.40
   0  -4  -5   59.19    1.90
   0  -4  -5   56.59    1.80
   0  -4  -5   53.39    2.50
   0   4   5   57.29    2.00
   0   4   5   56.29    2.10
   0   4   5   59.09    2.70
   0   4   5   56.59    2.10
  -1  -4  -5  160.58    4.40
  -1  -4  -5  156.78    4.40
   1   4   5  162.58    4.80
   1   4   5  168.88    5.30
   1   4   5  148.99    5.00
   1   4   5  166.78    4.70
  -2  -4  -5   97.79    2.80
  -2  -4  -5  101.79    3.10
   2   4   5   97.59    3.80
   2   4   5  101.19    3.30
   2   4   5   98.99    3.50
   2   4   5   99.89    4.00
  -3  -4  -5  136.29    4.30
  -3  -4  -5  137.09    5.20
   3   4   5  133.39    5.00
   3   4   5  132.19    5.50
   3   4   5  136.29    4.40
   3   4   5  134.09    4.40
   3   4   5  141.49    4.60
  -4  -4  -5   14.10    1.40
   4   4   5   16.30    1.60
   4   4   5   10.90    1.30
   4   4   5   12.10    1.40
   4   4   5   12.90    1.80
   4   4   5   12.20    1.30
  -5  -4  -5   29.60    2.30
   5   4   5   25.40    2.10
   5   4   5   26.20    2.80
   5   4   5   23.40    2.00
   5   4   5   23.30    2.10
  -6  -4  -5   13.00    2.00
   6   4   5   15.40    2.50
   6   4   5   16.60    2.20
   5  -5  -5    2.10    1.30
   5  -5  -5    3.10    0.90
  -5   5   5    3.40    1.30
   4  -5  -5    2.80    0.80
   4  -5  -5    3.30    1.30
  -4   5   5    2.20    1.20
   3  -5  -5  109.99    3.40
  -3   5   5  114.59    4.10
   2  -5  -5  275.77    9.20
   2  -5  -5  295.67    7.40
  -2   5   5  286.67    8.10
   1  -5  -5   97.59    4.00
  -1   5   5   97.99    3.20
  -1   5   5   95.89    3.10
  -1   5   5  102.49    3.00
  -1   5   5   94.29    4.10
   0   5   5   24.90    1.30
   0   5   5   24.50    1.70
   0   5   5   21.90    0.80
   0   5   5   21.70    1.30
   0   5   5   22.10    1.20
   1   5   5   47.60    2.40
   1   5   5   43.90    2.20
   1   5   5   42.60    1.80
   1   5   5   45.10    2.00
  -2  -5  -5   25.90    1.00
  -2  -5  -5   26.10    1.00
   2   5   5   23.20    1.80
   2   5   5   27.50    1.50
   2   5   5   26.90    1.60
   2   5   5   21.30    1.90
  -3  -5  -5   68.79    2.30
   3   5   5   68.49    3.40
   3   5   5   68.89    2.70
   3   5   5   65.19    2.80
   3   5   5   70.29    2.90
   3   5   5   63.39    3.70
  -4  -5  -5    8.10    1.00
   4   5   5    9.10    1.30
   4   5   5    9.60    1.60
   4   5   5    8.20    1.20
  -5  -5  -5   17.10    1.70
   5   5   5   19.50    2.00
   5   5   5   16.00    2.40
   5   5   5   18.00    2.00
  -6  -5  -5    5.30    1.40
   6   5   5    3.10    1.50
   5  -6  -5    1.30    1.50
  -5   6   5    1.20    1.20
   4  -6  -5   14.50    2.10
  -4   6   5   16.40    1.80
   3  -6  -5   12.30    1.80
  -3   6   5   11.30    1.40
   2  -6  -5    4.30    1.10
  -2   6   5    3.10    0.70
   1  -6  -5   32.00    1.90
   1  -6  -5   33.10    2.20
  -1   6   5   32.60    1.40
  -1   6   5   32.20    1.60
   0  -6  -5   12.70    1.10
   0   6   5   11.50    1.00
   0   6   5   10.90    1.10
  -1  -6  -5   50.59    1.90
   1   6   5   52.29    2.10
   1   6   5   54.09    2.60
   2   6   5  119.49    5.00
   2   6   5  127.69    4.20
   2   6   5  137.39    5.00
   3   6   5    4.30    1.30
   3   6   5    5.40    0.90
   3   6   5    6.40    1.10
  -4  -6  -5   40.60    1.50
   4   6   5   44.20    3.10
   4   6   5   42.10    2.60
   4   6   5   39.50    2.40
  -5  -6  -5   18.50    1.40
   5   6   5   20.20    2.10
   5   6   5   18.70    2.00
   5   6   5   23.90    2.90
  -6  -6  -5    7.70    1.20
   6   6   5    9.00    1.80
   6   6   5    6.70    1.70
   6   6   5    8.30    2.00
   4  -7  -5   21.10    2.50
  -4   7   5   25.40    2.20
   3  -7  -5    3.20    1.30
  -3   7   5    5.10    1.10
   2  -7  -5    7.30    1.30
  -2   7   5    7.40    1.00
   1  -7  -5   20.60    1.70
  -1   7   5   21.40    1.30
   0  -7  -5  104.49    3.70
   0   7   5  111.19    3.50
   0   7   5  106.79    3.80
  -1  -7  -5   17.30    1.10
   1   7   5   18.50    1.30
   1   7   5   18.60    1.80
   1   7   5   17.60    1.70
   2   7   5    0.80    0.90
   2   7   5    0.80    0.70
   3   7   5   11.70    1.30
   3   7   5   12.90    1.90
   3   7   5    9.30    1.20
   4   7   5   11.60    2.00
   4   7   5    7.60    1.30
   4   7   5    8.50    1.40
   5   7   5    7.60    2.00
   5   7   5    4.10    1.30
   5   7   5    4.30    1.30
   6   7   5    0.20    1.30
   6   7   5    4.70    1.60
   6   7   5   -0.90    1.70
   4  -8  -5    7.70    1.80
  -4   8   5    5.50    1.40
   3  -8  -5    0.60    1.10
  -3   8   5    0.00    0.70
   2  -8  -5    4.30    1.20
  -2   8   5    1.50    0.70
   1  -8  -5    3.40    1.00
  -1   8   5    2.80    0.70
   0  -8  -5    6.10    1.00
   0   8   5    5.00    0.80
   0   8   5    8.00    1.20
   1   8   5    7.70    1.00
   1   8   5    8.20    1.40
   2   8   5    5.10    0.90
   2   8   5    5.50    1.40
   3   8   5    5.80    1.60
   3   8   5    5.80    1.10
   3   8   5    6.70    1.00
   4   8   5    7.50    1.30
   4   8   5    6.40    2.00
   4   8   5    6.60    1.30
   5   8   5    4.70    1.90
   5   8   5    1.40    1.20
   5   8   5    3.40    1.50
   3  -9  -5    8.20    1.90
  -3   9   5    8.30    1.30
   2  -9  -5    2.30    1.20
  -2   9   5    2.30    0.80
   1  -9  -5    2.00    0.90
  -1   9   5    1.80    0.70
   0  -9  -5    1.70    0.90
   0   9   5    0.60    0.60
   1   9   5    4.90    1.30
   1   9   5    6.60    1.00
   2   9   5    0.30    0.90
   2   9   5    0.60    0.70
   3   9   5    0.90    0.80
   3   9   5    2.50    1.60
   3   9   5    1.50    0.90
   4   9   5    0.50    0.90
   4   9   5    0.00    1.00
   4   9   5   -1.20    1.30
   5   9   5    2.50    1.80
   5   9   5    0.90    1.20
   5   9   5    1.40    1.00
   2 -10  -5   17.60    2.10
  -2  10   5   13.40    1.40
   1 -10  -5   16.20    1.80
  -1  10   5   15.60    1.40
   0  10   5    3.60    0.80
   1  10   5    0.50    0.70
   1  10   5    0.80    1.00
   2  10   5    0.30    0.70
   2  10   5    0.10    1.20
   3  10   5    0.90    0.80
   3  10   5    1.30    1.60
   4  10   5   -0.70    1.00
   4  10   5    4.10    2.00
   4  10   5   -0.30    0.90
   2 -11  -5    7.40    1.60
  -2  11   5    8.00    1.20
  -1  11   5    1.50    0.80
   0  11   5    3.20    0.90
   1  11   5    2.70    0.80
   2  11   5    2.90    1.50
   2  11   5    0.40    0.80
   3  11   5    1.40    1.70
   3  11   5    1.30    1.00
   0  12   5    5.50    1.00
   1  12   5   13.90    1.40
   2  12   5    0.80    1.40
   2  12   5    3.50    1.00
   0   9  -6    5.90    0.90
   2   8  -6   16.60    1.50
   1   8  -6    1.00    0.80
  -1  -8   6    1.80    1.00
  -1  -8   6    2.20    1.50
   0   8  -6    1.60    0.70
   0  -8   6    1.80    1.20
   0  -8   6    2.10    1.60
  -1   8  -6    5.50    1.00
   1  -8   6    8.10    1.90
   1  -8   6    4.60    1.40
  -2   8  -6    6.60    1.10
   2  -8   6    7.50    1.40
   3   7  -6    1.30    0.80
   2   7  -6    1.50    0.80
  -2  -7   6    1.30    1.20
  -2  -7   6    3.50    1.40
   1   7  -6   -0.20    0.60
  -1  -7   6    0.70    0.90
  -1  -7   6    1.30    1.10
   0   7  -6    6.40    0.90
   0  -7   6    8.80    1.70
   0  -7   6    8.40    1.40
  -1   7  -6    4.80    0.90
   1  -7   6    8.00    1.80
   1  -7   6    7.20    1.30
  -2   7  -6    8.00    1.10
   2  -7   6    5.50    1.70
   2  -7   6    8.70    1.40
  -3   7  -6   17.00    1.70
   3  -7   6   19.20    1.90
   3   6  -6    4.50    1.10
  -3  -6   6    5.10    1.60
   2   6  -6    3.80    0.90
  -2  -6   6    5.50    1.40
  -2  -6   6    5.00    1.30
   1   6  -6    6.20    0.90
  -1  -6   6    5.30    1.40
  -1  -6   6    7.20    1.40
   0   6  -6    4.90    0.80
   0  -6   6    6.40    1.40
   0  -6   6    5.30    1.20
  -1   6  -6    0.50    0.70
   1  -6   6    0.60    1.10
   1  -6   6    0.80    0.70
  -2   6  -6   12.30    1.20
   2  -6   6    7.60    1.80
   2  -6   6   12.30    1.40
  -3   6  -6    2.40    1.00
   3  -6   6    1.60    1.00
  -4   6  -6    4.10    1.20
   4  -6   6    6.70    1.30
   4   5  -6    3.20    1.10
  -4  -5   6    5.00    1.70
   3   5  -6   18.00    1.60
  -3  -5   6   16.40    2.00
   2   5  -6   16.90    1.50
  -2  -5   6   21.90    2.00
  -2  -5   6   20.60    2.10
   1   5  -6   39.50    1.90
  -1  -5   6   40.90    2.50
  -1  -5   6   39.90    2.40
   0   5  -6  104.49    3.40
   0  -5   6  104.39    4.00
   0  -5   6  102.69    4.20
  -1   5  -6   18.60    1.30
   1  -5   6   16.40    1.90
   1  -5   6   16.70    1.60
  -2   5  -6   12.50    1.20
   2  -5   6   14.00    1.90
   2  -5   6   12.00    1.40
  -3   5  -6    3.30    1.00
   3  -5   6    3.50    1.10
   3  -5   6    3.50    1.00
  -4   5  -6   10.40    1.50
   4  -5   6   12.10    1.60
  -5   5  -6    9.40    1.80
   5  -5   6   10.20    1.70
   4   4  -6    1.30    1.10
  -4  -4   6    1.80    1.40
   3   4  -6    8.30    1.40
   3   4  -6    8.90    1.20
  -3  -4   6    8.20    1.50
   2   4  -6   73.39    2.80
  -2  -4   6   69.19    3.20
  -2  -4   6   70.39    3.20
   1   4  -6    7.50    0.90
  -1  -4   6    3.70    1.10
  -1  -4   6    4.00    1.00
   0   4  -6   18.40    1.20
   0  -4   6   16.50    1.30
   0  -4   6   16.20    1.60
  -1   4  -6   43.70    1.90
   1  -4   6   42.20    2.10
   1  -4   6   37.50    2.40
  -2   4  -6    5.10    0.90
   2  -4   6    4.30    1.00
   2  -4   6    4.60    0.90
   2  -4   6    6.00    1.40
  -3   4  -6    0.10    0.70
   3  -4   6    0.00    0.70
  -4   4  -6    1.60    1.10
   4  -4   6    1.70    1.00
   4  -4   6    2.50    0.90
  -5   4  -6   13.70    1.80
   5  -4   6   15.50    1.90
  -5  -3   6    8.10    1.30
   4   3  -6   13.90    1.60
  -4  -3   6   15.50    1.40
   3   3  -6   43.90    2.40
   3   3  -6   39.70    2.20
  -3  -3   6   45.10    1.70
  -3  -3   6   41.30    2.70
   2   3  -6  116.19    3.90
   2   3  -6  109.79    3.70
  -2  -3   6  112.29    4.20
  -2  -3   6  104.19    4.00
   1   3  -6  495.85   13.20
   1   3  -6  508.35   13.30
  -1  -3   6  521.35   13.70
  -1  -3   6  496.55   13.70
   0   3  -6   48.30    1.90
   0  -3   6   43.10    2.10
   0  -3   6   43.50    2.20
  -1   3  -6   79.89    2.80
   1  -3   6   74.79    3.00
   1  -3   6   79.29    3.00
   1  -3   6   73.79    3.10
  -2   3  -6  139.89    4.50
   2  -3   6  129.89    5.00
   2  -3   6  145.09    4.70
  -3   3  -6   19.00    1.60
   3  -3   6   18.60    1.70
  -4   3  -6   25.80    2.10
   4  -3   6   24.20    2.00
   4  -3   6   22.90    2.00
  -5   3  -6   -2.90    0.90
   5  -3   6    0.90    1.00
  -5  -2   6   13.10    1.60
   4   2  -6    4.60    1.10
  -4  -2   6    5.80    1.00
   3   2  -6   57.49    2.50
   3   2  -6   48.70    3.10
   3   2  -6   55.69    2.60
  -3  -2   6   52.99    2.20
   2   2  -6  257.07    7.30
   2   2  -6  250.67    7.20
   2   2  -6  257.77    7.20
   2   2  -6  243.58    7.70
  -2  -2   6  241.08    8.20
  -2  -2   6  260.97    6.80
  -2  -2   6  235.18    7.50
  -2  -2   6  254.97    7.50
   1   2  -6  133.79    4.20
   1   2  -6  122.69    4.00
   1   2  -6  134.49    4.10
  -1  -2   6  126.69    4.00
  -1  -2   6  133.49    4.30
  -1  -2   6  132.29    3.70
  -1  -2   6  129.89    4.40
   0   2  -6   24.90    1.40
   0   2  -6   27.50    1.60
   0  -2   6   22.30    1.50
   0  -2   6   23.90    1.00
   0  -2   6   22.40    1.40
   0  -2   6   22.90    1.60
  -1   2  -6   97.39    3.40
  -1   2  -6  103.59    3.30
   1  -2   6  100.79    3.40
   1  -2   6   97.29    2.70
   1  -2   6   92.09    3.40
   1  -2   6   96.89    3.60
  -2   2  -6   61.99    3.10
  -2   2  -6   62.09    2.60
  -2   2  -6   66.09    2.10
   2  -2   6   62.19    3.00
   2  -2   6   68.99    2.80
   2  -2   6   66.19    1.90
  -3   2  -6   91.99    3.50
   3  -2   6   98.39    3.70
  -4   2  -6   18.20    1.80
   4  -2   6   17.60    1.60
   4  -2   6   17.80    1.80
   4  -2   6   23.00    1.30
  -5   2  -6   11.70    1.60
   5  -2   6   12.90    1.60
   5  -2   6   10.60    1.50
   5  -2   6   15.00    1.30
   6  -2   6    0.90    0.90
   6  -2   6   -0.20    0.90
   5   1  -6   10.00    1.80
  -5  -1   6   10.50    1.60
   4   1  -6    5.30    1.40
  -4  -1   6    7.50    1.20
   3   1  -6   60.89    2.60
   3   1  -6   56.19    3.30
   3   1  -6   52.99    2.60
  -3  -1   6   58.69    2.40
   2   1  -6   37.80    1.90
   2   1  -6   39.80    2.30
   2   1  -6   35.50    1.80
  -2  -1   6   37.30    1.90
  -2  -1   6   34.70    2.00
  -2  -1   6   35.50    2.20
  -2  -1   6   35.70    1.60
   1   1  -6   83.39    2.90
   1   1  -6   76.59    2.70
   1   1  -6   83.99    2.90
  -1  -1   6   78.79    3.00
  -1  -1   6   74.59    2.90
  -1  -1   6   82.19    2.90
   0   1  -6   60.49    2.40
   0   1  -6   53.99    2.10
   0  -1   6   58.99    2.20
   0  -1   6   56.69    2.30
   0  -1   6   52.59    2.30
  -1   1  -6  432.66   11.30
  -1   1  -6  410.26   11.10
   1  -1   6  419.76   11.30
   1  -1   6  413.46   11.30
   1  -1   6  399.56   10.60
  -2   1  -6   39.90    1.60
  -2   1  -6   43.70    2.10
  -2   1  -6   43.70    2.00
   2  -1   6   43.20    2.10
   2  -1   6   41.00    1.70
   2  -1   6   41.50    1.60
   2  -1   6   37.90    2.10
  -3   1  -6   12.30    1.30
  -3   1  -6   13.50    1.30
  -3   1  -6   12.80    1.50
   3  -1   6   13.70    1.40
   3  -1   6   14.40    1.40
   3  -1   6   13.90    1.10
  -4   1  -6   20.20    1.90
  -4   1  -6   14.20    1.50
   4  -1   6   17.00    1.70
   4  -1   6   21.00    1.60
   4  -1   6   20.40    1.50
  -5   1  -6    7.30    1.40
   5  -1   6    4.30    1.00
   5  -1   6    7.60    1.40
   5  -1   6    5.40    1.20
   6  -1   6    5.60    1.30
   5   0  -6    8.10    1.80
  -5   0   6    8.00    1.40
   4   0  -6   21.20    2.10
  -4   0   6   20.10    1.70
   3   0  -6   86.39    3.30
   3   0  -6   84.79    3.40
   3   0  -6   89.39    4.30
  -3   0   6   93.99    3.30
   2   0  -6   23.70    1.50
   2   0  -6   25.10    1.90
   2   0  -6   25.90    1.50
  -2   0   6   25.70    1.40
  -2   0   6   25.40    2.10
  -2   0   6   28.40    1.50
   1   0  -6  180.48    5.40
   1   0  -6  176.68    5.20
   1   0  -6  188.48    5.30
  -1   0   6  174.98    5.20
  -1   0   6  170.88    5.30
  -1   0   6  177.88    5.10
  -1   0   6  186.08    5.40
  -1   0   6  177.28    5.60
  -1   0   6  176.38    5.30
   0   0  -6  358.76    9.50
   0   0  -6  358.66    9.60
   0   0   6  349.67    9.20
   0   0   6  362.86    9.50
   0   0   6  354.86    9.20
   0   0   6  355.76    9.60
   0   0   6  354.06    9.40
   0   0   6  341.07    9.60
   0   0   6  349.67    9.40
  -1   0  -6  163.38    4.90
  -1   0  -6  165.18    5.10
   1   0   6  173.48    4.60
   1   0   6  164.48    5.00
   1   0   6  170.78    4.60
   1   0   6  162.88    5.10
   1   0   6  162.58    4.60
   1   0   6  159.98    4.40
   1   0   6  162.08    4.90
  -2   0  -6   27.10    1.70
  -2   0  -6   28.80    1.40
  -2   0  -6   26.40    1.50
   2   0   6   25.10    1.30
   2   0   6   24.20    1.20
   2   0   6   24.20    1.50
   2   0   6   26.10    1.50
   2   0   6   25.70    1.70
  -3   0  -6   88.29    3.30
  -3   0  -6   90.59    3.60
  -3   0  -6   87.29    3.40
   3   0   6   82.59    3.60
   3   0   6   89.09    3.10
   3   0   6   83.19    2.80
   3   0   6   84.99    3.40
  -4   0  -6   25.80    2.10
  -4   0  -6   30.20    2.00
  -4   0  -6   29.80    2.40
   4   0   6   24.40    2.30
   4   0   6   27.90    2.00
   4   0   6   27.60    1.50
   4   0   6   27.30    1.80
  -5   0  -6    9.50    1.80
  -5   0  -6    4.60    1.50
   5   0   6    9.10    1.50
   5   0   6    9.30    1.10
   5   0   6   10.10    1.40
  -6   0  -6    4.90    1.70
   6   0   6   12.40    1.70
   5  -1  -6    3.30    1.40
  -5   1   6    4.20    1.40
   4  -1  -6   49.60    2.80
  -4   1   6   46.50    2.50
   3  -1  -6   41.00    2.30
   3  -1  -6   40.30    2.90
   2  -1  -6   54.09    2.40
   2  -1  -6   59.89    2.90
   2  -1  -6   62.49    2.40
  -2   1   6   60.79    2.20
  -2   1   6   56.59    3.10
  -2   1   6   59.79    2.50
   1  -1  -6  182.58    5.40
   1  -1  -6  178.58    5.10
   1  -1  -6  174.58    5.10
  -1   1   6  168.78    5.10
  -1   1   6  173.58    5.00
  -1   1   6  165.18    5.10
  -1   1   6  167.58    4.90
  -1   1   6  179.28    5.20
  -1   1   6  171.38    4.90
  -1   1   6  178.58    5.70
   0  -1  -6  105.39    3.50
   0  -1  -6  103.79    3.40
   0  -1  -6  114.29    3.50
   0   1   6  111.09    3.30
   0   1   6  107.39    3.30
   0   1   6  105.49    3.30
   0   1   6  104.79    3.60
   0   1   6  111.99    3.60
   0   1   6  108.99    3.50
  -1  -1  -6  127.49    4.20
  -1  -1  -6  131.19    4.10
   1   1   6  138.19    3.90
   1   1   6  130.09    4.00
   1   1   6  132.89    4.00
   1   1   6  132.59    4.30
   1   1   6  124.99    3.90
   1   1   6  135.89    4.20
  -2  -1  -6  269.97    8.10
  -2  -1  -6  287.47    7.90
   2   1   6  276.57    7.80
   2   1   6  274.67    8.20
   2   1   6  291.17    7.70
   2   1   6  302.07    8.10
   2   1   6  279.37    8.20
  -3  -1  -6   43.30    2.30
  -3  -1  -6   40.80    2.10
  -3  -1  -6   43.20    2.30
   3   1   6   45.80    2.30
   3   1   6   40.40    2.50
   3   1   6   45.10    2.10
   3   1   6   44.70    2.20
   3   1   6   42.70    2.00
  -4  -1  -6   54.59    2.90
  -4  -1  -6   48.80    2.60
   4   1   6   52.89    3.40
   4   1   6   51.49    2.90
   4   1   6   54.39    2.40
   4   1   6   54.79    2.60
  -5  -1  -6    6.00    1.40
   5   1   6    9.10    1.60
   5   1   6   11.10    1.70
  -6  -1  -6    4.00    1.60
   6   1   6    3.90    1.20
   6   1   6    5.30    1.60
   5  -2  -6   -0.90    1.30
  -5   2   6    1.10    1.10
   4  -2  -6    2.00    1.10
  -4   2   6    0.00    0.80
   3  -2  -6   18.30    1.40
  -3   2   6   16.50    1.60
   2  -2  -6   17.50    1.70
   2  -2  -6   19.90    1.30
   2  -2  -6   22.60    1.40
  -2   2   6   19.90    1.90
  -2   2   6   20.00    1.40
   1  -2  -6   64.39    2.40
   1  -2  -6   63.79    2.70
   1  -2  -6   64.49    2.40
  -1   2   6   67.49    2.10
  -1   2   6   63.79    2.90
  -1   2   6   65.59    2.50
  -1   2   6   64.59    2.30
  -1   2   6   65.39    2.30
   0  -2  -6   35.20    1.80
   0  -2  -6   40.40    1.70
   0  -2  -6   37.30    1.70
   0   2   6   36.00    1.60
   0   2   6   38.60    1.50
   0   2   6   39.20    1.80
   0   2   6   41.10    1.90
   0   2   6   38.00    1.70
  -1  -2  -6  152.28    4.70
  -1  -2  -6  158.88    4.70
   1   2   6  165.68    4.50
   1   2   6  160.48    4.90
   1   2   6  157.88    4.80
   1   2   6  166.28    5.00
   1   2   6  152.98    4.60
   1   2   6  154.18    4.80
  -2  -2  -6   41.90    2.00
  -2  -2  -6   42.40    2.00
   2   2   6   43.00    2.20
   2   2   6   43.90    2.00
   2   2   6   43.10    2.30
   2   2   6   43.70    2.00
  -3  -2  -6   49.90    2.60
  -3  -2  -6   48.90    2.50
  -3  -2  -6   51.39    2.30
   3   2   6   53.29    2.70
   3   2   6   49.90    2.40
   3   2   6   49.30    2.90
   3   2   6   54.29    2.30
   3   2   6   47.80    2.30
  -4  -2  -6   57.09    3.00
   4   2   6   53.99    2.90
   4   2   6   55.09    2.70
   4   2   6   58.29    2.80
   4   2   6   53.39    3.50
  -5  -2  -6   13.20    1.80
   5   2   6   15.30    2.00
   5   2   6   17.80    1.90
  -6  -2  -6    3.10    1.80
   6   2   6    3.00    1.40
   6   2   6    1.90    1.40
   5  -3  -6    4.20    1.40
  -5   3   6    2.90    1.30
   4  -3  -6    5.60    1.20
   3  -3  -6    8.90    1.10
  -3   3   6    8.90    1.20
   2  -3  -6    3.90    0.80
   2  -3  -6    3.80    1.00
  -2   3   6    3.20    0.70
  -2   3   6    3.70    0.80
   1  -3  -6   53.59    2.00
   1  -3  -6   50.49    2.00
   1  -3  -6   50.09    2.50
  -1   3   6   48.60    2.10
  -1   3   6   45.80    1.90
  -1   3   6   47.10    1.80
  -1   3   6   49.90    2.60
  -1   3   6   48.70    1.60
   0  -3  -6  502.15   13.00
   0  -3  -6  515.95   13.20
   0  -3  -6  502.65   13.60
   0   3   6  488.55   13.60
   0   3   6  512.95   12.70
   0   3   6  491.75   13.20
   0   3   6  499.25   13.00
   0   3   6  498.05   13.20
  -1  -3  -6  150.68    4.50
  -1  -3  -6  140.29    4.40
   1   3   6  150.58    4.80
   1   3   6  152.88    4.90
   1   3   6  150.68    4.70
   1   3   6  147.99    4.50
   1   3   6  148.39    4.80
  -2  -3  -6   65.09    2.50
  -2  -3  -6   66.39    2.60
   2   3   6   66.49    2.90
   2   3   6   68.29    2.70
   2   3   6   64.49    2.50
   2   3   6   62.89    3.00
  -3  -3  -6   86.79    3.70
  -3  -3  -6   91.69    3.50
   3   3   6  100.19    3.90
   3   3   6   86.69    3.50
   3   3   6   99.49    3.50
   3   3   6   89.59    4.20
  -4  -3  -6    5.80    1.30
   4   3   6    5.40    1.60
   4   3   6    7.30    1.10
   4   3   6    6.40    1.20
   4   3   6    7.10    1.30
   4   3   6    8.10    1.40
   4   3   6    6.60    1.10
  -5  -3  -6   17.10    2.10
   5   3   6   19.30    2.10
   5   3   6   20.10    2.30
  -6  -3  -6    3.80    1.50
   6   3   6    6.80    1.70
   6   3   6    5.40    1.50
   5  -4  -6   13.10    2.30
   5  -4  -6   12.40    1.70
   4  -4  -6   -0.30    1.00
  -4   4   6    2.20    1.10
   3  -4  -6    6.20    1.00
  -3   4   6    7.00    1.20
   2  -4  -6   71.39    3.60
   2  -4  -6   73.19    2.60
  -2   4   6   76.09    2.80
  -2   4   6   72.09    2.90
   1  -4  -6   52.19    2.70
   1  -4  -6   48.80    1.90
  -1   4   6   50.09    2.80
  -1   4   6   49.99    2.00
  -1   4   6   50.99    2.20
  -1   4   6   49.80    1.80
  -1   4   6   49.60    1.40
   0  -4  -6    6.90    0.70
   0   4   6    5.40    0.70
   0   4   6    6.90    0.90
   0   4   6    7.00    0.80
   0   4   6    6.30    0.50
   0   4   6    6.60    1.10
  -1  -4  -6   94.09    3.00
   1   4   6   95.59    3.20
   1   4   6   92.59    3.50
   1   4   6   97.89    3.40
   1   4   6   95.79    3.60
  -2  -4  -6   74.29    2.60
   2   4   6   74.39    2.80
   2   4   6   72.19    3.30
   2   4   6   82.29    3.00
   2   4   6   73.59    3.20
  -3  -4  -6   25.60    1.60
   3   4   6   28.00    1.70
   3   4   6   23.00    2.30
   3   4   6   24.20    1.70
   3   4   6   28.40    2.10
  -4  -4  -6   60.29    2.80
   4   4   6   62.59    2.90
   4   4   6   55.69    2.80
   4   4   6   57.19    2.90
   4   4   6   61.19    3.50
   4   4   6   58.29    2.90
  -5  -4  -6    1.10    1.10
   5   4   6    0.50    1.30
   5   4   6    4.40    1.30
   5   4   6    2.90    1.30
  -6  -4  -6   11.10    1.90
   6   4   6    8.70    2.00
   6   4   6   15.40    2.20
   5  -5  -6    1.70    1.50
   5  -5  -6    1.50    1.00
   4  -5  -6   20.10    1.60
   4  -5  -6   23.20    2.60
  -4   5   6   22.80    2.10
   3  -5  -6    4.60    0.90
  -3   5   6    4.60    1.10
   2  -5  -6   47.00    1.80
  -2   5   6   45.60    2.30
   1  -5  -6   23.80    1.90
   1  -5  -6   25.70    1.10
  -1   5   6   28.10    1.60
  -1   5   6   25.70    1.20
   0  -5  -6    0.10    0.30
   0  -5  -6    0.30    0.40
   0   5   6   -0.20    0.40
   0   5   6   -0.10    0.60
   0   5   6   -0.40    0.50
   0   5   6   -0.20    0.40
  -1  -5  -6   49.90    1.70
  -1  -5  -6   50.79    1.70
   1   5   6   49.10    2.30
   1   5   6   51.49    2.60
   1   5   6   51.39    2.10
   1   5   6   52.79    2.30
  -2  -5  -6  228.18    6.20
   2   5   6  234.48    7.40
   2   5   6  238.18    6.90
   2   5   6  230.48    6.70
   2   5   6  230.28    7.70
  -3  -5  -6  126.69    3.90
   3   5   6  111.09    5.10
   3   5   6  133.29    5.10
   3   5   6  123.29    4.30
   3   5   6  123.99    4.40
  -4  -5  -6    8.00    1.20
   4   5   6    6.60    1.20
   4   5   6    6.10    1.30
   4   5   6    6.90    1.70
   4   5   6    5.80    1.20
  -5  -5  -6   11.80    1.50
   5   5   6   10.60    1.60
   5   5   6    8.40    1.80
   5   5   6   10.10    1.60
  -6  -5  -6    4.00    1.50
   6   5   6    1.70    1.70
   4  -6  -6   22.30    2.60
  -4   6   6   20.30    2.10
   3  -6  -6    7.50    1.60
  -3   6   6    6.80    1.30
  -2   6   6   32.90    2.00
  -1   6   6   28.50    1.70
  -1  -6  -6   22.00    1.30
   1   6   6   22.20    1.70
   1   6   6   23.10    1.60
   2   6   6   14.50    1.80
   2   6   6   19.00    1.50
   2   6   6   17.30    1.70
  -3  -6  -6  297.57    7.20
   3   6   6  256.97    8.20
  -4  -6  -6   30.80    1.50
   4   6   6   26.50    2.60
   4   6   6   32.80    2.40
   4   6   6   30.20    2.10
  -5  -6  -6    6.70    1.10
   5   6   6    7.30    1.50
   5   6   6    6.90    1.60
   5   6   6    8.40    2.10
  -6  -6  -6    3.30    1.20
   6   6   6    6.10    2.10
   4  -7  -6    2.40    1.60
  -4   7   6    0.60    1.10
   3  -7  -6    3.60    1.30
  -3   7   6    3.10    1.00
   2  -7  -6    7.30    1.40
  -2   7   6    5.40    1.10
   1  -7  -6   52.39    2.80
  -1   7   6   53.69    2.30
   0  -7  -6   17.00    1.40
   0   7   6   14.80    1.30
   0   7   6   13.90    1.40
   1   7   6    7.50    1.20
   1   7   6    7.70    1.00
   2   7   6    4.10    1.20
   2   7   6    3.30    1.00
   3   7   6   16.90    2.20
   3   7   6   15.40    1.60
   4   7   6   -0.70    1.00
   4   7   6    2.40    1.30
   4   7   6    1.60    1.00
   5   7   6    8.20    1.60
   5   7   6    6.70    1.50
   5   7   6    6.20    1.90
   3  -8  -6    3.70    1.50
  -3   8   6    3.90    1.20
   2  -8  -6   13.70    1.80
  -2   8   6   10.20    1.20
   1  -8  -6    7.50    1.30
  -1   8   6    8.00    1.10
   0  -8  -6    7.30    1.10
   0   8   6    6.00    0.90
   0   8   6    9.30    1.20
   1   8   6   24.10    1.70
   1   8   6   22.90    2.00
   2   8   6   13.30    1.40
   2   8   6   16.10    2.00
   3   8   6    0.80    1.00
   3   8   6    2.00    1.20
   4   8   6   -0.60    1.00
   4   8   6   -0.60    0.90
   4   8   6   -0.30    1.10
   5   8   6    1.30    1.40
   5   8   6    1.00    1.40
   5   8   6    1.00    1.00
   3  -9  -6   12.00    2.00
  -3   9   6   15.50    1.80
   2  -9  -6   19.70    2.10
  -2   9   6   19.90    1.70
   1  -9  -6    7.00    1.30
  -1   9   6    4.40    0.90
   0   9   6    9.00    1.10
   1   9   6   25.80    2.40
   1   9   6   24.70    1.80
   2   9   6    0.50    1.00
   2   9   6    0.20    0.90
   3   9   6    0.90    1.00
   3   9   6    2.80    1.60
   4   9   6    1.00    0.80
   4   9   6   -0.20    1.50
   4   9   6    0.80    1.00
   5   9   6    0.90    1.20
   5   9   6    1.30    2.10
   5   9   6    0.60    1.30
   2 -10  -6    7.90    1.60
  -2  10   6    6.10    1.20
   1 -10  -6    7.60    1.50
  -1  10   6    8.20    1.20
   0  10   6   12.80    1.30
   1  10   6    3.80    1.30
   1  10   6    3.80    1.00
   2  10   6    0.60    0.90
   2  10   6    0.90    1.10
   3  10   6    4.50    1.80
   3  10   6    1.10    1.10
   4  10   6    0.70    1.20
   4  10   6    2.80    2.00
   4  10   6   -1.60    0.60
  -1  11   6    2.00    1.00
   0  11   6    5.40    1.10
   1  11   6    5.20    1.10
   2  11   6    8.10    2.00
   2  11   6    4.60    1.10
   3  11   6    3.30    1.20
   3  11   6    3.50    1.70
   1  12   6    2.40    1.00
   1   8  -7   -0.10    0.70
   0   8  -7    7.30    1.10
   0  -8   7    8.80    2.00
  -1   8  -7    0.10    0.70
   1  -8   7    0.00    1.10
   2   7  -7    4.40    1.10
  -2  -7   7    7.20    1.50
   1   7  -7    0.90    0.80
  -1  -7   7    1.00    1.40
  -1  -7   7    1.80    1.10
   0   7  -7    1.90    0.80
   0  -7   7    5.30    1.40
   0  -7   7    4.40    1.20
  -1   7  -7    4.60    1.00
   1  -7   7    2.00    1.50
   1  -7   7    2.70    1.10
  -2   7  -7    7.00    1.10
   2  -7   7    6.60    1.40
   2  -7   7    5.00    1.60
  -3   7  -7    5.80    1.30
   3  -7   7    8.30    1.60
   3   6  -7    3.20    1.20
   2   6  -7    7.00    1.20
  -2  -6   7    5.70    1.60
  -2  -6   7    6.90    1.60
   1   6  -7    2.50    0.90
  -1  -6   7    2.80    1.40
  -1  -6   7    3.90    1.20
   0   6  -7    7.80    1.10
   0  -6   7    8.20    1.50
   0  -6   7    8.10    1.50
  -1   6  -7    0.50    0.70
   1  -6   7    0.70    1.20
   1  -6   7    2.00    1.00
  -2   6  -7    1.20    0.90
   2  -6   7    2.90    0.90
   2  -6   7    3.00    1.40
  -3   6  -7    4.40    1.20
   3  -6   7    1.70    1.10
  -4   6  -7    1.00    1.30
   4  -6   7    0.60    1.00
   3   5  -7   11.90    1.60
  -3  -5   7    9.70    1.80
   2   5  -7    9.20    1.20
  -2  -5   7    9.00    1.60
  -2  -5   7    6.20    1.40
   1   5  -7    9.40    1.20
  -1  -5   7   14.30    1.70
  -1  -5   7   10.30    1.70
   0   5  -7    8.90    1.10
   0  -5   7   10.00    1.30
   0  -5   7    8.50    1.60
  -1   5  -7   11.30    1.20
   1  -5   7   14.40    1.90
   1  -5   7   12.70    1.50
  -2   5  -7    6.80    1.10
   2  -5   7    7.10    1.70
   2  -5   7    8.00    1.20
  -3   5  -7    5.10    1.00
   3  -5   7    3.90    1.00
   3  -5   7    3.30    1.10
  -4   5  -7    1.80    1.10
   4  -5   7    1.20    1.10
   4  -5   7    1.70    1.00
   4   4  -7   53.09    3.00
   3   4  -7   13.50    1.50
  -3  -4   7   14.20    1.90
   2   4  -7   58.29    2.60
  -2  -4   7   55.39    3.00
  -2  -4   7   56.49    3.00
   1   4  -7   43.40    2.10
  -1  -4   7   37.70    2.20
  -1  -4   7   34.30    2.40
   0   4  -7   23.20    1.60
   0  -4   7   24.50    2.00
   0  -4   7   25.80    1.80
  -1   4  -7   15.00    1.40
   1  -4   7   14.70    1.40
   1  -4   7   16.60    1.90
  -2   4  -7   29.40    1.80
   2  -4   7   29.70    2.00
   2  -4   7   29.30    2.00
   2  -4   7   29.40    2.50
  -3   4  -7   11.00    1.40
   3  -4   7   10.50    1.40
   3  -4   7   11.20    1.50
  -4   4  -7    9.30    1.60
   4  -4   7    8.10    1.30
  -5   4  -7    7.20    1.70
   4   3  -7    3.40    1.30
  -4  -3   7    3.10    0.90
  -4  -3   7    0.80    1.40
   3   3  -7   12.30    1.40
  -3  -3   7   13.80    1.70
  -3  -3   7   12.70    1.00
   2   3  -7   29.80    1.90
   2   3  -7   34.20    2.00
  -2  -3   7   32.00    2.30
  -2  -3   7   34.10    2.20
   1   3  -7   41.20    2.00
  -1  -3   7   38.90    2.20
  -1  -3   7   38.80    2.30
   0   3  -7   48.70    2.20
   0  -3   7   48.70    2.40
   0  -3   7   47.30    2.50
  -1   3  -7   16.40    1.30
   1  -3   7   13.10    1.20
   1  -3   7   13.20    1.60
   1  -3   7   15.10    1.40
  -2   3  -7   53.09    2.40
   2  -3   7   52.89    2.60
   2  -3   7   53.99    2.70
   2  -3   7   50.99    2.90
  -3   3  -7    3.60    1.00
   3  -3   7    5.10    1.10
  -4   3  -7   12.00    1.60
   4  -3   7   13.90    1.60
  -5   3  -7   -0.30    1.10
   4   2  -7    9.20    1.50
  -4  -2   7   11.40    1.40
   3   2  -7   35.00    2.10
  -3  -2   7   36.50    1.90
  -3  -2   7   31.60    2.40
   2   2  -7  152.88    4.90
  -2  -2   7  151.48    4.40
  -2  -2   7  147.89    5.30
  -2  -2   7  149.49    5.10
   1   2  -7   25.60    1.60
  -1  -2   7   24.60    1.90
  -1  -2   7   26.60    1.80
  -1  -2   7   27.40    1.30
   0   2  -7  152.88    4.70
   0  -2   7  147.29    5.00
   0  -2   7  149.09    5.00
   0  -2   7  149.49    4.80
  -1   2  -7   39.30    1.90
   1  -2   7   37.50    2.20
   1  -2   7   36.90    1.90
   1  -2   7   37.70    2.00
  -2   2  -7   71.19    2.80
   2  -2   7   64.89    3.20
   2  -2   7   72.19    3.10
  -3   2  -7   10.20    1.30
   3  -2   7   11.60    1.50
   3  -2   7   10.40    0.90
  -4   2  -7  115.89    4.60
   4  -2   7  114.79    4.50
   4  -2   7  115.99    3.40
  -5   2  -7   18.20    2.10
   5  -2   7   21.30    1.40
   5  -2   7   15.80    1.90
  -5  -1   7   13.80    1.90
   4   1  -7   20.60    2.20
  -4  -1   7   20.60    1.80
   3   1  -7   19.20    1.70
   3   1  -7   19.60    1.70
  -3  -1   7   22.50    1.50
   2   1  -7   54.29    3.10
   2   1  -7   52.99    2.50
   2   1  -7   53.29    2.40
  -2  -1   7   57.99    2.20
  -2  -1   7   55.49    2.50
  -2  -1   7   52.69    2.70
   1   1  -7  196.38    5.90
   1   1  -7  199.88    5.70
   1   1  -7  199.28    6.00
  -1  -1   7  198.88    5.90
  -1  -1   7  189.28    6.00
   0   1  -7   15.70    1.30
   0   1  -7   15.80    1.30
   0  -1   7   17.10    1.40
   0  -1   7   13.20    1.30
   0  -1   7   16.70    1.20
  -1   1  -7   46.00    2.20
  -1   1  -7   45.70    2.20
   1  -1   7   40.90    2.20
   1  -1   7   46.40    2.20
   1  -1   7   47.60    1.70
   1  -1   7   44.50    2.10
  -2   1  -7   45.90    2.20
  -2   1  -7   46.60    2.40
   2  -1   7   41.10    1.60
   2  -1   7   36.50    2.20
   2  -1   7   45.00    2.30
  -3   1  -7   28.80    1.90
  -3   1  -7   25.00    2.10
   3  -1   7   29.00    1.50
   3  -1   7   25.20    1.90
  -4   1  -7  133.49    5.00
   4  -1   7  139.39    4.30
   4  -1   7  131.09    5.10
  -5   1  -7    2.70    1.40
   5  -1   7    4.40    1.30
   5  -1   7    2.40    1.00
   6  -1   7    2.60    1.10
   5   0  -7    0.30    1.60
  -5   0   7    0.70    1.00
   4   0  -7    2.90    1.40
  -4   0   7    1.70    1.00
   3   0  -7   11.20    1.40
   3   0  -7    7.70    1.50
   3   0  -7    7.30    1.20
  -3   0   7   12.60    1.30
   2   0  -7   14.30    1.50
   2   0  -7   15.80    1.40
   2   0  -7   15.60    1.40
  -2   0   7   17.60    1.80
  -2   0   7   16.80    1.50
  -2   0   7   19.60    1.40
   1   0  -7   26.40    1.50
   1   0  -7   25.40    1.50
   1   0  -7   25.00    1.60
  -1   0   7   24.30    1.70
  -1   0   7   26.10    1.60
  -1   0   7   27.40    1.40
  -1   0   7   25.30    1.60
   0   0  -7  202.78    5.90
   0   0  -7  195.08    5.90
   0   0   7  190.28    5.60
   0   0   7  198.18    5.40
   0   0   7  196.48    5.50
   0   0   7  200.68    5.80
   0   0   7  204.68    5.90
   0   0   7  200.68    6.00
  -1   0  -7   62.99    2.60
  -1   0  -7   57.79    2.40
   1   0   7   60.19    2.50
   1   0   7   57.89    2.60
   1   0   7   56.69    2.10
   1   0   7   56.69    1.90
   1   0   7   59.59    2.00
   1   0   7   56.89    1.80
   1   0   7   55.59    1.90
  -2   0  -7  134.99    4.50
  -2   0  -7  125.39    4.20
   2   0   7  117.89    4.00
   2   0   7  130.69    4.50
   2   0   7  116.29    4.30
   2   0   7  128.79    3.70
   2   0   7  127.79    3.90
  -3   0  -7   14.40    1.60
  -3   0  -7   14.50    1.50
  -3   0  -7   13.30    1.40
   3   0   7   11.50    1.50
   3   0   7   15.20    1.10
   3   0   7   14.60    1.30
  -4   0  -7   19.60    2.10
  -4   0  -7   22.00    2.10
   4   0   7   25.10    1.80
   4   0   7   22.80    2.10
  -5   0  -7   13.20    2.00
   5   0   7   13.70    1.80
   5   0   7   12.80    1.60
  -6   0  -7    2.60    1.70
   6   0   7    2.80    1.40
   6   0   7    2.00    1.30
   5  -1  -7    1.30    1.60
  -5   1   7    0.70    1.30
   4  -1  -7   23.10    2.20
  -4   1   7   19.50    1.80
   3  -1  -7   29.50    2.00
   2  -1  -7    3.70    0.80
   2  -1  -7    3.10    0.80
   2  -1  -7    2.40    0.90
  -2   1   7    2.10    0.90
  -2   1   7    3.50    0.70
   1  -1  -7   12.60    1.20
   1  -1  -7   11.70    1.20
   1  -1  -7   13.50    1.20
  -1   1   7   13.20    1.40
  -1   1   7   13.20    1.20
  -1   1   7   14.10    1.00
  -1   1   7   13.10    1.00
  -1   1   7   11.00    1.10
  -1   1   7   13.90    1.10
  -1   1   7   13.80    1.20
   0  -1  -7   58.19    2.30
   0  -1  -7   59.99    2.40
   0   1   7   59.29    2.50
   0   1   7   57.79    2.20
   0   1   7   59.79    2.40
   0   1   7   56.19    2.10
   0   1   7   58.19    2.20
   0   1   7   56.79    2.10
   0   1   7   54.69    2.30
  -1  -1  -7   54.19    2.40
  -1  -1  -7   62.29    2.40
   1   1   7   53.29    2.10
   1   1   7   53.59    2.40
   1   1   7   54.49    2.10
   1   1   7   54.29    2.20
   1   1   7   52.99    2.40
   1   1   7   52.09    2.10
  -2  -1  -7   18.20    1.60
  -2  -1  -7   19.20    1.40
   2   1   7   16.90    1.40
   2   1   7   19.80    1.50
   2   1   7   14.70    1.30
   2   1   7   17.20    1.30
   2   1   7   16.60    1.20
  -3  -1  -7  138.89    4.70
  -3  -1  -7  136.99    4.90
  -3  -1  -7  137.59    4.70
   3   1   7  133.89    4.90
   3   1   7  139.79    4.40
   3   1   7  130.59    4.40
   3   1   7  134.09    5.10
  -4  -1  -7   27.90    2.10
  -4  -1  -7   31.70    2.30
   4   1   7   28.80    1.90
   4   1   7   32.20    2.20
   4   1   7   25.50    2.40
   4   1   7   28.90    2.20
  -5  -1  -7   12.20    1.90
   5   1   7   18.00    2.10
   5   1   7   19.50    2.00
  -6  -1  -7    4.90    2.10
   6   1   7    7.70    1.70
   6   1   7    8.20    1.70
   5  -2  -7   -1.00    1.30
  -5   2   7   -0.80    1.20
   4  -2  -7    0.70    1.20
  -4   2   7    0.70    0.90
   3  -2  -7    3.80    1.00
   2  -2  -7   19.60    1.40
   2  -2  -7   22.10    2.00
  -2   2   7   19.20    2.00
  -2   2   7   23.70    1.20
  -2   2   7   19.40    1.70
   1  -2  -7   18.00    1.50
   1  -2  -7   15.40    1.30
   1  -2  -7   16.80    1.30
  -1   2   7   19.30    1.60
  -1   2   7   16.70    1.30
  -1   2   7   16.60    1.10
  -1   2   7   18.20    1.20
  -1   2   7   14.70    1.10
  -1   2   7   15.70    0.90
   0  -2  -7   23.90    1.50
   0  -2  -7   26.20    1.50
   0   2   7   25.50    1.50
   0   2   7   24.00    1.30
   0   2   7   23.30    1.20
   0   2   7   22.70    1.60
   0   2   7   23.90    1.50
  -1  -2  -7   10.10    1.10
  -1  -2  -7   11.20    1.10
   1   2   7    9.90    1.10
   1   2   7   10.50    0.90
   1   2   7   11.50    1.00
   1   2   7    9.30    1.10
   1   2   7   10.40    1.00
   1   2   7   10.70    1.00
  -2  -2  -7   64.39    2.70
  -2  -2  -7   63.99    2.60
   2   2   7   61.89    2.50
   2   2   7   60.39    2.80
   2   2   7   61.49    2.80
   2   2   7   63.69    2.70
  -3  -2  -7   32.60    2.00
  -3  -2  -7   32.00    2.00
  -3  -2  -7   33.40    2.10
   3   2   7   28.20    2.00
   3   2   7   32.80    2.00
   3   2   7   31.40    2.40
   3   2   7   32.50    1.90
   3   2   7   30.40    1.90
  -4  -2  -7   34.70    2.50
   4   2   7   38.70    2.30
   4   2   7   34.90    2.90
   4   2   7   35.60    2.20
   4   2   7   40.10    2.70
  -5  -2  -7   13.00    1.90
   5   2   7   13.50    2.00
   5   2   7   13.70    1.80
  -6  -2  -7    6.50    1.90
   6   2   7    3.70    1.50
   6   2   7    4.00    1.60
   5  -3  -7   20.80    2.30
  -5   3   7   17.30    2.10
   4  -3  -7   24.40    2.30
   3  -3  -7    5.20    1.10
  -3   3   7    5.50    1.20
   2  -3  -7   40.00    2.60
   2  -3  -7   41.10    2.00
  -2   3   7   38.80    2.20
   1  -3  -7    1.50    0.60
   1  -3  -7    2.20    0.80
  -1   3   7    2.40    0.70
  -1   3   7    3.50    1.00
  -1   3   7    2.40    0.50
  -1   3   7    2.80    0.80
  -1   3   7    2.60    0.40
   0  -3  -7   40.50    1.90
   0  -3  -7   41.20    1.80
   0   3   7   41.90    1.60
   0   3   7   40.70    2.00
   0   3   7   40.30    1.90
   0   3   7   45.00    2.30
   0   3   7   43.50    1.80
  -1  -3  -7   16.90    1.20
  -1  -3  -7   14.80    1.20
   1   3   7   15.90    1.20
   1   3   7   15.60    1.30
   1   3   7   16.40    1.40
   1   3   7   15.90    0.90
   1   3   7   14.50    1.30
   1   3   7   15.70    1.30
  -2  -3  -7   10.20    1.10
  -2  -3  -7   10.60    1.20
   2   3   7   10.40    1.30
   2   3   7   11.00    1.20
   2   3   7   10.20    1.20
   2   3   7   10.20    1.30
  -3  -3  -7    2.60    0.90
   3   3   7    3.20    1.00
   3   3   7    1.60    0.90
   3   3   7    2.90    0.90
   3   3   7    2.60    1.10
  -4  -3  -7   15.60    1.80
   4   3   7   16.70    1.90
   4   3   7   18.40    1.80
   4   3   7   16.20    2.30
  -5  -3  -7    1.60    1.30
   5   3   7    4.40    1.40
   5   3   7    3.10    1.20
  -6  -3  -7    3.10    1.70
   6   3   7    2.90    1.70
   6   3   7    6.00    1.70
   4  -4  -7    2.10    1.20
   3  -4  -7    6.20    1.10
  -3   4   7    8.70    1.40
   2  -4  -7   27.90    1.60
  -2   4   7   29.00    1.70
  -2   4   7   25.60    1.80
   1  -4  -7   34.90    1.70
   1  -4  -7   36.10    2.30
  -1   4   7   37.40    1.80
  -1   4   7   33.80    1.50
  -1   4   7   33.90    2.40
  -1   4   7   32.10    1.90
   0  -4  -7   66.89    2.40
   0   4   7   68.59    3.10
   0   4   7   65.59    2.50
   0   4   7   66.69    2.60
   0   4   7   65.79    2.10
   0   4   7   71.29    2.80
  -1  -4  -7    3.20    0.70
   1   4   7    2.90    0.70
   1   4   7    2.50    0.80
   1   4   7    2.70    0.80
   1   4   7    3.50    0.90
   1   4   7    2.80    0.80
  -2  -4  -7    5.90    0.90
   2   4   7    5.20    1.10
   2   4   7    6.40    1.00
   2   4   7    6.90    1.10
   2   4   7    5.70    1.20
  -3  -4  -7    9.80    1.20
   3   4   7    7.80    1.50
   3   4   7   11.10    1.40
   3   4   7   11.50    1.50
   3   4   7    9.60    1.30
  -4  -4  -7    3.00    1.00
   4   4   7    5.50    1.20
   4   4   7    6.10    1.30
   4   4   7    7.10    1.60
  -5  -4  -7   27.20    2.50
   5   4   7   34.50    2.80
   5   4   7   20.20    2.40
  -6  -4  -7   11.10    2.00
   6   4   7   17.80    2.40
   6   4   7   12.70    2.20
   4  -5  -7    7.30    1.20
  -4   5   7    7.60    1.50
   3  -5  -7   10.80    1.20
  -3   5   7   12.00    1.60
   2  -5  -7   18.70    1.40
  -2   5   7   18.10    1.70
   1  -5  -7    9.60    1.40
   1  -5  -7   10.10    0.90
  -1   5   7   10.40    0.90
  -1   5   7    9.70    1.20
  -1   5   7   11.90    1.10
   0  -5  -7   13.40    1.00
   0   5   7   13.80    1.30
   0   5   7   13.10    1.20
   0   5   7   13.50    1.20
  -1  -5  -7   28.00    1.40
   1   5   7   32.10    1.90
   1   5   7   26.40    1.60
   1   5   7   30.90    2.10
   1   5   7   30.00    1.90
  -2  -5  -7   21.80    1.30
   2   5   7   23.30    2.10
   2   5   7   25.40    2.00
   2   5   7   21.80    1.70
   2   5   7   20.60    1.70
  -3  -5  -7   20.40    1.50
   3   5   7   19.60    1.70
   3   5   7   21.30    2.00
   3   5   7   19.60    1.80
   3   5   7   15.00    2.10
  -4  -5  -7    5.10    1.10
   4   5   7    4.90    1.50
   4   5   7    5.60    1.20
   4   5   7    2.40    1.20
  -5  -5  -7    5.90    1.40
   5   5   7    3.90    1.30
   5   5   7    3.10    1.30
   5   5   7    7.00    1.70
   5   5   7    4.80    1.40
  -6  -5  -7   -1.60    1.40
   6   5   7    4.10    1.90
   6   5   7    0.50    1.40
   4  -6  -7    2.60    1.60
  -4   6   7    4.10    1.30
   3  -6  -7   16.00    1.00
  -3   6   7   19.10    2.00
   2  -6  -7   85.19    2.40
  -2   6   7   80.59    3.40
  -1   6   7   34.00    2.10
   0   6   7    6.50    0.90
   0   6   7    5.70    1.10
   1   6   7    9.70    1.30
   1   6   7    6.80    1.10
  -2  -6  -7   30.00    1.20
   2   6   7   29.90    2.30
   2   6   7   28.80    2.00
   2   6   7   27.30    2.40
  -3  -6  -7   33.40    1.50
   3   6   7   31.30    2.60
   3   6   7   35.30    2.30
  -4  -6  -7    8.30    1.00
   4   6   7    6.50    1.40
   4   6   7    7.90    1.80
  -5  -6  -7    1.00    1.00
   5   6   7    0.00    1.10
   5   6   7    0.90    1.20
   5   6   7   -0.40    1.50
  -6  -6  -7    0.40    1.10
   6   6   7    0.70    1.30
   4  -7  -7    2.80    1.70
  -4   7   7    4.00    1.40
   3  -7  -7    5.30    1.60
  -3   7   7    6.30    1.30
   2  -7  -7  148.69    5.70
  -2   7   7  146.29    5.10
   1  -7  -7  111.29    4.40
  -1   7   7  108.19    4.00
   0   7   7    7.10    1.00
   1   7   7   12.60    1.40
   1   7   7   10.60    1.40
   2   7   7    5.70    1.20
   2   7   7    4.40    1.20
   3   7   7   12.10    1.90
   3   7   7   11.40    1.60
   4   7   7    2.90    1.40
   4   7   7    2.80    1.60
   5   7   7   -2.40    1.20
   5   7   7    0.10    1.10
   5   7   7    2.40    1.50
   3  -8  -7   23.80    2.60
  -3   8   7   28.60    2.40
   2  -8  -7    9.10    1.60
  -2   8   7    9.70    1.40
   1  -8  -7   13.90    1.70
  -1   8   7   11.90    1.40
   0  -8  -7    6.70    1.10
   0   8   7    6.50    1.10
   1   8   7    5.40    1.10
   1   8   7    4.30    1.20
   2   8   7    5.10    1.30
   2   8   7    4.60    1.20
   3   8   7   12.20    1.60
   3   8   7   11.50    2.10
   4   8   7    2.20    1.30
   4   8   7    6.00    2.00
   5   8   7   -2.10    1.60
   5   8   7    2.70    1.30
   5   8   7    0.50    1.30
   3  -9  -7    4.90    1.70
  -3   9   7    5.00    1.50
   2  -9  -7    6.40    1.50
  -2   9   7    7.20    1.30
   1  -9  -7    5.70    1.30
  -1   9   7    6.60    1.20
   0   9   7   36.30    2.20
   1   9   7   38.30    2.70
   1   9   7   39.80    2.40
   2   9   7    4.70    1.30
   2   9   7    5.10    1.20
   3   9   7    6.90    1.40
   3   9   7    7.90    2.00
   4   9   7    5.20    2.10
   4   9   7    7.20    1.70
   2 -10  -7    8.70    1.70
  -2  10   7    7.20    1.40
  -1  10   7    3.80    1.10
   0  10   7    7.20    1.20
   1  10   7    6.70    1.30
   2  10   7   17.20    1.80
   2  10   7   19.10    2.50
   3  10   7    2.40    1.70
   3  10   7    2.90    1.30
   4  10   7    4.40    1.60
   4  10   7    4.80    2.10
  -1  11   7   12.60    1.60
   0  11   7    2.00    1.10
   1  11   7    8.00    1.40
   2  11   7    2.00    1.60
   2  11   7    1.30    1.10
   3  11   7   -0.40    1.10
   3  11   7    2.40    1.90
   1   7  -8    3.60    1.10
   0   7  -8    2.90    1.00
   0  -7   8    4.20    1.40
  -1   7  -8    3.90    1.10
   1  -7   8    2.30    1.30
  -2   7  -8    0.20    0.90
   2   6  -8   14.30    1.60
  -2  -6   8   10.20    1.90
  -1  -6   8   71.59    3.80
  -1  -6   8   70.49    4.00
   0   6  -8    8.30    1.20
   0  -6   8    9.60    1.80
   0  -6   8    9.80    1.70
  -1   6  -8   14.30    1.60
   1  -6   8   15.10    1.90
   1  -6   8   18.40    2.40
  -2   6  -8    3.90    1.10
   2  -6   8    7.20    1.50
   2  -6   8    4.40    1.80
  -3   6  -8    3.20    1.20
   3  -6   8    6.40    1.50
   3   5  -8    4.00    1.40
   2   5  -8    5.70    1.20
  -2  -5   8    8.00    1.60
  -2  -5   8    6.30    1.60
   1   5  -8   16.40    1.50
  -1  -5   8   14.60    2.00
  -1  -5   8   14.70    1.80
   0   5  -8   18.20    1.70
   0  -5   8   18.50    2.10
   0  -5   8   19.50    1.90
  -1   5  -8   36.10    2.30
   1  -5   8   41.00    2.50
   1  -5   8   35.70    2.90
  -2   5  -8   12.90    1.50
   2  -5   8   13.40    1.70
   2  -5   8   13.20    2.10
  -3   5  -8   17.70    1.90
   3  -5   8   17.80    1.90
   3  -5   8   22.10    2.20
  -4   5  -8    7.00    1.60
   4  -5   8    7.90    1.50
   4  -5   8    6.00    1.40
   3   4  -8   46.70    2.60
  -3  -4   8   35.30    3.00
   2   4  -8    8.00    1.20
  -2  -4   8    8.70    1.50
  -2  -4   8    8.50    1.40
   1   4  -8    9.60    1.30
  -1  -4   8   10.90    1.50
  -1  -4   8    9.30    1.50
   0   4  -8   19.90    1.70
   0  -4   8   23.20    1.90
   0  -4   8   21.40    2.10
  -1   4  -8   11.10    1.40
   1  -4   8    9.80    1.70
   1  -4   8   12.10    1.50
  -2   4  -8   14.20    1.60
   2  -4   8   12.40    1.50
   2  -4   8   12.90    1.50
   2  -4   8   10.50    1.90
  -3   4  -8   28.80    2.30
   3  -4   8   27.70    2.10
   3  -4   8   28.30    2.10
  -4   4  -8    8.20    1.40
   4  -4   8    9.20    1.50
   4   3  -8    0.60    1.20
   3   3  -8    6.90    1.30
  -3  -3   8    5.20    1.60
   2   3  -8    5.80    1.10
  -2  -3   8    7.70    1.30
  -2  -3   8    5.40    1.20
   1   3  -8   45.30    2.40
  -1  -3   8   43.40    2.40
  -1  -3   8   48.10    2.70
   0   3  -8   25.80    1.80
   0  -3   8   23.10    2.00
   0  -3   8   23.00    1.70
  -1   3  -8  204.78    6.20
   1  -3   8  187.58    6.60
   1  -3   8  193.28    6.20
   1  -3   8  198.18    6.50
  -2   3  -8   58.09    2.80
   2  -3   8   55.59    2.70
   2  -3   8   52.39    2.80
   2  -3   8   47.50    3.10
  -3   3  -8   43.20    2.60
   3  -3   8   48.20    2.80
  -4   3  -8   11.20    1.70
   4  -3   8   10.10    1.60
  -5   3  -8    8.00    1.70
   5  -3   8   10.10    1.70
  -4  -2   8   -0.70    1.20
  -4  -2   8    0.50    0.90
   3   2  -8    7.20    1.30
  -3  -2   8    7.10    1.00
  -3  -2   8    4.90    1.50
   2   2  -8   14.00    1.40
  -2  -2   8   15.10    1.50
  -2  -2   8   14.40    1.70
  -2  -2   8   13.60    1.20
   1   2  -8   96.79    3.70
  -1  -2   8  102.59    3.80
  -1  -2   8   98.19    3.90
  -1  -2   8  104.39    3.10
   0   2  -8   51.89    2.40
   0  -2   8   48.70    2.50
   0  -2   8   47.80    2.50
   0  -2   8   48.50    2.40
  -1   2  -8   65.39    2.80
   1  -2   8   62.79    3.00
   1  -2   8   62.89    3.00
   1  -2   8   61.59    2.70
  -2   2  -8   43.90    2.30
   2  -2   8   45.00    2.50
   2  -2   8   40.80    2.60
  -3   2  -8   23.90    2.20
   3  -2   8   25.20    1.10
   3  -2   8   26.20    2.10
  -4   2  -8    5.30    1.40
   4  -2   8    6.00    0.70
   4  -2   8    3.40    1.10
  -5   2  -8    6.30    1.80
   5  -2   8    6.90    1.40
   5  -2   8    7.40    0.80
   4   1  -8    6.10    1.50
  -4  -1   8    6.30    1.20
   3   1  -8    3.20    1.10
   3   1  -8    2.90    1.10
  -3  -1   8    2.80    1.20
  -3  -1   8    2.20    0.90
   2   1  -8    3.00    1.00
   2   1  -8    1.80    0.90
  -2  -1   8    2.10    0.90
  -2  -1   8    3.50    0.80
  -2  -1   8    2.70    0.90
   1   1  -8  188.08    5.90
   1   1  -8  189.28    5.80
  -1  -1   8  192.38    6.00
  -1  -1   8  181.38    5.80
   0   1  -8  169.68    5.40
   0   1  -8  168.08    5.30
   0  -1   8  166.08    5.40
   0  -1   8  167.08    5.50
   0  -1   8  164.68    5.20
  -1   1  -8   47.70    2.40
  -1   1  -8   44.50    2.40
   1  -1   8   43.00    2.10
   1  -1   8   47.70    2.40
   1  -1   8   42.40    2.30
   1  -1   8   44.20    1.70
  -2   1  -8   41.10    2.20
  -2   1  -8   39.00    2.40
   2  -1   8   41.90    2.40
   2  -1   8   35.70    2.30
   2  -1   8   41.20    1.70
  -3   1  -8  100.89    4.00
   3  -1   8  102.89    4.30
   3  -1   8  105.59    3.30
  -4   1  -8   33.50    2.50
   4  -1   8   36.50    2.00
   4  -1   8   36.80    2.70
  -5   1  -8   36.30    2.80
   5  -1   8   34.70    2.10
   5  -1   8   37.80    2.70
   4   0  -8    0.80    1.40
  -4   0   8    1.00    1.00
   3   0  -8   10.60    1.60
  -3   0   8    7.30    1.10
   2   0  -8    3.40    1.00
   2   0  -8    3.30    1.00
  -2   0   8    4.40    1.10
  -2   0   8    4.10    0.90
   1   0  -8   86.89    3.30
   1   0  -8   84.39    3.30
  -1   0   8   84.19    3.10
  -1   0   8   80.59    3.20
   0   0  -8  191.08    5.90
   0   0  -8  198.58    6.00
   0   0   8  186.98    5.90
   0   0   8  190.68    6.10
   0   0   8  191.88    5.50
   0   0   8  197.78    5.80
  -1   0  -8   13.00    1.40
  -1   0  -8   13.30    1.40
   1   0   8   11.60    1.30
   1   0   8   12.90    1.00
   1   0   8   14.00    0.90
   1   0   8   12.90    1.30
  -2   0  -8   29.50    2.10
  -2   0  -8   25.30    1.80
   2   0   8   30.60    2.00
   2   0   8   26.40    1.90
   2   0   8   30.30    1.60
  -3   0  -8   49.00    2.80
  -3   0  -8   49.10    2.60
   3   0   8   50.29    2.70
   3   0   8   52.09    2.30
  -4   0  -8   37.50    2.60
  -4   0  -8   39.30    2.90
   4   0   8   43.00    2.90
   4   0   8   43.30    2.30
  -5   0  -8   22.00    2.60
   5   0   8   36.00    2.30
   5   0   8   28.50    2.70
   6   0   8    3.80    1.40
   4  -1  -8    1.50    1.20
  -4   1   8    1.70    1.10
   3  -1  -8    4.70    1.20
   2  -1  -8   38.40    2.40
   2  -1  -8   36.40    2.10
  -2   1   8   37.90    2.20
  -2   1   8   35.70    1.80
   1  -1  -8    1.20    0.70
   1  -1  -8    0.90    0.80
   1  -1  -8    1.20    0.60
  -1   1   8   -0.20    0.50
  -1   1   8   -0.20    0.60
  -1   1   8    0.20    0.50
   0  -1  -8   14.60    1.30
   0  -1  -8   16.10    1.40
   0   1   8   14.50    1.10
   0   1   8   14.70    1.10
   0   1   8   14.00    1.10
   0   1   8   15.80    1.30
   0   1   8   15.80    1.20
   0   1   8   14.30    1.40
  -1  -1  -8   13.20    1.40
  -1  -1  -8   12.70    1.40
   1   1   8   11.00    1.00
   1   1   8   13.30    1.10
   1   1   8   14.40    1.40
   1   1   8   13.30    1.20
  -2  -1  -8   27.00    1.80
  -2  -1  -8   27.70    1.90
   2   1   8   27.20    2.00
   2   1   8   27.80    1.60
   2   1   8   27.10    1.70
  -3  -1  -8    9.40    1.30
  -3  -1  -8    9.60    1.50
   3   1   8    9.00    1.20
   3   1   8    7.60    1.10
   3   1   8    9.90    1.50
  -4  -1  -8   30.70    2.60
   4   1   8   28.30    1.90
   4   1   8   28.70    2.50
   4   1   8   33.70    2.20
  -5  -1  -8   -1.20    1.20
   5   1   8    2.80    1.30
   5   1   8    2.30    1.30
  -6  -1  -8    3.70    1.80
   6   1   8    8.40    1.70
   6   1   8    4.20    1.50
   4  -2  -8   17.40    2.00
  -4   2   8   14.10    1.70
   3  -2  -8    4.40    1.30
   2  -2  -8   55.49    3.00
   2  -2  -8   56.39    2.60
   1  -2  -8    5.90    1.00
   1  -2  -8    5.30    1.00
   1  -2  -8    5.20    1.20
  -1   2   8    6.80    1.00
  -1   2   8    6.30    0.90
  -1   2   8    5.40    0.70
  -1   2   8    4.00    1.10
  -1   2   8    5.30    1.00
  -1   2   8    6.50    0.90
   0  -2  -8    9.50    1.20
   0  -2  -8   11.80    1.20
   0   2   8   10.50    1.00
   0   2   8   11.10    1.20
   0   2   8   11.30    1.00
   0   2   8   11.40    1.20
   0   2   8   12.10    1.10
   0   2   8   13.00    1.30
  -1  -2  -8   19.70    1.50
  -1  -2  -8   21.40    1.50
   1   2   8   20.30    1.50
   1   2   8   19.80    1.30
   1   2   8   21.00    1.40
   1   2   8   20.00    1.30
   1   2   8   20.80    1.60
   1   2   8   20.50    1.40
  -2  -2  -8   63.79    2.80
  -2  -2  -8   63.89    2.80
   2   2   8   68.99    2.70
   2   2   8   61.99    2.70
   2   2   8   62.89    2.90
   2   2   8   70.89    3.10
   2   2   8   60.59    2.90
  -3  -2  -8    3.70    1.20
  -3  -2  -8    4.20    1.30
   3   2   8    4.00    1.00
   3   2   8    2.50    0.90
   3   2   8    4.20    1.20
   3   2   8    3.40    1.10
  -4  -2  -8    5.60    1.50
   4   2   8    7.90    1.50
   4   2   8    8.20    1.50
  -5  -2  -8    6.10    1.80
   5   2   8    8.00    1.60
   5   2   8    7.20    1.50
  -6  -2  -8    2.00    1.50
   6   2   8    2.40    1.60
   6   2   8    1.50    1.40
   4  -3  -8    9.60    1.70
   3  -3  -8   21.00    2.00
   2  -3  -8    2.10    1.00
   2  -3  -8    1.90    0.90
  -2   3   8    1.20    0.90
   1  -3  -8    2.40    0.70
   1  -3  -8    2.40    0.90
  -1   3   8    2.10    0.60
  -1   3   8    2.20    0.50
  -1   3   8    1.60    0.80
  -1   3   8    1.70    0.70
  -1   3   8    0.70    0.80
  -1   3   8    2.10    0.60
   0  -3  -8   28.00    1.60
   0   3   8   29.20    1.40
   0   3   8   31.00    1.90
   0   3   8   33.20    1.80
   0   3   8   31.00    1.70
   0   3   8   30.60    2.00
  -1  -3  -8    0.20    0.60
   1   3   8    1.30    0.50
   1   3   8    0.30    0.50
   1   3   8    0.30    0.70
   1   3   8    0.70    0.60
   1   3   8   -0.10    0.70
   1   3   8    0.80    0.60
  -2  -3  -8    0.00    0.70
   2   3   8    1.10    0.80
   2   3   8   -0.40    0.60
   2   3   8    0.80    0.60
   2   3   8    0.90    0.70
   2   3   8   -1.10    0.70
  -3  -3  -8   34.00    2.20
   3   3   8   37.30    2.50
   3   3   8   33.10    2.10
   3   3   8   34.50    2.10
   3   3   8   33.40    2.50
  -4  -3  -8    6.90    1.50
   4   3   8    5.90    1.50
   4   3   8    5.50    1.20
  -5  -3  -8    6.80    1.60
   5   3   8    6.90    1.50
   5   3   8   10.90    1.70
  -6  -3  -8    1.80    1.70
   6   3   8    3.80    1.70
   6   3   8    0.20    1.20
   4  -4  -8   11.50    1.70
   3  -4  -8   19.50    1.80
   2  -4  -8   10.10    1.30
  -2   4   8   11.10    1.40
  -2   4   8    9.10    1.20
   1  -4  -8   10.60    1.10
   1  -4  -8   10.70    1.50
  -1   4   8   10.00    1.30
  -1   4   8    8.90    1.10
  -1   4   8    9.90    1.00
   0  -4  -8    4.40    0.80
   0   4   8    1.90    0.70
   0   4   8    3.20    0.80
   0   4   8    1.50    0.80
   0   4   8    2.00    0.90
  -1  -4  -8   11.20    1.10
   1   4   8    9.30    1.30
   1   4   8   11.40    1.30
   1   4   8    9.50    1.30
   1   4   8    9.90    1.10
   1   4   8   10.60    1.40
  -2  -4  -8    1.30    0.70
   2   4   8    2.50    0.90
   2   4   8    2.40    0.80
   2   4   8    1.80    0.90
   2   4   8    1.50    1.00
   2   4   8    1.10    0.90
  -3  -4  -8    1.40    0.80
   3   4   8    2.20    1.10
   3   4   8    1.10    1.10
   3   4   8    2.30    1.00
   3   4   8    2.60    1.00
  -4  -4  -8    1.00    1.10
   4   4   8    4.40    1.30
   4   4   8    1.30    1.10
   4   4   8    2.80    1.30
  -5  -4  -8    5.20    1.50
   5   4   8    2.70    1.40
   5   4   8    3.10    1.50
  -6  -4  -8    2.40    1.70
   6   4   8    4.10    1.80
   6   4   8    3.20    1.70
   4  -5  -8   33.10    2.30
   3  -5  -8   15.10    1.50
  -3   5   8   16.30    1.80
   2  -5  -8   34.70    1.90
  -2   5   8   33.10    2.30
   1  -5  -8   27.20    1.60
  -1   5   8   28.50    1.70
  -1   5   8   25.80    2.00
   0  -5  -8   40.80    1.80
   0   5   8   41.40    2.30
   0   5   8   42.40    2.10
   0   5   8   38.30    2.00
  -1  -5  -8   57.29    2.20
   1   5   8   56.89    2.60
   1   5   8   57.59    2.80
   1   5   8   64.19    2.90
  -2  -5  -8    1.00    0.60
   2   5   8    3.00    1.10
   2   5   8    3.10    1.00
   2   5   8    1.60    1.00
   2   5   8    3.20    0.90
  -3  -5  -8    1.10    0.80
   3   5   8    2.10    1.10
   3   5   8    2.40    1.10
   3   5   8    2.50    1.00
  -4  -5  -8    3.40    1.10
   4   5   8    1.20    1.10
   4   5   8    0.30    1.00
   4   5   8    3.10    1.30
  -5  -5  -8    2.10    1.20
   5   5   8   -0.40    1.40
   5   5   8    3.00    1.40
  -6  -5  -8   -0.40    1.60
   6   5   8   -1.20    1.50
   6   5   8    0.80    1.50
   4  -6  -8    0.10    1.40
   4  -6  -8    2.80    0.90
   3  -6  -8   18.90    1.50
  -3   6   8   23.70    2.20
   2  -6  -8   59.19    2.20
  -2   6   8   54.49    3.00
   1  -6  -8   49.50    1.90
  -1   6   8   45.20    2.50
   0  -6  -8   46.30    1.70
   0   6   8   43.10    2.20
   0   6   8   47.40    2.60
  -1  -6  -8   11.00    1.00
   1   6   8   12.10    1.40
   1   6   8   11.20    1.40
  -2  -6  -8   23.90    1.30
   2   6   8   20.50    1.90
   2   6   8   21.20    1.90
  -3  -6  -8    1.60    0.70
   3   6   8    0.60    1.20
   3   6   8    1.30    1.00
  -4  -6  -8    0.90    0.80
   4   6   8    1.90    1.40
   4   6   8   -1.10    1.10
  -5  -6  -8    1.00    1.10
   5   6   8    0.20    1.20
   5   6   8   -0.10    1.20
   3  -7  -8    8.50    1.90
  -3   7   8   10.20    1.70
  -2   7   8   25.10    2.40
  -1   7   8   39.70    2.40
   0   7   8   51.49    2.50
   0   7   8   52.29    2.70
   1   7   8   15.80    1.70
   1   7   8   19.00    1.90
   2   7   8   27.40    2.20
   2   7   8   27.10    2.50
   3   7   8   34.30    2.50
   3   7   8   40.30    3.20
  -4  -7  -8   10.20    0.90
   4   7   8    6.90    1.60
   4   7   8   11.90    2.20
  -5  -7  -8    2.70    0.80
   5   7   8    2.70    1.40
   5   7   8    1.90    1.50
   3  -8  -8    3.30    1.60
  -3   8   8    8.50    1.60
   2  -8  -8    3.50    1.40
  -2   8   8    5.70    1.50
   1  -8  -8   35.60    2.60
  -1   8   8   42.40    2.50
   0   8   8   12.20    1.60
   1   8   8   16.80    1.80
   1   8   8   13.40    1.60
   2   8   8   16.30    1.80
   2   8   8   17.10    2.20
   3   8   8   13.10    1.90
   3   8   8   17.90    2.40
   4   8   8   76.19    4.50
   4   8   8   56.09    3.70
   5   8   8    5.80    2.10
   5   8   8    1.20    1.70
   2  -9  -8    4.60    1.50
  -2   9   8    8.30    1.70
   1  -9  -8    6.60    1.50
  -1   9   8    7.10    1.50
   0   9   8   25.90    2.20
   1   9   8   30.50    2.40
   1   9   8   24.20    2.30
   2   9   8   17.50    2.00
   2   9   8   21.40    2.50
   3   9   8    2.50    1.70
   3   9   8    7.10    1.60
   4   9   8   -0.50    1.40
   4   9   8    0.30    1.50
  -1  10   8    2.60    1.10
   0  10   8    5.90    1.30
   1  10   8   13.60    1.70
   2  10   8    1.30    1.30
   2  10   8    0.30    1.30
   3  10   8    1.10    1.50
   3  10   8    0.40    1.40
   4  10   8    4.00    1.70
   0  11   8    6.30    1.40
   1  11   8    1.20    1.20
   2  11   8    5.70    1.60
   2  11   8    7.70    2.00
   1   6  -9    0.70    1.00
   0   6  -9   10.20    1.50
   0  -6   9   11.70    1.80
  -1   6  -9    1.30    1.10
   1  -6   9    0.10    1.00
   1  -6   9   -1.10    1.60
  -2   6  -9    5.30    1.30
   2   5  -9    7.10    1.50
  -2  -5   9    7.40    1.70
   1   5  -9   24.70    2.20
  -1  -5   9   20.30    2.30
  -1  -5   9   22.40    2.50
   0   5  -9   13.30    1.70
   0  -5   9   14.30    1.70
   0  -5   9   12.80    2.00
  -1   5  -9   16.20    1.80
   1  -5   9   12.90    1.70
   1  -5   9   13.70    2.10
  -2   5  -9   10.00    1.50
   2  -5   9   11.30    1.70
   2  -5   9   16.30    2.40
  -3   5  -9    0.40    1.20
   3  -5   9    0.70    1.20
   3  -5   9    1.60    1.30
   2   4  -9   23.20    2.10
  -2  -4   9   27.30    2.40
  -2  -4   9   24.20    2.30
   1   4  -9    3.60    1.10
  -1  -4   9    9.10    1.60
  -1  -4   9    5.20    1.20
   0   4  -9   21.70    1.80
   0  -4   9   18.90    1.90
   0  -4   9   22.30    2.30
  -1   4  -9   22.90    2.00
   1  -4   9   22.10    2.00
   1  -4   9   24.40    2.60
  -2   4  -9   14.50    1.70
   2  -4   9   14.00    1.90
   2  -4   9   14.00    1.70
   2  -4   9   15.60    2.20
  -3   4  -9    5.50    1.50
   3  -4   9    3.90    1.40
   3  -4   9    1.90    1.20
  -4   4  -9    8.70    1.70
   4  -4   9   12.40    1.70
   3   3  -9   -0.70    1.30
  -3  -3   9   -0.20    1.40
   2   3  -9    6.80    1.30
  -2  -3   9    6.30    1.20
  -2  -3   9    3.60    1.40
   1   3  -9    2.80    1.00
  -1  -3   9    2.40    1.10
  -1  -3   9    1.40    1.10
   0   3  -9   14.10    1.50
   0  -3   9    9.00    1.50
   0  -3   9   11.10    1.40
  -1   3  -9    7.00    1.20
   1  -3   9    4.20    1.40
   1  -3   9    6.60    1.20
   1  -3   9    6.50    1.30
  -2   3  -9   10.90    1.50
   2  -3   9   10.80    1.50
   2  -3   9    9.70    1.80
   2  -3   9   10.50    1.50
  -3   3  -9   10.80    1.60
   3  -3   9   10.50    1.70
   3  -3   9   12.80    1.70
  -4   3  -9    7.10    1.70
   4  -3   9    6.50    1.40
   3   2  -9   29.70    2.30
  -3  -2   9   25.80    2.50
  -3  -2   9   31.50    1.80
   2   2  -9    3.20    1.00
  -2  -2   9    2.60    1.00
  -2  -2   9    2.50    1.20
  -2  -2   9    2.90    0.80
   1   2  -9   14.00    1.50
  -1  -2   9   14.90    1.70
  -1  -2   9   15.40    1.00
  -1  -2   9   15.10    1.60
   0   2  -9    4.60    1.10
   0  -2   9    3.00    1.10
   0  -2   9    3.50    1.00
  -1   2  -9    5.80    1.30
   1  -2   9    5.90    1.10
   1  -2   9    6.60    1.30
   1  -2   9    5.30    1.20
  -2   2  -9   43.60    2.50
   2  -2   9   47.20    2.70
   2  -2   9   46.00    2.80
   2  -2   9   46.50    3.00
  -3   2  -9    0.60    1.10
   3  -2   9    1.50    1.20
  -4   2  -9    5.60    1.40
   4  -2   9    7.50    1.50
  -5   2  -9    7.70    1.70
   5  -2   9    8.70    1.80
  -3  -1   9    4.60    1.40
  -3  -1   9    5.60    1.10
   2   1  -9    6.90    1.20
  -2  -1   9    7.40    1.40
  -2  -1   9    7.60    1.00
  -2  -1   9    7.40    1.20
   1   1  -9    5.70    1.10
  -1  -1   9    4.10    1.10
  -1  -1   9    3.30    0.90
   0   1  -9   64.49    2.90
   0  -1   9   63.69    3.00
   0  -1   9   68.69    3.20
   0  -1   9   65.29    2.80
  -1   1  -9    8.40    1.30
   1  -1   9   10.50    1.40
   1  -1   9    8.50    1.10
   1  -1   9   10.10    1.40
  -2   1  -9   12.50    1.50
   2  -1   9   11.60    1.10
   2  -1   9   14.90    1.80
   2  -1   9   11.20    1.60
  -3   1  -9   13.00    1.70
   3  -1   9   12.80    1.10
   3  -1   9   12.20    1.70
  -4   1  -9    4.50    1.40
   4  -1   9    5.70    1.00
   4  -1   9    2.30    1.30
   5  -1   9    7.80    1.70
   5  -1   9    9.70    1.20
   4   0  -9   24.90    2.70
  -4   0   9   26.40    2.20
  -4   0   9   18.00    2.30
   3   0  -9    2.90    1.20
  -3   0   9    2.20    1.00
  -3   0   9    1.30    1.20
   2   0  -9   13.40    1.50
   2   0  -9   15.40    1.70
  -2   0   9   13.00    1.40
  -2   0   9   14.20    1.60
   1   0  -9   32.70    2.30
   1   0  -9   35.70    2.20
  -1   0   9   35.10    2.00
  -1   0   9   35.70    2.20
   0   0  -9   18.70    1.70
   0   0  -9   16.90    1.70
   0   0   9   17.70    1.50
   0   0   9   15.70    1.50
   0   0   9   18.60    1.60
  -1   0  -9   26.50    2.00
  -1   0  -9   25.20    1.90
   1   0   9   26.60    1.90
   1   0   9   27.20    1.80
   1   0   9   24.20    1.90
   1   0   9   25.90    1.40
  -2   0  -9   -0.60    0.80
  -2   0  -9   -1.90    0.90
   2   0   9   -0.60    0.90
   2   0   9    0.10    0.60
   2   0   9    0.40    0.80
  -3   0  -9   12.20    1.80
  -3   0  -9   11.10    1.60
   3   0   9   11.90    1.30
   3   0   9   13.80    1.60
  -4   0  -9   18.40    2.00
  -4   0  -9   23.60    2.40
   4   0   9   24.30    1.90
   4   0   9   22.30    2.30
  -5   0  -9   14.30    2.70
   5   0   9   22.80    2.00
   5   0   9   20.50    2.40
   4  -1  -9    1.40    1.50
  -4   1   9    0.30    1.10
   3  -1  -9    5.30    1.30
  -3   1   9    3.00    1.20
   2  -1  -9   28.00    2.20
  -2   1   9   25.00    1.90
   1  -1  -9    3.90    1.00
   1  -1  -9    5.50    1.10
  -1   1   9    6.20    1.00
  -1   1   9    6.40    1.10
  -1   1   9    6.10    1.10
   0  -1  -9   53.19    2.60
   0  -1  -9   51.99    2.50
   0   1   9   51.79    2.50
   0   1   9   52.59    2.20
   0   1   9   52.19    2.30
   0   1   9   49.40    2.40
  -1  -1  -9   10.80    1.30
  -1  -1  -9   10.50    1.40
   1   1   9   10.60    1.40
   1   1   9    9.90    1.00
   1   1   9   10.10    1.20
  -2  -1  -9    1.60    1.10
  -2  -1  -9    1.20    0.90
   2   1   9    1.10    0.80
   2   1   9    1.30    0.70
   2   1   9    0.30    0.70
  -3  -1  -9    2.90    1.20
  -3  -1  -9    2.80    1.20
   3   1   9    2.50    1.00
   3   1   9    1.00    0.90
   3   1   9    2.10    0.90
  -4  -1  -9    0.30    1.10
   4   1   9    1.10    1.10
   4   1   9    1.00    1.10
  -5  -1  -9   31.60    3.10
   5   1   9   33.10    2.50
   5   1   9   32.20    2.90
   4  -2  -9    7.80    1.70
  -4   2   9    6.20    1.40
   3  -2  -9   29.70    2.40
   2  -2  -9   14.40    1.70
  -2   2   9   14.10    1.50
   1  -2  -9   10.90    1.40
  -1   2   9    7.30    1.10
  -1   2   9    7.70    1.20
  -1   2   9    7.50    1.00
  -1   2   9    9.00    1.00
   0  -2  -9    6.40    1.20
   0   2   9    5.90    0.80
   0   2   9    5.30    0.90
   0   2   9    5.40    0.90
   0   2   9    6.80    1.00
  -1  -2  -9   14.80    1.50
  -1  -2  -9   14.20    1.50
   1   2   9   14.40    1.50
   1   2   9   13.80    1.30
   1   2   9   12.90    1.30
  -2  -2  -9    2.20    1.00
  -2  -2  -9    0.70    1.00
   2   2   9    0.80    0.80
   2   2   9    0.30    0.90
  -3  -2  -9   12.40    1.60
   3   2   9   14.50    1.50
   3   2   9   12.20    1.70
   3   2   9   11.50    1.30
  -4  -2  -9   -0.10    1.20
   4   2   9    1.30    1.30
   4   2   9    1.30    0.90
  -5  -2  -9    1.50    1.40
   5   2   9    2.00    1.40
   5   2   9    2.10    1.40
   4  -3  -9   23.20    2.40
   3  -3  -9   34.50    2.50
   2  -3  -9   -0.80    0.90
   1  -3  -9   44.10    2.20
   1  -3  -9   42.80    2.60
  -1   3   9   43.30    2.20
  -1   3   9   44.40    2.20
  -1   3   9   41.20    2.00
   0  -3  -9   17.80    1.50
   0   3   9   15.20    1.20
   0   3   9   16.60    1.40
   0   3   9   18.10    1.30
   0   3   9   15.90    1.40
   0   3   9   19.00    1.80
  -1  -3  -9   13.70    1.40
   1   3   9   12.70    1.50
   1   3   9   13.20    1.40
   1   3   9   13.50    1.40
   1   3   9   12.60    1.50
  -2  -3  -9    5.80    1.10
   2   3   9    4.00    1.00
   2   3   9    5.90    1.00
   2   3   9    5.00    1.30
  -3  -3  -9   12.70    1.70
   3   3   9   12.90    1.70
   3   3   9   13.70    1.60
  -4  -3  -9   10.50    1.60
   4   3   9   11.00    1.70
   4   3   9   11.00    1.90
  -5  -3  -9    1.90    1.40
   5   3   9    2.00    1.60
   5   3   9    0.40    1.30
   4  -4  -9   13.10    1.90
   3  -4  -9   15.70    1.80
   2  -4  -9   37.20    2.30
   1  -4  -9   12.60    1.70
   1  -4  -9   13.40    1.40
  -1   4   9   11.00    1.20
  -1   4   9   10.80    1.30
  -1   4   9   16.60    1.70
   0  -4  -9   39.60    2.10
   0   4   9   41.90    2.40
   0   4   9   36.60    1.70
   0   4   9   31.00    2.80
   0   4   9   39.50    2.10
   0   4   9   39.80    2.10
  -1  -4  -9   11.80    1.20
   1   4   9   11.60    1.40
   1   4   9   10.10    1.30
   1   4   9    9.00    1.40
   1   4   9    8.60    1.30
   1   4   9    8.00    1.30
  -2  -4  -9    8.20    1.20
   2   4   9    9.00    1.50
   2   4   9    6.10    1.20
   2   4   9    7.50    1.30
   2   4   9    6.10    1.30
   2   4   9    8.40    1.20
  -3  -4  -9    9.60    1.40
   3   4   9   10.30    1.60
   3   4   9    6.00    1.50
   3   4   9   10.00    1.60
   3   4   9   12.90    1.60
  -4  -4  -9    5.10    1.40
   4   4   9    1.70    1.20
   4   4   9    3.40    1.40
  -5  -4  -9    1.20    1.20
   5   4   9    1.30    1.30
   5   4   9    0.00    1.50
   3  -5  -9   13.70    1.60
   2  -5  -9   15.40    1.50
  -2   5   9   14.20    1.90
  -2   5   9   18.00    2.00
   1  -5  -9   31.10    1.90
  -1   5   9   32.50    2.10
  -1   5   9   34.90    2.30
   0  -5  -9   29.10    1.70
   0   5   9   25.00    1.80
   0   5   9   27.90    2.10
   0   5   9   26.30    1.80
  -1  -5  -9   30.00    1.70
   1   5   9   32.60    2.40
   1   5   9   29.00    2.00
   1   5   9   29.80    1.90
   1   5   9   33.00    2.30
  -2  -5  -9   18.70    1.60
   2   5   9   15.10    1.70
   2   5   9   20.10    1.90
   2   5   9   11.90    1.70
   2   5   9   18.20    1.80
  -3  -5  -9    4.80    1.10
   3   5   9    4.90    1.40
   3   5   9    6.80    1.60
   3   5   9    7.10    1.40
  -4  -5  -9    3.50    1.20
   4   5   9    6.10    1.40
   4   5   9    3.50    1.60
  -5  -5  -9    1.20    1.30
   5   5   9    0.30    1.20
   5   5   9    0.20    1.30
   3  -6  -9   16.80    1.50
  -3   6   9   14.90    2.20
   2  -6  -9   16.30    1.40
  -2   6   9   15.70    1.90
   1  -6  -9   30.60    1.70
  -1   6   9   29.90    2.40
   0   6   9    9.30    1.50
   0   6   9   10.50    1.30
  -1  -6  -9   49.99    2.00
   1   6   9   42.00    2.70
   1   6   9   43.40    2.60
  -2  -6  -9   24.40    1.50
   2   6   9   22.00    2.20
   2   6   9   22.30    2.20
  -3  -6  -9   21.00    1.60
   3   6   9   19.10    2.30
   3   6   9   13.70    1.90
  -4  -6  -9    2.90    1.00
   4   6   9    2.70    1.50
   4   6   9    3.10    1.40
  -5  -6  -9    4.10    1.30
   5   6   9    3.30    1.60
  -3   7   9    1.80    1.40
  -2   7   9    5.20    1.40
  -1   7   9    7.80    1.50
   0   7   9   20.50    2.10
   1   7   9   12.30    1.60
   1   7   9   13.60    1.70
  -2  -7  -9   16.60    0.90
   2   7   9   14.80    1.90
   2   7   9   15.90    2.00
  -3  -7  -9   29.70    1.40
   3   7   9   28.30    2.50
   3   7   9   28.20    2.90
  -4  -7  -9   16.60    1.30
   4   7   9   16.20    2.30
   4   7   9   14.80    2.10
  -5  -7  -9    3.20    1.00
   5   7   9    2.30    1.70
   5   7   9    5.50    1.70
   2  -8  -9    9.10    1.80
  -2   8   9   11.30    1.90
   1  -8  -9   78.39    4.00
  -1   8   9   78.99    3.90
   0   8   9    2.40    1.20
   1   8   9    5.40    1.30
   1   8   9    3.80    1.10
   2   8   9   11.60    1.70
   2   8   9   10.10    1.70
   3   8   9    5.20    1.70
   3   8   9    8.60    1.90
   4   8   9    7.10    2.10
   4   8   9    5.10    1.70
   2  -9  -9    2.80    1.40
  -2   9   9    4.20    1.50
  -1   9   9   17.30    2.00
   0   9   9   40.90    2.80
   1   9   9    7.70    1.60
   2   9   9   -0.60    1.20
   2   9   9    1.60    1.50
   3   9   9    3.40    1.70
   3   9   9    4.30    1.60
   4   9   9    2.30    1.80
   4   9   9    2.90    1.50
  -1  10   9    4.60    1.30
   0  10   9    1.50    1.30
   1  10   9    7.40    1.70
   2  10   9    2.90    1.50
   2  10   9    3.00    1.40
   3  10   9    0.80    1.30
   3  10   9    1.80    1.70
   1  11   9   -0.50    1.30
   0   5 -10    3.10    1.30
  -1   5 -10    6.40    1.50
   1  -5  10    8.40    2.30
  -2   5 -10    9.10    1.70
   1   4 -10    6.90    1.50
  -1  -4  10    6.10    1.50
  -1  -4  10    3.60    1.60
   0   4 -10   26.40    2.30
   0  -4  10   27.80    2.40
   0  -4  10   27.40    2.60
  -1   4 -10    8.20    1.60
   1  -4  10    4.60    1.30
   1  -4  10    4.80    1.60
  -2   4 -10   10.50    1.60
   2  -4  10    8.30    2.00
   2  -4  10   10.80    1.70
   2  -4  10    9.70    1.70
  -3   4 -10    7.90    1.60
   3  -4  10    9.20    1.70
   2   3 -10    2.30    1.10
  -2  -3  10    6.20    1.40
  -2  -3  10    5.90    1.60
   1   3 -10   -0.80    1.00
  -1  -3  10    2.50    1.00
  -1  -3  10   -0.10    0.80
   0   3 -10    1.70    1.00
   0  -3  10    1.10    0.90
   0  -3  10    0.90    1.00
  -1   3 -10    7.10    1.40
   1  -3  10    4.50    1.30
   1  -3  10    6.70    1.60
   1  -3  10    6.80    1.50
  -2   3 -10    8.00    1.40
   2  -3  10    9.20    1.50
   2  -3  10    8.30    1.80
   2  -3  10    6.20    1.30
  -3   3 -10    7.60    1.70
   3  -3  10    7.80    1.60
   3  -3  10    6.20    1.40
   2   2 -10   22.60    2.10
  -2  -2  10   22.60    1.40
  -2  -2  10   18.50    2.20
  -2  -2  10   22.40    2.00
   1   2 -10    5.60    1.30
  -1  -2  10    3.40    1.00
  -1  -2  10    3.90    0.70
  -1  -2  10    2.80    1.30
   0   2 -10    2.20    1.20
   0  -2  10    2.10    1.20
   0  -2  10    2.50    1.00
   0  -2  10    2.20    0.50
  -1   2 -10    1.30    1.10
   1  -2  10    1.40    1.20
   1  -2  10    4.00    1.30
   1  -2  10    2.00    1.00
  -2   2 -10   13.10    1.60
   2  -2  10   10.20    1.90
   2  -2  10    9.90    1.50
   2  -2  10   12.40    1.70
  -3   2 -10    1.60    1.40
   3  -2  10    1.80    1.20
  -4   2 -10    3.80    1.50
   4  -2  10    4.30    1.50
  -3  -1  10    7.10    1.70
  -3  -1  10    5.60    1.20
   2   1 -10    1.90    1.10
  -2  -1  10    2.20    1.00
  -2  -1  10    2.00    0.90
  -2  -1  10    3.40    1.20
   1   1 -10   12.40    1.60
  -1  -1  10   13.40    1.50
  -1  -1  10   11.60    1.60
   0   1 -10    6.30    1.40
   0  -1  10    7.10    1.30
   0  -1  10    8.50    1.40
   0  -1  10    6.50    1.20
  -1   1 -10    6.20    1.30
   1  -1  10    6.40    1.10
   1  -1  10    8.50    1.30
   1  -1  10    8.90    1.40
  -2   1 -10   41.00    2.60
   2  -1  10   42.90    2.90
   2  -1  10   44.50    1.90
   2  -1  10   43.50    2.90
   2  -1  10   41.60    2.60
  -3   1 -10   10.00    1.70
   3  -1  10   13.30    1.20
   3  -1  10   14.60    1.90
  -4   1 -10    5.70    1.60
   4  -1  10    6.20    0.90
   4  -1  10    5.40    1.40
   3   0 -10    7.60    1.80
  -3   0  10    7.20    1.60
  -3   0  10   10.00    1.40
   2   0 -10    4.70    1.30
  -2   0  10    4.60    1.30
   1   0 -10    8.20    1.30
   1   0 -10    9.10    1.50
  -1   0  10    9.80    1.30
  -1   0  10    7.20    1.40
   0   0 -10   52.99    2.90
   0   0 -10   49.99    2.80
   0   0  10   66.69    3.10
   0   0  10   59.09    2.70
   0   0  10   54.19    2.80
  -1   0 -10    7.10    1.50
  -1   0 -10    7.30    1.40
   1   0  10    6.70    1.20
   1   0  10    5.50    0.90
   1   0  10    6.60    1.30
   1   0  10    7.40    1.10
  -2   0 -10    6.20    1.30
  -2   0 -10    6.70    1.50
   2   0  10    5.40    1.30
   2   0  10    5.80    0.90
   2   0  10    4.50    1.30
  -3   0 -10    4.50    1.40
  -3   0 -10    4.30    1.50
   3   0  10    6.30    1.10
   3   0  10    3.80    1.30
   4   0  10   10.70    1.30
   4   0  10    7.90    1.70
   5   0  10    5.60    1.30
   5   0  10    4.10    1.40
   3  -1 -10    7.30    1.80
  -3   1  10    4.80    1.60
   2  -1 -10   15.20    1.80
  -2   1  10   14.70    1.70
   1  -1 -10   29.40    2.20
  -1   1  10   29.50    2.10
  -1   1  10   26.80    1.70
  -1   1  10   28.80    2.00
   0  -1 -10   87.89    3.80
   0  -1 -10   77.79    3.50
   0   1  10   83.99    3.60
   0   1  10   81.09    3.30
   0   1  10   95.39    3.30
   0   1  10   87.19    3.40
  -1  -1 -10  139.79    5.20
  -1  -1 -10  142.09    5.20
   1   1  10  152.68    5.40
   1   1  10  152.68    5.00
   1   1  10  145.59    5.10
   1   1  10  160.88    4.80
   1   1  10  140.79    4.50
  -2  -1 -10   10.20    1.50
  -2  -1 -10    9.60    1.60
   2   1  10   10.70    1.50
   2   1  10   11.30    1.50
   2   1  10   12.50    1.30
  -3  -1 -10    5.20    1.40
   3   1  10    8.10    1.30
   3   1  10    6.20    1.40
  -4  -1 -10    4.80    1.60
   4   1  10    7.60    1.60
   4   1  10    6.70    1.40
  -5  -1 -10   -0.50    1.50
   5   1  10    2.20    1.50
   5   1  10    4.90    1.60
   3  -2 -10    5.70    1.50
  -3   2  10    7.50    1.50
   2  -2 -10    4.80    1.40
  -2   2  10    5.20    1.20
   1  -2 -10   35.20    2.30
  -1   2  10   33.60    2.10
  -1   2  10   32.00    2.10
   0  -2 -10   83.59    3.50
   0   2  10   92.89    3.40
   0   2  10   84.79    3.20
   0   2  10   87.19    3.70
   0   2  10   86.59    3.30
  -1  -2 -10   42.10    2.50
   1   2  10   42.20    2.50
   1   2  10   43.70    2.20
  -2  -2 -10    3.30    1.10
   2   2  10    1.80    1.00
   2   2  10    1.30    0.90
   2   2  10    1.40    1.00
  -3  -2 -10    8.50    1.60
   3   2  10    9.70    1.60
   3   2  10    9.70    1.40
  -4  -2 -10    3.20    1.50
   4   2  10    5.70    1.30
   4   2  10    1.90    1.20
  -5  -2 -10    7.30    2.00
   5   2  10   13.90    2.00
   5   2  10   11.00    2.10
   3  -3 -10   17.70    2.10
   2  -3 -10    8.60    1.50
   1  -3 -10   18.70    1.80
  -1   3  10   18.10    1.70
  -1   3  10   14.40    1.50
   0  -3 -10   28.40    2.00
   0   3  10   30.40    1.60
   0   3  10   28.10    1.90
   0   3  10   31.40    2.10
  -1  -3 -10   14.20    1.60
   1   3  10   17.20    1.60
   1   3  10   15.30    1.60
  -2  -3 -10    4.30    1.30
   2   3  10    4.40    1.10
   2   3  10    3.10    1.20
  -3  -3 -10   21.90    2.10
   3   3  10   25.50    2.30
   3   3  10   24.10    2.20
  -4  -3 -10    6.90    1.60
   4   3  10    6.00    1.50
   4   3  10    7.30    1.60
  -5  -3 -10    0.20    1.60
   5   3  10    1.60    1.30
   5   3  10    3.40    1.50
   3  -4 -10   12.60    1.70
   2  -4 -10    9.60    1.50
   1  -4 -10   44.20    2.50
  -1   4  10   40.60    2.50
  -1   4  10   34.60    2.40
   0  -4 -10   18.40    1.70
   0   4  10   17.50    1.70
   0   4  10   19.30    1.70
  -1  -4 -10   33.90    2.10
   1   4  10   26.20    2.10
   1   4  10   26.00    2.40
   1   4  10   28.70    2.30
  -2  -4 -10   25.50    1.90
   2   4  10   25.10    2.10
   2   4  10   27.90    2.20
  -3  -4 -10   11.50    1.70
   3   4  10    8.90    1.70
   3   4  10    9.30    1.60
  -4  -4 -10    3.40    1.30
   4   4  10    4.50    1.40
   4   4  10    3.80    1.40
  -5  -4 -10    0.90    1.50
   5   4  10    1.90    1.40
   5   4  10    2.30    1.70
   3  -5 -10    1.00    1.30
   2  -5 -10   30.00    2.10
  -2   5  10   32.50    2.30
   1  -5 -10   34.70    2.30
  -1   5  10   32.60    2.60
  -1   5  10   33.60    2.30
   0  -5 -10   18.60    1.60
   0   5  10   16.80    1.90
   0   5  10   16.10    1.60
   0   5  10   16.70    1.60
  -1  -5 -10   33.20    2.10
   1   5  10   35.90    2.30
   1   5  10   32.10    2.60
   1   5  10   32.60    2.20
  -2  -5 -10   24.10    1.90
   2   5  10   21.60    2.20
   2   5  10   26.20    2.10
   2   5  10   25.30    2.40
  -3  -5 -10    9.80    1.50
   3   5  10   11.90    1.70
   3   5  10   10.80    2.00
  -4  -5 -10   15.90    1.80
   4   5  10   12.90    1.90
   4   5  10   13.20    2.10
  -5  -5 -10    2.10    1.50
   5   5  10    1.10    1.40
   5   5  10    4.00    1.80
   2  -6 -10    6.70    1.20
  -2   6  10    4.60    1.60
   1  -6 -10   10.40    1.20
  -1   6  10    8.70    1.60
   0  -6 -10   11.30    1.30
   0   6  10   13.00    1.40
   0   6  10   12.70    1.80
  -1  -6 -10   12.20    1.20
   1   6  10   10.10    1.80
   1   6  10    9.90    1.50
  -2  -6 -10    4.20    1.00
   2   6  10    2.80    1.50
   2   6  10    2.20    1.20
  -3  -6 -10    8.20    1.30
   3   6  10    6.50    1.50
   3   6  10    7.00    1.80
  -4  -6 -10    1.60    1.10
   4   6  10    1.60    1.60
  -5  -6 -10    1.40    1.40
   5   6  10    2.90    1.90
  -2   7  10    1.20    1.50
   1  -7 -10    4.40    0.70
  -1   7  10    6.00    1.50
   0  -7 -10    1.90    0.60
   0   7  10    0.40    1.20
  -1  -7 -10   12.40    1.00
   1   7  10   11.30    2.00
   1   7  10   10.90    1.60
  -2  -7 -10   37.40    1.70
   2   7  10   38.20    2.90
   2   7  10   34.10    2.80
  -3  -7 -10   10.40    1.10
   3   7  10   11.90    2.10
   3   7  10   11.60    2.00
  -4  -7 -10    3.00    1.00
   4   7  10    4.30    1.60
   4   7  10    3.50    1.50
  -2   8  10    1.90    1.50
  -1   8  10    8.90    1.80
   0   8  10   29.50    2.70
   1   8  10    9.00    1.80
   1   8  10    5.50    1.30
   2   8  10    2.90    1.40
   2   8  10    1.40    1.40
   3   8  10    3.80    1.50
   3   8  10    3.10    1.60
   4   8  10   -1.10    1.50
   4   8  10   -0.30    1.60
  -1   9  10    0.20    1.30
   0   9  10    1.80    1.50
   1   9  10    6.10    1.60
   2   9  10    1.20    1.50
   2   9  10    0.30    1.00
   3   9  10    4.90    1.90
   3   9  10    1.20    1.50
   0  10  10    3.90    1.70
   1  10  10    2.70    1.70
   2  10  10    2.60    1.50
   2  10  10   -0.80    1.60
  -1   4 -11    2.70    1.40
   1   3 -11   -0.40    1.10
  -1  -3  11    0.40    1.00
  -1  -3  11    0.30    1.30
   0   3 -11    6.00    1.50
   0  -3  11    7.20    1.40
   0  -3  11    6.90    1.60
  -1   3 -11    0.40    1.10
   1  -3  11    2.00    1.40
   1  -3  11    0.60    1.10
  -2   3 -11    0.50    1.10
   2  -3  11    0.90    1.40
   2  -3  11   -0.50    1.00
   2  -3  11    1.80    1.10
   1   2 -11    3.30    1.40
  -1  -2  11    3.30    1.40
  -1  -2  11    2.50    1.10
   0   2 -11    1.60    1.30
   0  -2  11    2.90    1.30
   0  -2  11    0.50    0.90
  -1   2 -11    0.50    1.10
   1  -2  11   -0.10    1.00
   1  -2  11    1.00    0.90
   1  -2  11    2.30    1.30
  -2   2 -11    2.30    1.20
   2  -2  11    1.50    1.30
   2  -2  11    1.10    1.30
   2  -2  11    1.40    0.90
  -3   2 -11   -0.10    1.30
   3  -2  11    0.20    1.00
   3  -2  11    1.00    1.00
  -2  -1  11    2.10    1.40
  -2  -1  11    4.40    1.10
   1   1 -11    2.30    1.30
  -1  -1  11    1.70    1.20
  -1  -1  11    3.30    1.10
   0   1 -11    2.40    1.20
   0  -1  11    3.40    1.20
   0  -1  11    3.00    1.10
   0  -1  11    3.30    1.30
  -1   1 -11    1.50    1.20
   1  -1  11    1.80    1.10
   1  -1  11    0.60    1.30
   1  -1  11    1.20    0.80
  -2   1 -11    2.80    1.50
   2  -1  11    3.40    1.10
   2  -1  11    4.10    1.40
   2  -1  11    3.30    1.50
  -3   1 -11    4.40    1.50
   3  -1  11    4.60    1.30
   3  -1  11    5.10    0.80
   4  -1  11    1.40    1.20
   4  -1  11    2.00    0.70
   2   0 -11   51.89    3.30
  -2   0  11   51.19    3.10
   1   0 -11    6.00    1.40
  -1   0  11    4.70    1.30
  -1   0  11    4.20    1.10
   0   0 -11   14.10    1.90
   0   0 -11   13.20    1.80
   0   0  11   15.50    1.90
   0   0  11   14.00    1.60
   0   0  11   13.90    1.70
  -1   0 -11   18.40    2.20
  -1   0 -11   16.30    1.90
   1   0  11   21.40    2.10
   1   0  11   15.40    1.80
   1   0  11   18.70    1.80
  -2   0 -11    8.60    1.60
   2   0  11   11.00    1.20
   2   0  11    9.50    1.70
   2   0  11    9.40    1.40
   2   0  11    5.80    1.50
   3   0  11    2.10    1.10
   3   0  11    3.40    1.00
   4   0  11    1.30    1.20
   4   0  11    2.80    1.00
   2  -1 -11    3.00    1.50
  -2   1  11    2.80    1.30
   1  -1 -11    6.60    1.50
  -1   1  11    5.80    1.20
   0  -1 -11    5.20    1.50
   0   1  11    4.00    1.00
   0   1  11    4.70    1.20
   0   1  11    2.50    1.20
  -1  -1 -11    3.90    1.50
   1   1  11    6.70    1.10
   1   1  11    5.30    1.30
   1   1  11    6.90    1.20
  -2  -1 -11    6.90    1.50
   2   1  11    8.50    1.50
   2   1  11    7.70    1.20
  -3  -1 -11    0.20    1.30
   3   1  11   -1.90    0.80
   3   1  11   -1.30    0.90
  -4  -1 -11    3.40    1.60
   4   1  11    5.30    1.40
   4   1  11    1.10    1.20
   2  -2 -11    4.60    1.60
   1  -2 -11   18.40    2.00
  -1   2  11   16.80    1.80
   0  -2 -11   55.39    3.10
   0   2  11   56.09    2.60
   0   2  11   59.29    3.10
   0   2  11   60.09    2.80
  -1  -2 -11    5.30    1.50
   1   2  11    4.50    1.20
   1   2  11    3.50    1.20
   1   2  11    6.50    1.20
  -2  -2 -11   22.40    2.20
   2   2  11   24.20    2.20
   2   2  11   22.50    2.00
  -3  -2 -11    8.80    1.70
   3   2  11    8.00    1.70
   3   2  11    8.30    1.50
  -4  -2 -11    5.80    1.90
   4   2  11    6.60    1.60
   4   2  11    6.10    1.50
   2  -3 -11   16.20    2.00
   1  -3 -11   25.40    2.20
  -1   3  11   22.30    1.90
  -1   3  11   25.30    2.20
   0  -3 -11   19.10    2.00
   0   3  11   19.80    1.80
   0   3  11   21.70    2.10
  -1  -3 -11   69.09    3.30
   1   3  11   72.59    3.30
   1   3  11   67.79    3.50
  -2  -3 -11    3.70    1.40
   2   3  11    4.00    1.30
   2   3  11    2.90    1.30
  -3  -3 -11    6.90    1.50
   3   3  11    4.20    1.60
   3   3  11    7.30    1.40
  -4  -3 -11    3.20    1.50
   4   3  11    4.00    1.70
   4   3  11    6.20    1.40
   2  -4 -11    1.60    1.30
   1  -4 -11    6.40    1.40
  -1   4  11    6.50    1.30
   0  -4 -11   13.90    1.70
   0   4  11   10.60    1.40
   0   4  11   11.60    1.50
  -1  -4 -11    6.90    1.30
   1   4  11    6.30    1.30
   1   4  11    8.60    1.50
  -2  -4 -11   24.30    2.30
   2   4  11   18.30    2.10
   2   4  11   18.50    2.00
  -3  -4 -11   12.90    1.80
   3   4  11   11.70    1.70
   3   4  11   12.90    2.00
  -4  -4 -11   12.50    1.90
   4   4  11   13.90    2.00
   4   4  11   12.70    2.20
   1  -5 -11   17.70    1.80
  -1   5  11   16.70    1.90
   0  -5 -11   -1.80    0.80
   0   5  11    0.40    0.80
   0   5  11   -1.00    1.10
  -1  -5 -11    3.50    1.10
   1   5  11    2.50    1.20
   1   5  11    2.00    1.20
  -2  -5 -11   11.00    1.50
   2   5  11   11.50    1.80
   2   5  11   10.80    1.70
  -3  -5 -11    8.60    1.50
   3   5  11   11.40    2.10
   3   5  11   12.30    1.80
  -4  -5 -11    5.00    1.50
   4   5  11    3.00    1.60
   4   5  11    0.00    1.30
   2  -6 -11    2.10    1.10
   1  -6 -11    5.30    1.20
   0  -6 -11    4.60    1.10
   0   6  11    4.30    1.60
  -1  -6 -11    8.30    1.30
   1   6  11    5.30    1.60
   1   6  11    4.70    1.30
  -2  -6 -11    8.50    1.30
   2   6  11    7.50    1.80
   2   6  11    8.30    1.70
  -3  -6 -11    2.60    1.10
   3   6  11    2.80    1.40
  -4  -6 -11    2.30    1.20
   4   6  11    5.10    1.80
   1  -7 -11    2.10    0.90
  -1   7  11    2.20    1.40
   0  -7 -11    5.00    0.90
   0   7  11    4.10    1.60
  -1  -7 -11    0.90    0.80
   1   7  11    0.80    1.40
   1   7  11    1.20    1.00
  -2  -7 -11    5.10    1.00
   2   7  11    5.10    1.80
   2   7  11    3.70    1.40
  -3  -7 -11    4.50    1.00
   3   7  11    3.60    1.60
   3   7  11    3.90    1.60
  -4  -7 -11    2.40    1.00
   4   7  11    1.20    1.70
  -1   8  11    0.00    1.60
   0   8  11   -0.10    1.50
   1   8  11    1.20    1.40
   2   8  11    1.80    1.50
   2   8  11    2.90    1.40
   3   8  11    1.00    1.20
   3   8  11   -1.80    1.30
   0   9  11    0.70    1.80
   1   9  11   -3.10    1.30
   2   9  11    1.30    1.20
   2   9  11   -0.50    1.60
   0   2 -12    6.10    1.80
   0  -2  12    4.20    1.40
   0  -2  12    9.30    1.80
  -1   2 -12   28.60    2.70
   1  -2  12   24.90    2.50
   1  -2  12   27.00    2.70
   1  -2  12   26.10    2.20
  -2   2 -12    3.20    1.50
   2  -2  12    0.90    1.20
   2  -2  12    3.30    1.70
  -1  -1  12    5.80    1.00
  -1  -1  12    3.50    1.50
  -1  -1  12    4.70    1.30
   0   1 -12    6.50    2.10
   0  -1  12    4.10    1.20
   0  -1  12    2.40    1.30
  -1   1 -12    9.90    1.80
   1  -1  12    7.30    1.50
   1  -1  12    8.40    1.70
   1  -1  12   11.10    1.80
  -2   1 -12    4.90    1.70
   2  -1  12    4.40    1.40
   2  -1  12    5.80    1.60
   2  -1  12    4.10    3.00
   3  -1  12    4.70    1.50
   0   0  12   10.60    1.50
   0   0  12    9.90    1.60
   1   0  12    5.10    1.50
   1   0  12    1.40    1.10
   2   0  12   11.90    1.30
   2   0  12    6.30    1.50
   2   0  12   12.20    1.80
   3   0  12    5.80    1.70
   3   0  12    5.10    1.10
   1  -1 -12    5.50    1.60
   0  -1 -12    6.50    1.60
   0   1  12    7.80    1.50
   0   1  12    6.00    1.20
  -1  -1 -12   18.80    2.20
   1   1  12   23.40    2.40
   1   1  12   22.70    1.80
   1   1  12   17.50    1.80
  -2  -1 -12    9.90    1.90
   2   1  12    7.00    1.40
   2   1  12    9.70    1.40
   2   1  12    8.70    1.80
  -3  -1 -12   39.60    3.50
   3   1  12   32.30    2.40
   3   1  12   28.60    2.70
   1  -2 -12   -0.40    1.20
   0  -2 -12   10.80    1.80
   0   2  12    9.30    1.50
   0   2  12    8.00    1.50
  -1  -2 -12   50.59    3.30
   1   2  12   48.60    2.70
   1   2  12   43.70    3.10
   1   2  12   44.70    2.60
  -2  -2 -12   15.30    2.10
   2   2  12   16.40    2.10
   2   2  12   17.90    1.80
  -3  -2 -12    9.10    1.90
   3   2  12   10.60    1.70
   3   2  12   10.30    2.00
  -4  -2 -12    4.80    1.80
   4   2  12    5.40    1.90
   4   2  12    7.70    1.70
   1  -3 -12    1.60    1.20
   0  -3 -12   10.90    1.70
   0   3  12   10.10    1.50
   0   3  12   10.20    1.50
  -1  -3 -12   37.00    3.00
   1   3  12   37.60    2.60
   1   3  12   28.10    2.20
   1   3  12   32.30    2.70
  -2  -3 -12   17.90    2.20
   2   3  12   17.40    1.80
   2   3  12   18.00    2.10
  -3  -3 -12    9.10    1.90
   3   3  12    9.50    1.60
   3   3  12    8.10    1.80
  -4  -3 -12    9.00    2.00
   4   3  12    5.50    1.70
   4   3  12   10.80    1.90
   1  -4 -12    0.90    1.20
  -1   4  12    1.10    1.40
   0  -4 -12    2.20    1.30
   0   4  12    2.20    1.30
   0   4  12    0.30    0.80
  -1  -4 -12   14.30    1.80
   1   4  12   16.80    1.80
   1   4  12   13.30    1.90
  -2  -4 -12   33.20    2.70
   2   4  12   33.60    2.70
   2   4  12   23.10    2.40
  -3  -4 -12    3.20    1.30
   3   4  12    1.80    1.30
   3   4  12    4.40    1.60
  -4  -4 -12    4.00    1.70
   4   4  12    5.60    1.60
   4   4  12    5.50    1.60
   1  -5 -12    0.10    1.10
  -1   5  12   -0.10    1.10
   0  -5 -12    9.60    1.50
   0   5  12   14.40    1.80
   0   5  12   10.90    1.80
  -1  -5 -12    3.40    1.20
   1   5  12    0.90    1.10
   1   5  12    3.40    1.30
  -2  -5 -12    2.90    1.30
   2   5  12    5.50    1.60
   2   5  12    4.90    1.50
  -3  -5 -12    1.70    1.30
   3   5  12    0.50    1.40
   3   5  12    2.90    1.60
  -4  -5 -12    0.90    1.40
   4   5  12   -1.00    1.60
   4   5  12   -0.60    1.30
   1  -6 -12    0.80    1.20
  -1  -6 -12    0.40    1.00
   1   6  12    1.90    1.10
  -2  -6 -12    1.90    1.20
   2   6  12    0.30    1.40
   2   6  12    0.70    1.30
  -3  -6 -12   -0.10    1.20
   3   6  12    0.90    1.20
   3   6  12    3.20    1.40
   0  -7 -12    0.80    1.00
  -1  -7 -12   -0.60    0.90
   1   7  12   -0.40    1.00
   1   7  12   -1.10    2.30
  -2  -7 -12    2.10    0.90
   2   7  12    1.90    1.30
  -3  -7 -12    0.00    1.00
   3   7  12    2.70    1.30
   1   8  12    0.60    1.50
   2   8  12    2.90    1.80
   2   8  12    1.00    1.10
   0  -1 -13    5.20    1.70
   0   1  13    3.80    1.40
  -1  -1 -13   -0.30    1.40
   1   1  13    1.30    1.10
   1   1  13    1.70    1.40
  -2  -1 -13    2.10    1.60
   2   1  13    3.40    1.30
   2   1  13    1.40    1.00
   2   1  13    0.30    1.10
   0  -2 -13   -0.20    1.50
   0   2  13    1.00    1.00
  -1  -2 -13    2.60    1.70
   1   2  13    1.20    1.20
   1   2  13    1.80    1.10
  -2  -2 -13    0.70    1.40
   2   2  13    1.00    1.20
   2   2  13    3.00    1.30
   2   2  13    0.80    1.20
   0  -3 -13    2.30    1.60
   0   3  13    5.00    1.50
   0   3  13    4.30    1.30
  -1  -3 -13    5.70    1.60
   1   3  13    7.30    1.60
   1   3  13    6.60    1.60
  -2  -3 -13    6.70    1.70
   2   3  13   12.80    1.90
   2   3  13   11.70    1.90
   3   3  13    0.60    1.50
   0  -4 -13   -0.90    1.00
   0   4  13    0.40    1.10
   0   4  13   -2.40    0.80
  -1  -4 -13    7.20    1.60
   1   4  13    5.30    1.50
   1   4  13    7.10    1.50
  -2  -4 -13    2.20    1.40
   2   4  13    0.20    1.30
   2   4  13    0.00    1.30
   3   4  13    6.20    1.80
   0  -5 -13    0.20    1.20
   0   5  13    2.80    1.30
  -1  -5 -13    0.20    1.20
   1   5  13   -0.90    1.20
   1   5  13    0.40    1.20
  -2  -5 -13    6.50    1.50
   2   5  13    9.10    1.70
   2   5  13    8.00    1.60
  -1  -6 -13    2.80    1.30
   1   6  13    1.20    1.30
   1   6  13   -1.20    1.10
  -2  -6 -13   -0.60    1.10
   2   6  13    2.70    1.40
   2   6  13   -0.40    1.30

_computing_structure_solution     'SHELXT 2014/4 (Sheldrick, 2014)'
;
_shelx_hkl_checksum              21038
loop_
_space_group_symop_operation_xyz
'x, y, z'
loop_
_atom_site_type_symbol
_atom_site_label
_atom_site_fract_x
_atom_site_fract_y
_atom_site_fract_z
_atom_site_U_iso_or_equiv
_atom_site_adp_type
_atom_site_calc_flag
_atom_site_refinement_flags_adp
_atom_site_refinement_flags_posn
_atom_site_occupancy
C C1 0.7451(7) 1.1636(4) -0.0333(4) 0.0486(9) Uani d . . 1
C C2 0.3260(7) 1.3811(4) -0.0291(4) 0.0486(9) Uani d . . 1
C C3 0.3335(6) 1.2502(4) 0.0814(3) 0.0397(8) Uani d . . 1
C C4 0.1364(7) 1.2276(4) 0.1918(3) 0.0439(8) Uani d . . 1
H H4 -0.0023 1.2972 0.1937 0.053 Uiso calc U R 1
C C5 0.1449(7) 1.1033(4) 0.2981(3) 0.0431(8) Uani d . . 1
H H5 0.0106 1.0892 0.371 0.052 Uiso calc U R 1
C C6 0.3500(6) 0.9985(4) 0.2986(3) 0.0375(7) Uani d . . 1
C C7 0.5497(6) 1.0188(4) 0.1896(3) 0.0406(8) Uani d . . 1
H H7 0.6889 0.9493 0.1891 0.049 Uiso calc U R 1
C C8 0.5397(6) 1.1442(4) 0.0810(3) 0.0381(7) Uani d . . 1
C C9 0.5435(7) 0.7657(4) 0.4110(4) 0.0468(9) Uani d . . 1
H H9A 0.7076 0.8052 0.4049 0.056 Uiso calc U R 1
H H9B 0.5514 0.7246 0.3343 0.056 Uiso calc U R 1
C C10 0.4878(7) 0.6481(4) 0.5415(4) 0.0493(9) Uani d . . 1
H H10A 0.4733 0.6934 0.616 0.059 Uiso calc U R 1
H H10B 0.6344 0.5764 0.5482 0.059 Uiso calc U R 1
C C11 0.4980(7) 0.3176(4) 0.4352(3) 0.0441(8) Uani d . . 1
H H11A 0.5338 0.2716 0.3604 0.053 Uiso calc U R 1
H H11B 0.6546 0.3585 0.4401 0.053 Uiso calc U R 1
C C12 0.4236(7) 0.2015(4) 0.5651(4) 0.0455(9) Uani d . . 1
H H12A 0.4001 0.2431 0.6424 0.055 Uiso calc U R 1
H H12B 0.2649 0.1603 0.5637 0.055 Uiso calc U R 1
C C13 0.2557(7) -0.1751(4) 1.0287(3) 0.0422(8) Uani d . . 1
C C14 0.6924(7) -0.3825(4) 1.0315(4) 0.0473(9) Uani d . . 1
C C15 0.6701(6) -0.2583(4) 0.9150(3) 0.0387(7) Uani d . . 1
C C16 0.8626(7) -0.2402(4) 0.8015(4) 0.0445(8) Uani d . . 1
H H16 1.0052 -0.3075 0.8016 0.053 Uiso calc U R 1
C C17 0.8416(7) -0.1233(4) 0.6897(3) 0.0430(8) Uani d . . 1
H H17 0.9701 -0.112 0.6141 0.052 Uiso calc U R 1
C C18 0.6316(7) -0.0220(3) 0.6881(3) 0.0382(7) Uani d . . 1
C C19 0.4356(6) -0.0386(4) 0.7993(3) 0.0385(7) Uani d . . 1
H H19 0.2923 0.0282 0.7982 0.046 Uiso calc U R 1
C C20 0.4586(6) -0.1572(4) 0.9121(3) 0.0365(7) Uani d . . 1
N N1 0.9033(7) 1.1780(4) -0.1241(4) 0.0720(11) Uani d . . 1
N N2 0.3225(8) 1.4854(4) -0.1165(4) 0.0676(10) Uani d . . 1
N N3 0.0971(7) -0.1883(4) 1.1204(4) 0.0612(9) Uani d . . 1
N N4 0.7113(7) -0.4811(4) 1.1228(4) 0.0687(11) Uani d . . 1
O O1 0.3409(5) 0.8810(3) 0.4091(2) 0.0477(6) Uani d . . 1
O O2 0.6315(5) 0.0899(3) 0.5727(2) 0.0505(7) Uani d . . 1
S S1 0.20199(15) 0.54916(10) 0.56530(9) 0.0471(3) Uani d . . 1
S S2 0.25125(15) 0.46713(9) 0.40042(9) 0.0481(3) Uani d . . 1
loop_
_atom_site_aniso_label
_atom_site_aniso_U_11
_atom_site_aniso_U_22
_atom_site_aniso_U_33
_atom_site_aniso_U_12
_atom_site_aniso_U_13
_atom_site_aniso_U_23
C1 0.049(2) 0.0409(19) 0.050(2) -0.0045(16) 0.0005(18) -0.0065(16)
C2 0.046(2) 0.052(2) 0.044(2) -0.0022(17) -0.0102(16) -0.0052(18)
C3 0.0405(18) 0.0395(18) 0.0374(17) -0.0030(15) -0.0098(15) -0.0051(14)
C4 0.0394(18) 0.0441(19) 0.0431(19) 0.0071(15) -0.0050(15) -0.0080(15)
C5 0.0404(19) 0.0456(19) 0.0390(18) 0.0017(15) 0.0006(14) -0.0106(14)
C6 0.0395(18) 0.0320(16) 0.0384(17) -0.0032(13) -0.0026(14) -0.0070(13)
C7 0.0366(17) 0.0380(17) 0.0439(18) 0.0013(14) -0.0025(14) -0.0093(14)
C8 0.0353(17) 0.0380(17) 0.0393(18) -0.0096(14) -0.0015(14) -0.0077(14)
C9 0.0367(18) 0.0358(18) 0.057(2) 0.0034(15) 0.0000(16) -0.0024(16)
C10 0.042(2) 0.0433(19) 0.057(2) -0.0010(16) -0.0111(17) -0.0021(17)
C11 0.050(2) 0.0360(18) 0.0399(18) 0.0036(15) -0.0013(15) -0.0053(14)
C12 0.048(2) 0.0385(18) 0.0400(18) 0.0090(15) 0.0002(15) -0.0027(15)
C13 0.0398(19) 0.0418(19) 0.0393(18) 0.0018(15) -0.0037(16) -0.0048(15)
C14 0.043(2) 0.047(2) 0.0434(19) 0.0051(16) -0.0013(16) -0.0042(17)
C15 0.0403(18) 0.0353(17) 0.0365(16) -0.0029(14) -0.0040(14) -0.0040(13)
C16 0.0408(19) 0.0432(19) 0.0429(18) 0.0127(15) -0.0032(15) -0.0088(15)
C17 0.0420(18) 0.0428(18) 0.0358(17) 0.0039(15) 0.0047(14) -0.0062(14)
C18 0.0436(18) 0.0320(17) 0.0339(16) -0.0009(14) -0.0025(14) -0.0038(13)
C19 0.0362(17) 0.0351(17) 0.0389(17) 0.0012(14) -0.0013(14) -0.0055(14)
C20 0.0371(17) 0.0365(17) 0.0349(16) -0.0035(14) -0.0026(14) -0.0092(13)
N1 0.064(2) 0.071(2) 0.061(2) -0.007(2) 0.0211(19) -0.0035(18)
N2 0.075(3) 0.059(2) 0.056(2) -0.0011(19) -0.0171(18) 0.0097(18)
N3 0.056(2) 0.064(2) 0.0502(19) -0.0020(17) 0.0078(17) -0.0040(16)
N4 0.065(2) 0.064(2) 0.0512(19) 0.0149(18) 0.0021(16) 0.0116(17)
O1 0.0487(14) 0.0369(12) 0.0436(13) 0.0059(11) 0.0060(11) 0.0000(10)
O2 0.0530(15) 0.0404(13) 0.0393(13) 0.0111(11) 0.0077(11) 0.0050(10)
S1 0.0413(5) 0.0430(5) 0.0511(5) -0.0014(4) 0.0050(4) -0.0114(4)
S2 0.0518(6) 0.0434(5) 0.0446(5) 0.0062(4) -0.0138(4) -0.0042(4)
loop_
_atom_type_symbol
_atom_type_description
_atom_type_scat_dispersion_real
_atom_type_scat_dispersion_imag
_atom_type_scat_source
C C 0.0033 0.0016 'International Tables Vol C Tables 4.2.6.8 and 6.1.1.4'
H H 0.0000 0.0000 'International Tables Vol C Tables 4.2.6.8 and 6.1.1.4'
N N 0.0061 0.0033 'International Tables Vol C Tables 4.2.6.8 and 6.1.1.4'
O O 0.0106 0.0060 'International Tables Vol C Tables 4.2.6.8 and 6.1.1.4'
S S 0.1246 0.1234 'International Tables Vol C Tables 4.2.6.8 and 6.1.1.4'
loop_
_geom_angle_atom_site_label_1
_geom_angle_atom_site_label_2
_geom_angle_atom_site_label_3
_geom_angle
N1 C1 C8 178.8(5)
N2 C2 C3 179.2(4)
C4 C3 C8 118.7(3)
C4 C3 C2 120.4(3)
C8 C3 C2 120.8(3)
C5 C4 C3 120.4(3)
C5 C4 H4 119.8
C3 C4 H4 119.8
C4 C5 C6 121.1(3)
C4 C5 H5 119.5
C6 C5 H5 119.5
O1 C6 C5 116.3(3)
O1 C6 C7 124.1(3)
C5 C6 C7 119.6(3)
C6 C7 C8 119.3(3)
C6 C7 H7 120.3
C8 C7 H7 120.3
C7 C8 C3 120.8(3)
C7 C8 C1 119.2(3)
C3 C8 C1 120.0(3)
O1 C9 C10 108.0(3)
O1 C9 H9A 110.1
C10 C9 H9A 110.1
O1 C9 H9B 110.1
C10 C9 H9B 110.1
H9A C9 H9B 108.4
C9 C10 S1 116.7(3)
C9 C10 H10A 108.1
S1 C10 H10A 108.1
C9 C10 H10B 108.1
S1 C10 H10B 108.1
H10A C10 H10B 107.3
C12 C11 S2 113.2(2)
C12 C11 H11A 108.9
S2 C11 H11A 108.9
C12 C11 H11B 108.9
S2 C11 H11B 108.9
H11A C11 H11B 107.8
O2 C12 C11 105.7(3)
O2 C12 H12A 110.6
C11 C12 H12A 110.6
O2 C12 H12B 110.6
C11 C12 H12B 110.6
H12A C12 H12B 108.7
N3 C13 C20 179.5(4)
N4 C14 C15 179.5(4)
C20 C15 C16 118.9(3)
C20 C15 C14 121.4(3)
C16 C15 C14 119.6(3)
C17 C16 C15 120.0(3)
C17 C16 H16 120.0
C15 C16 H16 120.0
C16 C17 C18 120.7(3)
C16 C17 H17 119.6
C18 C17 H17 119.6
O2 C18 C17 115.8(3)
O2 C18 C19 123.9(3)
C17 C18 C19 120.3(3)
C20 C19 C18 118.5(3)
C20 C19 H19 120.7
C18 C19 H19 120.7
C15 C20 C19 121.5(3)
C15 C20 C13 119.6(3)
C19 C20 C13 118.9(3)
C6 O1 C9 118.2(3)
C18 O2 C12 119.0(2)
C10 S1 S2 103.94(14)
C11 S2 S1 103.45(12)
loop_
_geom_bond_atom_site_label_1
_geom_bond_atom_site_label_2
_geom_bond_distance
C1 N1 1.129(5)
C1 C8 1.441(5)
C2 N2 1.139(5)
C2 C3 1.434(5)
C3 C4 1.388(5)
C3 C8 1.396(5)
C4 C5 1.370(5)
C4 H4 0.93
C5 C6 1.384(5)
C5 H5 0.93
C6 O1 1.352(4)
C6 C7 1.388(4)
C7 C8 1.392(4)
C7 H7 0.93
C9 O1 1.438(4)
C9 C10 1.498(5)
C9 H9A 0.97
C9 H9B 0.97
C10 S1 1.812(4)
C10 H10A 0.97
C10 H10B 0.97
C11 C12 1.501(4)
C11 S2 1.817(3)
C11 H11A 0.97
C11 H11B 0.97
C12 O2 1.433(4)
C12 H12A 0.97
C12 H12B 0.97
C13 N3 1.136(5)
C13 C20 1.450(5)
C14 N4 1.138(5)
C14 C15 1.442(5)
C15 C20 1.387(5)
C15 C16 1.395(5)
C16 C17 1.372(5)
C16 H16 0.93
C17 C18 1.382(5)
C17 H17 0.93
C18 O2 1.357(4)
C18 C19 1.391(4)
C19 C20 1.388(4)
C19 H19 0.93
S1 S2 2.0292(12)
loop_
_geom_hbond_atom_site_label_D
_geom_hbond_atom_site_label_H
_geom_hbond_atom_site_label_A
_geom_hbond_site_symmetry_A
_geom_hbond_distance_DH
_geom_hbond_distance_HA
_geom_hbond_distance_DA
_geom_hbond_angle_DHA
C5 H5 O2 1_465 0.93 2.62 3.547(4) 171.8
C7 H7 N3 1_664 0.93 2.49 3.390(5) 163.2
C9 H9B S2 . 0.97 2.91 3.401(4) 112.7
C17 H17 O1 1_645 0.93 2.63 3.553(4) 172.3
C19 H19 N1 1_446 0.93 2.50 3.398(5) 161.5
loop_
_geom_torsion_atom_site_label_1
_geom_torsion_atom_site_label_2
_geom_torsion_atom_site_label_3
_geom_torsion_atom_site_label_4
_geom_torsion
C8 C3 C4 C5 0.0(5)
C2 C3 C4 C5 -179.3(3)
C3 C4 C5 C6 0.6(6)
C4 C5 C6 O1 179.2(3)
C4 C5 C6 C7 -0.4(5)
O1 C6 C7 C8 -179.9(3)
C5 C6 C7 C8 -0.3(5)
C6 C7 C8 C3 0.9(5)
C6 C7 C8 C1 -178.8(3)
C4 C3 C8 C7 -0.7(5)
C2 C3 C8 C7 178.6(3)
C4 C3 C8 C1 179.0(3)
C2 C3 C8 C1 -1.7(5)
O1 C9 C10 S1 64.9(4)
S2 C11 C12 O2 177.1(3)
C20 C15 C16 C17 0.5(5)
C14 C15 C16 C17 179.3(3)
C15 C16 C17 C18 0.3(6)
C16 C17 C18 O2 179.5(3)
C16 C17 C18 C19 -1.1(5)
O2 C18 C19 C20 -179.5(3)
C17 C18 C19 C20 1.2(5)
C16 C15 C20 C19 -0.4(5)
C14 C15 C20 C19 -179.2(3)
C16 C15 C20 C13 179.4(3)
C14 C15 C20 C13 0.6(5)
C18 C19 C20 C15 -0.4(5)
C18 C19 C20 C13 179.8(3)
C5 C6 O1 C9 177.0(3)
C7 C6 O1 C9 -3.5(5)
C10 C9 O1 C6 -179.0(3)
C17 C18 O2 C12 -178.3(3)
C19 C18 O2 C12 2.4(5)
C11 C12 O2 C18 172.4(3)
C9 C10 S1 S2 55.9(3)
C12 C11 S2 S1 58.6(3)
