#------------------------------------------------------------------------------
#$Date: 2017-05-05 00:29:00 +0300 (Fri, 05 May 2017) $
#$Revision: 196100 $
#$URL: file:///home/coder/svn-repositories/cod/cif/1/54/59/1545970.cif $
#------------------------------------------------------------------------------
#
# This file is available in the Crystallography Open Database (COD),
# http://www.crystallography.net/
#
# All data on this site have been placed in the public domain by the
# contributors.
#
data_1545970
loop_
_publ_author_name
'Cend\'on, Borja'
'Casanova, Noelia'
'Comanescu, Cezar'
'Garc\'ia-Fandi\~no, Rebeca'
'Seoane, Andr\'es'
'Gul\'ias, Mois\'es'
'Mascare\~nas, Jos\'e L'
_publ_section_title
;
 Palladium-Catalyzed Formal (5 + 2) Annulation between
 ortho-Alkenylanilides and Allenes.
;
_journal_issue                   7
_journal_name_full               'Organic letters'
_journal_page_first              1674
_journal_page_last               1677
_journal_paper_doi               10.1021/acs.orglett.7b00467
_journal_volume                  19
_journal_year                    2017
_chemical_formula_moiety         'C10 H8 F3 N O2 S'
_chemical_formula_sum            'C10 H8 F3 N O2 S'
_chemical_formula_weight         263.23
_space_group_crystal_system      triclinic
_space_group_IT_number           2
_space_group_name_Hall           '-P 1'
_space_group_name_H-M_alt        'P -1'
_symmetry_space_group_name_Hall  '-P 1'
_symmetry_space_group_name_H-M   'P -1'
_atom_sites_solution_hydrogens   geom
_audit_creation_method           SHELXL-2016/6
_cell_angle_alpha                74.195(4)
_cell_angle_beta                 68.403(4)
_cell_angle_gamma                81.369(4)
_cell_formula_units_Z            2
_cell_length_a                   7.4533(8)
_cell_length_b                   8.8064(10)
_cell_length_c                   9.0773(9)
_cell_measurement_reflns_used    4544
_cell_measurement_temperature    100(2)
_cell_measurement_theta_max      26.39
_cell_measurement_theta_min      2.41
_cell_volume                     532.21(10)
_computing_structure_refinement  'SHELXL-2016/6 (Sheldrick, 2016)'
_computing_structure_solution    'SHELXT 2014/5 (Sheldrick, 2014)'
_diffrn_ambient_temperature      100(2)
_diffrn_measured_fraction_theta_full 1.000
_diffrn_measured_fraction_theta_max 0.996
_diffrn_measurement_device_type  'Bruker APEX CCD system'
_diffrn_measurement_method       '\w rotations'
_diffrn_radiation_type           MoK\a
_diffrn_radiation_wavelength     0.71073
_diffrn_reflns_av_R_equivalents  0.0306
_diffrn_reflns_av_unetI/netI     0.0258
_diffrn_reflns_Laue_measured_fraction_full 1.000
_diffrn_reflns_Laue_measured_fraction_max 0.996
_diffrn_reflns_limit_h_max       9
_diffrn_reflns_limit_h_min       -9
_diffrn_reflns_limit_k_max       11
_diffrn_reflns_limit_k_min       -10
_diffrn_reflns_limit_l_max       11
_diffrn_reflns_limit_l_min       -9
_diffrn_reflns_number            12169
_diffrn_reflns_point_group_measured_fraction_full 1.000
_diffrn_reflns_point_group_measured_fraction_max 0.996
_diffrn_reflns_theta_full        25.242
_diffrn_reflns_theta_max         26.391
_diffrn_reflns_theta_min         2.407
_diffrn_source                   'normal-focus sealed tube'
_exptl_absorpt_coefficient_mu    0.335
_exptl_absorpt_correction_T_max  0.7454
_exptl_absorpt_correction_T_min  0.6808
_exptl_absorpt_correction_type   multi-scan
_exptl_absorpt_process_details
;
Absorption correction performed with SADABS program. This is based on the
method of Blessing: Blessing, R. H., Acta Crystallogr., Sect. A 1995, 51, 33.

SADABS: Area-Detector Absorption Correction. Bruker-AXS 
within SAINT+ package, v. 7.56a (2008).
;
_exptl_crystal_colour            colourless
_exptl_crystal_density_diffrn    1.643
_exptl_crystal_description       'regular blocks'
_exptl_crystal_F_000             268
_exptl_crystal_size_max          0.419
_exptl_crystal_size_mid          0.258
_exptl_crystal_size_min          0.162
_exptl_transmission_factor_max   0.7454
_exptl_transmission_factor_min   0.6808
_refine_diff_density_max         1.571
_refine_diff_density_min         -0.561
_refine_diff_density_rms         0.111
_refine_ls_extinction_method     none
_refine_ls_goodness_of_fit_ref   1.022
_refine_ls_hydrogen_treatment    constr
_refine_ls_matrix_type           full
_refine_ls_number_parameters     154
_refine_ls_number_reflns         2172
_refine_ls_number_restraints     0
_refine_ls_restrained_S_all      1.022
_refine_ls_R_factor_all          0.0857
_refine_ls_R_factor_gt           0.0759
_refine_ls_shift/su_max          0.000
_refine_ls_shift/su_mean         0.000
_refine_ls_structure_factor_coef Fsqd
_refine_ls_weighting_details
'w=1/[\s^2^(Fo^2^)+(0.1083P)^2^+2.1428P] where P=(Fo^2^+2Fc^2^)/3'
_refine_ls_weighting_scheme      calc
_refine_ls_wR_factor_gt          0.2004
_refine_ls_wR_factor_ref         0.2105
_reflns_Friedel_coverage         0.000
_reflns_number_gt                1862
_reflns_number_total             2172
_reflns_threshold_expression     'I > 2\s(I)'
_cod_data_source_file            ol7b00467_si_002.cif
_cod_data_source_block           ccIndolideneF_a
_cod_database_code               1545970
_shelx_shelxl_version_number     2016/6
_shelx_space_group_comment
;
The symmetry employed for this shelxl refinement is uniquely defined
by the following loop, which should always be used as a source of
symmetry information in preference to the above space-group names.
They are only intended as comments.
;
_shelx_estimated_absorpt_t_min   0.872
_shelx_estimated_absorpt_t_max   0.948
_shelx_res_file
;
TITL ccIndolideneF_a.res in P-1
    ccIndolideneF_a.res
    created by SHELXL-2016/6 at 14:00:12 on 26-Jan-2017
REM Old TITL ccIndolideneF in P-1
REM SHELXT solution in P-1
REM R1 0.160,  Rweak 0.009,  Alpha 0.042,  Orientation as input
REM Formula found by SHELXT:  C9 N O3 F3 S
CELL  0.71073   7.4533   8.8064   9.0773   74.195   68.403   81.369
ZERR    2.000   0.0008   0.0010   0.0009    0.004    0.004    0.004
LATT  1
SFAC C H N O F S
UNIT 20 16 2 4 6 2
ACTA
TEMP -173.150
SIZE 0.162 0.258 0.419
L.S. 10
BOND $H
LIST 6
FMAP 2
PLAN 20
WGHT    0.108300    2.142800
FVAR       0.73238
S1    6    0.270590    0.274770    0.213599    11.00000    0.02562    0.03313 =
         0.01538   -0.00446   -0.00715   -0.00734
F1    5    0.551911    0.094275    0.069787    11.00000    0.05756    0.07640 =
         0.07680   -0.06309   -0.02327    0.01299
O1    4    0.140203    0.154254    0.272067    11.00000    0.03901    0.05322 =
         0.03298    0.00428   -0.01527   -0.02635
N1    3    0.245578    0.370604    0.349407    11.00000    0.03126    0.04520 =
         0.02111   -0.00972   -0.00755   -0.00251
C1    1    0.184203    0.313093    0.521151    11.00000    0.02688    0.03417 =
         0.02249   -0.00508   -0.01011   -0.00386
F2    5    0.511355    0.071585    0.322846    11.00000    0.05022    0.02618 =
         0.06011    0.00424   -0.02752   -0.00237
O2    4    0.290662    0.389927    0.066102    11.00000    0.04241    0.03463 =
         0.02285   -0.00100   -0.01627   -0.00814
C2    1    0.113201    0.169635    0.608566    11.00000    0.03346    0.02333 =
         0.04502   -0.00174   -0.01948   -0.00588
AFIX  43
H2    2    0.099367    0.092350    0.558657    11.00000   -1.20000
AFIX   0
F3    5    0.642863    0.274449    0.141227    11.00000    0.02572    0.03790 =
         0.03314   -0.00887   -0.00383   -0.00923
C3    1    0.060428    0.143770    0.783118    11.00000    0.03407    0.03606 =
         0.03057    0.01033   -0.01095   -0.00949
AFIX  43
H3    2    0.009175    0.046006    0.850818    11.00000   -1.20000
AFIX   0
C4    1    0.081086    0.251924    0.852193    11.00000    0.03119    0.04940 =
         0.02195    0.00223   -0.00846   -0.00321
AFIX  43
H4    2    0.046633    0.228513    0.967379    11.00000   -1.20000
AFIX   0
C5    1    0.153021    0.401020    0.758789    11.00000    0.03223    0.04297 =
         0.03272   -0.01229   -0.01254   -0.00393
AFIX  43
H5    2    0.166481    0.478796    0.808286    11.00000   -1.20000
AFIX   0
C6    1    0.203393    0.428021    0.589454    11.00000    0.01478    0.02448 =
         0.01895   -0.00372   -0.00638    0.00037
C7    1    0.282202    0.570504    0.463576    11.00000    0.02667    0.03292 =
         0.03575   -0.00579   -0.01315   -0.00234
C8    1    0.312944    0.704487    0.486619    11.00000    0.03581    0.02829 =
         0.05654   -0.01611   -0.02292   -0.00082
AFIX  93
H8A   2    0.283319    0.716362    0.594153    11.00000   -1.20000
H8B   2    0.364714    0.789125    0.395685    11.00000   -1.20000
AFIX   0
REM #####
C9    1    0.319182    0.538373    0.301990    11.00000    0.02550    0.03202 =
         0.01967    0.00145   -0.00452   -0.00229
AFIX  23
H9A   2    0.458574    0.540285    0.236000    11.00000   -1.20000
H9B   2    0.246125    0.616001    0.240446    11.00000   -1.20000
AFIX   0
C10   1    0.509641    0.173359    0.183133    11.00000    0.03235    0.02691 =
         0.03223   -0.01505   -0.00994   -0.00305
HKLF 4




REM  ccIndolideneF_a.res in P-1
REM R1 =  0.0759 for    1862 Fo > 4sig(Fo)  and  0.0857 for all    2172 data
REM    154 parameters refined using      0 restraints

END

WGHT      0.1077      2.1542

REM Highest difference peak  1.571,  deepest hole -0.561,  1-sigma level  0.111
Q1    1   0.2137  0.2747  0.3953  11.00000  0.05    1.57
Q2    1   0.2545  0.4362  0.4204  11.00000  0.05    1.55
Q3    1   0.2187  0.5396  0.6464  11.00000  0.05    1.50
Q4    1   0.1375  0.2578  0.6674  11.00000  0.05    1.37
Q5    1   0.3405  0.6890  0.3765  11.00000  0.05    1.28
Q6    1   0.1619  0.1746  0.5123  11.00000  0.05    0.72
Q7    1   0.5517  0.0525  0.2224  11.00000  0.05    0.68
Q8    1   0.5637  0.1665 -0.0165  11.00000  0.05    0.65
Q9    1   0.1953  0.0889  0.2220  11.00000  0.05    0.64
Q10   1   0.1986  0.2157  0.2186  11.00000  0.05    0.35
Q11   1   0.2086  0.3863  0.5652  11.00000  0.05    0.35
Q12   1   0.3908  0.2160  0.1985  11.00000  0.05    0.35
Q13   1   0.2765  0.6465  0.5603  11.00000  0.05    0.35
Q14   1   0.2494  0.3356  0.1557  11.00000  0.05    0.31
Q15   1   0.3278  0.5826  0.3373  11.00000  0.05    0.30
Q16   1   0.1766  0.1243  0.3229  11.00000  0.05    0.28
Q17   1   0.0930  0.1722  0.2707  11.00000  0.05    0.27
Q18   1   0.3319  0.5677  0.2595  11.00000  0.05    0.25
Q19   1   0.3103  0.2940  0.0588  11.00000  0.05    0.24
Q20   1   0.1241  0.1391  0.6387  11.00000  0.05    0.24
;
_shelx_res_checksum              67553
_shelx_hkl_file
;
  -1   0   0  223.98    6.00
  -1   0   0  232.48    5.90
  -1   0   0  234.68    5.90
  -1   0   0  232.18    5.90
  -1   0   0  228.58    6.00
  -1   0   0  236.58    5.90
  -1   0   0  231.38    5.80
   1   0   0  232.98    5.90
   1   0   0  231.08    6.10
   1   0   0  230.98    5.90
   1   0   0  234.68    6.00
   1   0   0  231.78    5.80
  -2   0   0 1002.30   24.00
  -2   0   0 1059.79   24.30
  -2   0   0 1021.20   24.50
  -2   0   0 1050.09   24.00
  -2   0   0 1002.90   24.30
  -2   0   0 1006.40   24.20
  -2   0   0 1049.30   24.20
   2   0   0 1021.00   24.40
   2   0   0 1029.00   23.90
   2   0   0 1048.10   24.00
   2   0   0 1053.49   24.10
   2   0   0 1028.40   24.10
   2   0   0 1020.10   24.40
  -3   0   0   39.10    2.60
  -3   0   0   36.80    2.40
  -3   0   0   44.60    2.60
  -3   0   0   37.60    2.30
  -3   0   0   34.30    2.40
  -3   0   0   34.70    2.50
  -3   0   0   36.20    2.40
   3   0   0   39.10    2.30
   3   0   0   38.60    2.30
   3   0   0   35.70    2.30
   3   0   0   39.30    2.60
   3   0   0   40.40    2.70
   3   0   0   40.30    2.40
  -4   0   0  160.68    6.80
  -4   0   0  167.78    6.40
  -4   0   0  172.78    6.80
  -4   0   0  169.38    6.30
  -4   0   0  156.08    6.50
  -4   0   0  166.78    6.50
  -4   0   0  158.68    6.70
   4   0   0  166.88    6.70
   4   0   0  157.68    6.00
   4   0   0  169.88    6.20
  -5   0   0  315.87   11.40
  -5   0   0  340.27   11.90
  -5   0   0  340.77   12.00
  -5   0   0  326.47   11.10
  -5   0   0  330.57   11.80
  -5   0   0  346.77   11.10
   5   0   0  327.97   10.60
   5   0   0  349.27   11.80
   5   0   0  324.97   10.70
  -6   0   0   -0.70    0.80
  -6   0   0   -0.40    1.20
  -6   0   0    0.10    1.30
  -6   0   0   -0.30    1.10
  -6   0   0   -0.10    1.10
  -6   0   0    1.40    1.40
   6   0   0   -0.30    0.70
   6   0   0   -0.20    1.00
  -7   0   0    6.60    2.00
  -7   0   0    9.30    2.90
  -7   0   0    5.20    2.10
  -8   0   0    1.90    2.10
  -8   0   0    5.40    2.00
  -8   0   0    1.00    2.70
  -8   1   0   67.69    5.70
  -8   1   0   51.39    6.00
  -8   1   0   60.29    7.20
  -7   1   0   81.99    6.70
  -7   1   0   75.39    5.60
  -7   1   0   82.99    6.10
   6  -1   0   15.40    2.40
   6  -1   0   19.80    3.10
  -6   1   0   19.60    3.50
  -6   1   0   16.00    3.50
  -6   1   0   12.70    2.60
  -6   1   0   17.50    2.80
  -6   1   0   17.20    3.10
   5  -1   0   48.80    3.30
   5  -1   0   47.80    3.90
   5  -1   0   52.29    3.40
  -5   1   0   48.70    4.00
  -5   1   0   54.29    3.70
  -5   1   0   61.79    3.80
  -5   1   0   51.59    4.30
  -5   1   0   45.40    4.00
  -5   1   0   49.80    3.90
  -5   1   0   59.59    3.90
   4  -1   0    1.40    0.80
   4  -1   0    0.50    0.50
   4  -1   0    0.20    0.50
  -4   1   0    0.30    0.70
  -4   1   0   -0.10    0.80
  -4   1   0    1.20    0.80
  -4   1   0    0.50    0.70
  -4   1   0    0.50    0.70
  -4   1   0   -0.10    0.60
  -4   1   0   -0.80    0.50
   3  -1   0 1043.70   25.70
   3  -1   0 1026.70   25.60
   3  -1   0 1046.10   24.80
   3  -1   0 1028.20   24.60
   3  -1   0 1035.40   24.80
   3  -1   0 1042.20   24.80
  -3   1   0 1011.10   24.90
  -3   1   0 1062.29   24.90
  -3   1   0  979.80   25.10
  -3   1   0 1007.10   25.70
  -3   1   0 1024.90   25.70
  -3   1   0 1031.70   24.40
  -3   1   0 1030.80   25.80
   2  -1   0 9999.00  213.88
   2  -1   0 9629.34  218.18
   2  -1   0 9709.93  216.18
   2  -1   0 9738.53  215.28
   2  -1   0 9723.93  215.48
  -2   1   0 9769.32  214.58
  -2   1   0 9907.11  214.68
  -2   1   0 9799.32  216.48
  -2   1   0 9879.21  215.38
  -2   1   0 9738.73  213.98
  -2   1   0 9731.73  215.78
  -2   1   0 9741.62  214.58
   1  -1   0  837.12   18.70
   1  -1   0  772.72   19.00
   1  -1   0  806.52   18.80
   1  -1   0  812.42   18.70
  -1   1   0  815.92   17.90
  -1   1   0  817.22   19.10
  -1   1   0  801.42   18.80
  -1   1   0  822.52   18.70
  -1   1   0  805.82   18.80
  -1   1   0  816.42   19.30
  -1   1   0  808.92   18.80
   0  -1   0  254.87    6.00
   0  -1   0  251.07    6.30
   0  -1   0  249.38    6.30
   0  -1   0  247.58    6.40
   0  -1   0  248.98    6.00
   0   1   0  256.57    6.40
   0   1   0  243.18    6.20
   0   1   0  244.68    5.90
   0   1   0  248.58    6.00
   0   1   0  240.08    6.40
   0   1   0  251.47    6.30
  -1  -1   0 2117.99   46.70
  -1  -1   0 2051.69   46.60
  -1  -1   0 2087.09   46.80
  -1  -1   0 2091.39   46.80
  -1  -1   0 2105.39   46.80
  -1  -1   0 2106.89   46.60
   1   1   0 2114.39   46.60
   1   1   0 2103.29   46.60
   1   1   0 2110.89   46.80
   1   1   0 2099.39   46.30
   1   1   0 2007.00   46.60
   1   1   0 2060.99   46.80
  -2  -1   0   48.60    2.50
  -2  -1   0   51.99    2.70
  -2  -1   0   47.40    2.40
  -2  -1   0   50.49    2.50
  -2  -1   0   48.70    2.60
  -2  -1   0   49.00    2.60
  -2  -1   0   48.30    2.40
   2   1   0   53.09    2.50
   2   1   0   50.29    2.40
   2   1   0   50.09    2.50
   2   1   0   46.80    2.30
   2   1   0   47.00    2.50
  -3  -1   0   28.80    2.30
  -3  -1   0   29.10    2.30
  -3  -1   0   31.10    2.40
  -3  -1   0   29.80    2.20
  -3  -1   0   28.00    2.20
  -3  -1   0   30.50    2.50
   3   1   0   27.60    2.10
   3   1   0   34.70    2.50
   3   1   0   29.10    2.10
   3   1   0   28.70    2.20
   3   1   0   32.20    2.20
  -4  -1   0   47.20    3.10
  -4  -1   0   42.60    3.20
  -4  -1   0   41.60    3.30
  -4  -1   0   45.90    3.20
  -4  -1   0   40.90    2.90
  -4  -1   0   49.60    3.40
   4   1   0   44.80    2.90
   4   1   0   45.00    3.10
   4   1   0   44.80    3.00
  -5  -1   0  151.48    7.00
  -5  -1   0  142.39    7.20
  -5  -1   0  142.39    7.00
  -5  -1   0  170.68    7.50
  -5  -1   0  151.98    6.60
  -5  -1   0  151.68    6.70
   5   1   0  162.18    7.00
   5   1   0  145.99    6.40
   5   1   0  146.59    6.50
  -6  -1   0   41.10    4.30
  -6  -1   0   45.50    4.70
  -6  -1   0   40.30    4.90
  -6  -1   0   39.40    4.60
  -6  -1   0   43.20    4.50
  -6  -1   0   47.80    6.00
   6   1   0   42.20    4.30
   6   1   0   39.90    3.40
  -7  -1   0   20.10    3.70
  -7  -1   0   18.30    3.10
  -7  -1   0   12.20    2.80
  -7  -1   0   18.50    3.90
  -8  -1   0   16.30    3.30
  -8  -1   0   15.90    3.70
  -8  -1   0   16.80    4.10
  -8   2   0   11.00    3.10
  -8   2   0   10.50    3.70
  -8   2   0   13.60    3.40
  -7   2   0    4.70    2.50
  -7   2   0    2.30    1.50
  -7   2   0    0.80    1.40
   6  -2   0   38.10    3.30
  -6   2   0   39.50    4.90
  -6   2   0   35.80    4.20
  -6   2   0   32.90    3.70
  -6   2   0   39.80    4.80
   5  -2   0   27.70    3.00
   5  -2   0   31.30    3.80
   5  -2   0   27.60    3.00
  -5   2   0   23.70    3.30
  -5   2   0   24.10    3.10
  -5   2   0   20.70    3.40
  -5   2   0   28.10    3.60
  -5   2   0   23.90    2.90
  -5   2   0   22.10    3.00
  -5   2   0   27.90    2.80
   4  -2   0  343.77   10.30
   4  -2   0  338.87   11.60
  -4   2   0  353.76   10.90
  -4   2   0  333.97    9.70
  -4   2   0  342.07   11.70
  -4   2   0  348.87   12.20
  -4   2   0  342.97   11.70
  -4   2   0  346.17   10.80
  -4   2   0  347.07   11.20
   3  -2   0    1.20    0.70
   3  -2   0    7.30    1.50
   3  -2   0    1.50    0.60
   3  -2   0    1.90    0.80
   3  -2   0    0.90    0.60
  -3   2   0    1.40    0.80
  -3   2   0    1.20    1.00
  -3   2   0    1.50    0.80
  -3   2   0    0.60    0.70
  -3   2   0    2.90    1.20
  -3   2   0    1.50    1.00
  -3   2   0    0.80    0.40
  -3   2   0    0.30    0.60
   2  -2   0  516.15   13.30
   2  -2   0  522.35   13.40
   2  -2   0  521.25   14.10
   2  -2   0  531.85   13.50
   2  -2   0  530.75   14.10
  -2   2   0  534.95   13.50
  -2   2   0  515.15   14.10
  -2   2   0  504.45   13.60
  -2   2   0  502.85   13.40
  -2   2   0  531.75   13.70
  -2   2   0  518.65   14.50
   1  -2   0  452.25   11.80
   1  -2   0  461.55   11.50
   1  -2   0  461.15   11.20
   1  -2   0  435.56   11.40
   1  -2   0  453.65   11.60
  -1   2   0  464.05   11.60
  -1   2   0  436.06   11.50
  -1   2   0  446.06   11.80
  -1   2   0  464.45   12.20
  -1   2   0  446.16   11.30
  -1   2   0  446.16   11.70
   0  -2   0  934.91   22.00
   0  -2   0  977.30   21.90
   0  -2   0  962.40   23.00
   0  -2   0  974.90   22.80
   0  -2   0  955.90   22.60
   0  -2   0  953.70   22.50
   0   2   0  944.11   22.60
   0   2   0  978.00   21.90
   0   2   0  973.60   22.90
   0   2   0  967.00   22.50
   0   2   0  957.60   22.80
  -1  -2   0    2.60    0.80
  -1  -2   0    5.50    0.90
  -1  -2   0    3.90    0.80
  -1  -2   0    2.50    0.70
  -1  -2   0    2.60    0.80
  -1  -2   0    3.70    0.80
   1   2   0    3.40    0.80
   1   2   0    1.90    0.60
   1   2   0    4.00    0.80
   1   2   0    3.90    0.90
   1   2   0    2.60    0.70
  -2  -2   0   23.00    1.80
  -2  -2   0   25.60    2.00
  -2  -2   0   21.70    1.90
  -2  -2   0   25.20    2.00
  -2  -2   0   25.70    2.00
  -2  -2   0   25.70    2.10
   2   2   0   22.20    1.80
   2   2   0   24.30    1.90
   2   2   0   24.60    2.00
   2   2   0   24.70    1.90
   2   2   0   23.40    1.60
   2   2   0   22.80    1.80
  -3  -2   0  797.12   20.40
  -3  -2   0  732.83   20.00
  -3  -2   0  806.82   20.60
  -3  -2   0  768.32   19.50
  -3  -2   0  781.82   20.00
  -3  -2   0  750.32   20.40
  -3  -2   0  779.52   20.10
   3   2   0  752.82   19.40
   3   2   0  752.32   20.10
   3   2   0  757.72   19.80
   3   2   0  781.22   20.20
   3   2   0  802.62   20.00
  -4  -2   0   80.09    4.60
  -4  -2   0   84.19    4.30
  -4  -2   0   87.79    4.60
  -4  -2   0   72.29    4.40
  -4  -2   0   71.59    4.50
  -4  -2   0   72.49    4.20
   4   2   0   82.99    4.30
   4   2   0   73.79    4.00
  -5  -2   0  316.97   10.70
  -5  -2   0  291.57   10.40
  -5  -2   0  289.37   11.10
  -5  -2   0  290.17   11.00
  -5  -2   0  286.77   10.80
  -5  -2   0  277.47   10.40
   5   2   0  291.87   10.20
   5   2   0  283.97   10.40
   5   2   0  289.87   10.30
  -6  -2   0   13.70    3.00
  -6  -2   0   15.20    2.90
  -6  -2   0   10.00    2.30
  -6  -2   0   19.50    3.10
   6   2   0   13.50    2.50
   6   2   0    8.60    2.00
  -7  -2   0    1.00    1.80
  -7  -2   0   -0.80    1.00
  -7  -2   0    0.60    1.50
  -7  -2   0    0.00    1.80
  -8  -2   0    9.30    2.50
  -8  -2   0   14.60    3.90
  -8  -2   0   11.30    3.20
  -8   3   0    7.90    3.20
  -8   3   0    4.70    2.30
  -8   3   0    6.10    2.30
  -7   3   0   10.40    2.60
  -7   3   0   14.10    3.70
  -7   3   0   11.30    2.90
  -6   3   0   59.29    4.90
  -6   3   0   57.49    4.50
  -6   3   0   53.79    5.70
   5  -3   0  111.19    5.30
   5  -3   0  116.89    6.70
  -5   3   0  122.79    6.20
  -5   3   0  119.69    4.70
  -5   3   0  124.29    6.90
  -5   3   0  104.79    6.10
  -5   3   0  122.39    7.40
  -5   3   0  111.49    6.70
  -5   3   0  113.59    5.90
   4  -3   0   44.30    3.00
   4  -3   0   50.29    3.40
   4  -3   0   42.70    3.60
  -4   3   0   42.00    2.10
  -4   3   0   45.30    3.90
  -4   3   0   43.50    3.30
  -4   3   0   44.70    4.10
  -4   3   0   48.50    3.80
  -4   3   0   46.00    3.50
  -4   3   0   46.60    3.30
   3  -3   0   91.39    4.80
   3  -3   0   94.29    4.30
   3  -3   0   96.19    4.80
  -3   3   0   91.59    4.90
  -3   3   0   89.09    4.90
  -3   3   0   98.39    4.50
  -3   3   0  100.89    4.80
  -3   3   0   91.89    4.70
  -3   3   0   92.69    5.40
  -3   3   0   97.99    4.60
   2  -3   0  273.27    8.60
   2  -3   0  283.47    8.50
   2  -3   0  279.27    9.00
   2  -3   0  290.57    8.60
   2  -3   0  272.27    9.30
  -2   3   0  285.67    9.60
  -2   3   0  267.37    9.00
  -2   3   0  262.77    8.70
  -2   3   0  292.47    8.70
  -2   3   0  279.37    8.60
  -2   3   0  271.97    8.60
   1  -3   0   46.70    2.60
   1  -3   0   45.20    2.70
   1  -3   0   43.70    2.50
   1  -3   0   46.80    1.70
   1  -3   0   43.10    2.60
   1  -3   0   46.40    2.30
  -1   3   0   45.60    2.40
  -1   3   0   44.40    2.80
  -1   3   0   48.70    2.70
  -1   3   0   50.29    2.70
  -1   3   0   47.10    3.00
  -1   3   0   47.30    2.70
   0  -3   0   -0.10    0.40
   0  -3   0    1.10    0.70
   0  -3   0    0.30    0.40
   0  -3   0   -0.10    0.30
   0  -3   0   -0.20    0.40
   0  -3   0    0.00    0.40
   0   3   0    0.20    0.50
   0   3   0   -0.20    0.40
   0   3   0   -0.20    0.50
   0   3   0   -0.90    0.30
   0   3   0    0.70    0.40
  -1  -3   0  159.48    6.00
  -1  -3   0  156.68    5.80
  -1  -3   0  160.28    5.00
  -1  -3   0  157.48    5.60
  -1  -3   0  165.28    5.90
  -1  -3   0  159.88    6.10
   1   3   0  164.58    5.70
   1   3   0  174.48    6.30
   1   3   0  163.48    5.90
   1   3   0  159.98    5.80
  -2  -3   0  596.94   16.40
  -2  -3   0  616.24   16.90
  -2  -3   0  597.64   16.90
  -2  -3   0  660.93   16.70
  -2  -3   0  626.04   16.70
  -2  -3   0  601.44   16.30
   2   3   0  611.84   16.20
   2   3   0  594.94   15.50
   2   3   0  594.04   16.40
   2   3   0  609.64   16.90
   2   3   0  595.64   16.70
   2   3   0  642.54   16.60
  -3  -3   0  143.79    6.60
  -3  -3   0  150.28    6.60
  -3  -3   0  147.39    6.20
  -3  -3   0  154.28    6.30
  -3  -3   0  139.09    6.10
   3   3   0  147.59    6.50
   3   3   0  148.09    5.60
   3   3   0  158.38    6.90
   3   3   0  152.78    6.50
   3   3   0  143.69    6.10
  -4  -3   0  105.19    5.90
  -4  -3   0   94.29    5.40
  -4  -3   0  112.49    5.90
  -4  -3   0  122.99    5.80
  -4  -3   0  108.49    5.60
   4   3   0  109.99    5.00
   4   3   0  109.99    5.70
   4   3   0  107.59    5.40
  -5  -3   0  293.07   10.40
  -5  -3   0  277.27   10.80
  -5  -3   0  301.47   11.30
  -5  -3   0  301.47   11.50
  -5  -3   0  277.97   11.40
   5   3   0  278.77   10.50
   5   3   0  289.17   10.10
  -6  -3   0  133.49    7.10
  -6  -3   0  151.08    8.20
  -6  -3   0  145.99    8.20
  -6  -3   0  145.49    7.70
   6   3   0  135.39    7.20
   6   3   0  145.99    7.20
  -7  -3   0    3.40    2.30
  -7  -3   0    2.50    1.80
  -7  -3   0    7.50    2.50
  -7  -3   0    2.80    1.50
  -8  -3   0   10.70    3.40
  -8  -3   0   11.00    2.90
  -8  -3   0    7.40    2.80
  -7   4   0    3.40    2.10
  -7   4   0    2.40    2.50
  -7   4   0    4.80    2.30
  -6   4   0    7.90    2.70
  -6   4   0   10.80    2.40
  -6   4   0    5.30    2.10
   5  -4   0   10.90    2.10
  -5   4   0    7.80    2.40
  -5   4   0    2.20    3.10
  -5   4   0    4.20    2.10
  -5   4   0    8.80    2.10
  -5   4   0    8.20    2.10
   4  -4   0   10.50    1.90
   4  -4   0    9.50    2.00
   4  -4   0    8.60    2.00
  -4   4   0    8.70    2.40
  -4   4   0    7.60    1.80
  -4   4   0    6.90    1.80
  -4   4   0    9.20    2.00
  -4   4   0    8.00    2.10
  -4   4   0    8.20    2.20
   3  -4   0    0.70    0.70
   3  -4   0    0.10    0.80
   3  -4   0   -0.40    0.50
  -3   4   0    0.70    1.00
  -3   4   0    1.20    0.90
  -3   4   0    1.00    0.80
  -3   4   0    1.30    0.90
  -3   4   0    0.70    0.80
   2  -4   0  108.99    4.90
   2  -4   0  117.39    5.90
   2  -4   0  109.69    5.30
  -2   4   0  107.69    5.10
  -2   4   0  105.99    5.30
  -2   4   0  108.49    5.30
  -2   4   0  123.69    6.00
  -2   4   0  117.29    5.20
  -2   4   0  118.19    5.00
   1  -4   0   48.30    3.20
   1  -4   0   40.40    2.80
   1  -4   0   44.80    2.10
   1  -4   0   50.69    3.10
   1  -4   0   43.30    3.30
   1  -4   0   43.10    2.40
  -1   4   0   43.00    2.90
  -1   4   0   47.20    2.70
  -1   4   0   45.70    3.20
  -1   4   0   47.90    3.00
  -1   4   0   45.90    3.00
  -1   4   0   41.90    3.20
   0  -4   0   35.90    2.60
   0  -4   0   37.50    2.80
   0  -4   0   39.60    2.30
   0  -4   0   34.80    2.90
   0  -4   0   33.90    2.10
   0  -4   0   41.10    2.80
   0   4   0   35.60    2.50
   0   4   0   38.10    2.10
   0   4   0   40.10    3.00
   0   4   0   38.00    2.80
   0   4   0   36.60    2.90
   0   4   0   36.00    2.70
  -1  -4   0    0.10    0.50
  -1  -4   0    0.10    0.80
  -1  -4   0    0.40    0.60
  -1  -4   0    0.90    0.80
  -1  -4   0   -0.20    0.50
  -1  -4   0    0.90    0.70
   1   4   0    0.30    0.60
   1   4   0    1.40    0.90
   1   4   0    1.20    0.90
   1   4   0    1.10    0.80
   1   4   0    0.20    0.60
  -2  -4   0    9.90    1.90
  -2  -4   0   12.30    1.90
  -2  -4   0    7.10    1.40
  -2  -4   0   13.00    2.20
  -2  -4   0   18.10    3.70
  -2  -4   0   10.10    1.80
   2   4   0   10.00    1.80
   2   4   0   12.80    2.10
   2   4   0    9.00    1.80
   2   4   0   10.90    1.90
  -3  -4   0 1005.50   27.30
  -3  -4   0  996.00   26.60
  -3  -4   0 1066.49   27.50
  -3  -4   0  980.50   26.40
   3   4   0 1046.50   25.30
   3   4   0 1000.00   26.60
   3   4   0 1014.00   27.10
  -4  -4   0   16.70    2.80
  -4  -4   0   13.60    2.30
  -4  -4   0   19.20    2.90
  -4  -4   0   18.10    2.80
   4   4   0   20.40    2.90
   4   4   0   21.10    2.50
   4   4   0   18.60    2.90
  -5  -4   0   72.69    5.10
  -5  -4   0   70.69    5.30
  -5  -4   0   75.49    5.50
  -5  -4   0   67.19    5.40
   5   4   0   71.19    5.10
   5   4   0   69.59    4.30
   5   4   0   74.09    4.90
  -6  -4   0    1.40    1.40
  -6  -4   0   -0.10    1.30
  -6  -4   0    0.30    1.10
   6   4   0    0.90    1.10
   6   4   0    1.40    1.30
  -7  -4   0   -0.50    1.40
  -7  -4   0    2.50    2.30
  -7  -4   0   -1.30    1.10
  -8  -4   0    7.90    3.00
  -8  -4   0   11.90    3.80
  -8  -4   0    9.30    2.90
  -7   5   0    5.50    2.20
  -7   5   0    2.40    2.60
  -7   5   0    3.60    2.30
  -6   5   0    0.10    1.50
  -6   5   0   -1.90    1.50
  -6   5   0    0.40    1.30
  -5   5   0   41.00    4.40
  -5   5   0   42.40    5.10
  -5   5   0   38.90    4.70
   4  -5   0   13.20    2.60
   4  -5   0   22.60    4.70
   4  -5   0   19.10    2.70
  -4   5   0   14.80    3.20
  -4   5   0   15.10    2.60
  -4   5   0   12.00    2.70
  -4   5   0   14.30    2.60
  -4   5   0   16.00    2.80
  -4   5   0   16.20    3.10
   3  -5   0   97.29    5.20
   3  -5   0  107.19    6.00
   3  -5   0  106.79    6.20
  -3   5   0  106.19    6.10
  -3   5   0  106.99    6.50
  -3   5   0  100.69    5.60
  -3   5   0  101.79    5.80
  -3   5   0  115.89    5.80
   2  -5   0   -0.20    0.80
   2  -5   0   -0.70    0.50
  -2   5   0   -0.50    0.70
  -2   5   0    0.70    0.70
  -2   5   0   -0.60    0.60
  -2   5   0    0.70    0.90
  -2   5   0    0.40    0.90
  -2   5   0    0.60    1.00
   1  -5   0   11.90    1.80
   1  -5   0   13.20    1.60
   1  -5   0   15.70    1.60
   1  -5   0   12.50    2.40
  -1   5   0   17.70    2.80
  -1   5   0   13.20    2.00
  -1   5   0   13.40    2.20
  -1   5   0    9.00    1.90
  -1   5   0   11.30    1.90
  -1   5   0   15.30    1.80
   0  -5   0  110.39    6.00
   0  -5   0  105.89    4.30
   0  -5   0  113.99    5.70
   0  -5   0  104.29    5.20
   0  -5   0  108.99    4.60
   0   5   0  117.29    5.60
   0   5   0  107.49    5.40
   0   5   0  110.69    5.00
   0   5   0  103.79    5.70
   0   5   0  112.79    5.80
   0   5   0  113.09    4.20
  -1  -5   0  378.46   12.70
  -1  -5   0  381.56   11.80
  -1  -5   0  384.36   13.00
  -1  -5   0  379.86   12.20
  -1  -5   0  371.76   10.80
   1   5   0  384.56   12.50
   1   5   0  379.46   12.80
   1   5   0  396.26   13.00
  -2  -5   0    5.10    1.50
  -2  -5   0    7.50    2.00
  -2  -5   0    7.10    1.30
  -2  -5   0    6.60    1.90
   2   5   0    6.50    1.70
   2   5   0    6.90    1.80
   2   5   0    4.10    1.40
  -3  -5   0    5.60    1.70
  -3  -5   0    6.30    1.60
  -3  -5   0    8.70    2.30
  -3  -5   0   11.30    2.60
   3   5   0   11.90    2.50
   3   5   0    8.70    1.60
   3   5   0   11.10    2.30
  -4  -5   0    2.40    1.60
  -4  -5   0    0.30    1.00
  -4  -5   0    0.60    1.10
  -4  -5   0    1.20    1.40
   4   5   0    1.10    1.10
   4   5   0    1.20    1.00
   4   5   0    0.20    1.00
  -5  -5   0   39.70    5.20
  -5  -5   0   32.90    4.40
  -5  -5   0   39.10    4.50
   5   5   0   43.60    4.90
   5   5   0   36.90    3.20
  -6  -5   0    0.10    1.50
  -6  -5   0    1.00    1.20
  -6  -5   0    0.70    1.50
   6   5   0    0.30    1.00
   6   5   0    0.40    1.30
  -7  -5   0   15.90    3.50
  -7  -5   0    9.50    3.20
  -7  -5   0   18.70    4.20
  -6   6   0    1.30    2.10
  -6   6   0    1.40    1.70
  -6   6   0    1.50    2.10
  -5   6   0    6.50    2.20
  -5   6   0    5.60    2.30
  -5   6   0   11.00    3.00
   4  -6   0    9.50    2.20
  -4   6   0    8.60    2.50
  -4   6   0    4.60    1.90
  -4   6   0    7.90    2.00
   3  -6   0    1.20    1.00
  -3   6   0    2.60    1.70
  -3   6   0    0.40    1.10
  -3   6   0    0.90    1.10
  -3   6   0    0.70    1.20
   2  -6   0    4.20    1.90
   2  -6   0    8.80    1.90
  -2   6   0   10.20    2.20
  -2   6   0    7.90    1.80
  -2   6   0    6.80    1.90
  -2   6   0    7.30    2.10
  -2   6   0    8.90    2.20
   1  -6   0  134.29    5.20
   1  -6   0  133.19    7.40
   1  -6   0  135.89    5.20
   1  -6   0  130.89    6.40
  -1   6   0  143.19    7.50
  -1   6   0  138.19    6.50
  -1   6   0  141.29    5.60
  -1   6   0  136.69    6.70
  -1   6   0  128.09    7.00
   0  -6   0  206.28    7.00
   0  -6   0  211.08    7.60
   0  -6   0  211.28    9.50
   0  -6   0  189.88    8.10
   0   6   0  214.18    6.70
   0   6   0  201.98    7.90
   0   6   0  216.68    9.30
   0   6   0  191.68    8.50
   0   6   0  203.78    9.00
  -1  -6   0   30.10    3.40
  -1  -6   0   35.30    2.60
  -1  -6   0   35.50    4.40
   1   6   0   44.70    4.90
   1   6   0   26.10    3.50
   1   6   0   30.10    3.40
  -2  -6   0  276.57   11.30
  -2  -6   0  283.27   11.70
  -2  -6   0  266.07    8.90
  -2  -6   0  267.27   10.50
   2   6   0  280.67   11.70
   2   6   0  265.37   10.50
   2   6   0  247.28   10.80
  -3  -6   0   37.20    4.80
  -3  -6   0   45.20    4.90
  -3  -6   0   46.40    3.30
  -3  -6   0   41.20    4.70
   3   6   0   35.30    4.10
   3   6   0   41.80    5.00
   3   6   0   43.40    3.30
  -4  -6   0  144.79    8.50
  -4  -6   0  147.59    8.00
  -4  -6   0  151.78    7.90
   4   6   0  154.38    8.40
   4   6   0  150.68    8.00
   4   6   0  152.48    6.70
  -5  -6   0   67.69    6.80
  -5  -6   0   74.89    5.80
  -5  -6   0   78.19    6.40
   5   6   0   74.29    5.80
   5   6   0   79.59    4.80
  -6  -6   0    5.30    2.50
  -6  -6   0    7.40    2.60
  -6  -6   0    8.50    2.70
   6   6   0    8.80    2.60
  -7  -6   0   12.20    3.60
  -7  -6   0   13.20    4.10
  -7  -6   0   11.00    3.30
  -6   7   0    1.50    2.20
  -6   7   0    3.10    2.30
  -6   7   0    4.30    3.00
  -5   7   0   20.60    4.00
  -5   7   0   20.00    4.20
  -5   7   0   16.60    3.40
  -4   7   0   26.70    4.30
  -4   7   0   25.80    3.90
   3  -7   0  130.79    7.00
  -3   7   0  122.49    7.60
  -3   7   0  133.49    7.80
  -3   7   0  134.19    7.50
   2  -7   0   94.49    5.70
  -2   7   0  101.19    6.20
  -2   7   0   96.49    6.20
  -2   7   0   87.99    6.30
   1  -7   0    5.50    1.20
   1  -7   0    6.60    1.50
   1  -7   0    6.30    2.30
   1  -7   0    4.20    1.70
  -1   7   0    2.70    1.60
  -1   7   0    3.90    1.80
  -1   7   0    5.30    2.40
  -1   7   0    4.10    1.30
  -1   7   0    6.70    1.90
   0  -7   0  229.38   10.80
   0  -7   0  224.48    7.60
   0  -7   0  228.58    9.70
   0   7   0  247.18   10.90
   0   7   0  211.68    8.80
   0   7   0  234.08   10.50
   0   7   0  221.78    9.80
  -1  -7   0  137.39    7.40
  -1  -7   0  153.88    6.20
  -1  -7   0  161.38    8.70
   1   7   0  163.38    8.70
   1   7   0  165.18    8.60
   1   7   0  148.79    6.90
   1   7   0  142.29    7.70
  -2  -7   0  294.17   11.80
  -2  -7   0  296.57   12.80
  -2  -7   0  291.37    9.90
   2   7   0  286.77   11.90
   2   7   0  305.07   12.60
  -3  -7   0    0.90    1.00
  -3  -7   0    0.40    1.10
  -3  -7   0   -0.20    1.30
   3   7   0    1.00    1.50
   3   7   0    0.80    1.40
  -4  -7   0   27.30    3.50
  -4  -7   0   22.40    4.10
  -4  -7   0   21.60    3.50
   4   7   0   24.30    3.90
   4   7   0   22.20    3.00
  -5  -7   0    1.10    1.50
  -5  -7   0    2.70    1.90
  -5  -7   0    1.90    1.90
  -5  -7   0    1.20    1.60
   5   7   0   -0.10    1.50
  -6  -7   0   23.20    4.70
  -6  -7   0   26.80    4.70
  -6  -7   0   38.00    5.70
   6   7   0   32.60    5.20
  -5   8   0   11.20    3.60
  -5   8   0   10.80    3.10
  -5   8   0   12.80    3.50
  -4   8   0    2.20    1.80
  -4   8   0    1.60    2.00
  -3   8   0    5.30    2.30
  -3   8   0    4.00    2.10
   2  -8   0    3.20    1.60
  -2   8   0    1.30    1.50
  -2   8   0    0.20    1.50
  -2   8   0    1.80    1.50
   1  -8   0  176.98    6.50
   1  -8   0  175.88    8.80
  -1   8   0  175.58    8.70
  -1   8   0  165.98    9.00
  -1   8   0  187.18    9.90
   0  -8   0    8.10    2.30
   0  -8   0   10.80    1.80
   0   8   0    5.60    2.00
   0   8   0    7.20    2.50
   0   8   0   10.90    2.30
  -1  -8   0   29.30    3.90
  -1  -8   0   29.40    3.00
   1   8   0   34.20    4.90
   1   8   0   22.70    3.70
   1   8   0   32.60    3.80
  -2  -8   0   56.69    4.00
  -2  -8   0   60.19    6.20
  -2  -8   0   65.99    7.30
   2   8   0   67.39    6.70
   2   8   0   72.39    6.20
  -3  -8   0   79.59    5.10
  -3  -8   0   83.59    6.30
  -3  -8   0   77.99    7.00
   3   8   0   80.19    6.40
  -4  -8   0    5.10    1.90
  -4  -8   0    3.60    2.30
  -4  -8   0    7.80    2.70
   4   8   0    3.20    2.10
  -5  -8   0   15.00    4.80
  -5  -8   0   11.20    3.10
  -5  -8   0   16.60    3.40
   5   8   0   15.00    3.70
  -6  -8   0    0.40    1.80
   6   8   0   -0.40    2.10
  -4   9   0    2.20    2.40
  -4   9   0    1.10    1.80
  -3   9   0    4.00    2.30
  -3   9   0    4.00    2.50
   2  -9   0    1.80    2.60
  -2   9   0    3.20    2.00
  -2   9   0    0.70    2.10
   1  -9   0    8.00    2.60
  -1   9   0   10.70    3.00
  -1   9   0    9.00    3.10
   0  -9   0  146.29    8.50
   0   9   0  148.79    8.90
   0   9   0  160.88    9.90
   0   9   0  153.28    8.20
  -1  -9   0    1.10    1.40
   1   9   0    0.50    1.70
   1   9   0   -0.50    1.40
   1   9   0   -2.30    1.30
  -2  -9   0   14.80    3.10
   2   9   0   10.60    3.00
   2   9   0   18.60    4.80
  -3  -9   0    6.20    2.50
   3   9   0    3.00    2.10
  -4  -9   0   49.10    6.60
   4   9   0   28.10    5.20
  -2  10   0    6.20    2.90
  -2  10   0    4.40    2.90
  -1  10   0   11.70    3.40
  -1  10   0   22.70    4.70
   0 -10   0   -0.70    1.50
   0  10   0   -0.50    2.20
   0  10   0   -0.60    1.70
  -1 -10   0    2.40    2.10
   1  10   0    2.50    2.60
  -2 -10   0    2.60    2.10
   2  10   0    4.10    2.50
  -3 -10   0   14.50    3.40
   3  10   0   18.70    4.50
   2  10  -1   -0.60    2.30
  -2 -10   1   10.90    3.30
   1  10  -1   11.90    3.50
  -1 -10   1   10.20    3.20
   0  10  -1   54.99    7.00
   0 -10   1   65.29    7.40
  -1  10  -1    8.60    4.60
  -1  10  -1    5.80    2.90
   1 -10   1    3.60    2.20
   4   9  -1    0.90    2.30
  -4  -9   1   -0.10    1.70
   3   9  -1    9.20    3.20
  -3  -9   1    4.80    2.10
   2   9  -1   21.90    4.30
  -2  -9   1   21.20    4.20
   1   9  -1   -0.80    1.60
  -1  -9   1    1.10    1.50
   0   9  -1   19.50    4.20
   0   9  -1   13.90    3.70
   0  -9   1   17.80    3.80
  -1   9  -1   42.40    4.90
  -1   9  -1   44.60    6.20
  -1   9  -1   51.89    6.90
   1  -9   1   43.20    5.60
  -2   9  -1    1.70    2.30
  -2   9  -1    0.70    1.70
   2  -9   1   -0.10    1.30
  -3   9  -1   35.10    5.70
  -3   9  -1   36.40    5.30
  -4   9  -1   11.60    3.80
   5   8  -1   41.30    6.10
  -5  -8   1   29.80    5.10
  -5  -8   1   20.20    4.90
  -5  -8   1   21.10    4.10
   4   8  -1    3.40    2.40
  -4  -8   1    2.80    1.80
  -4  -8   1    1.30    1.90
  -4  -8   1    1.20    1.50
   3   8  -1   14.00    3.30
  -3  -8   1   13.30    3.00
  -3  -8   1   11.70    2.50
  -3  -8   1   15.60    3.90
   2   8  -1   91.69    6.90
  -2  -8   1   86.69    5.50
  -2  -8   1   86.39    7.30
  -2  -8   1   91.49    6.60
   1   8  -1    2.30    1.90
   1   8  -1    2.00    1.70
   1   8  -1    4.90    1.60
  -1  -8   1    1.70    1.30
  -1  -8   1    2.20    1.30
  -1  -8   1    4.20    2.70
   0   8  -1  215.58    9.00
   0   8  -1  197.68   10.10
   0   8  -1  206.98   11.00
   0  -8   1  201.68    9.90
   0  -8   1  204.38    8.30
  -1   8  -1   13.50    3.00
  -1   8  -1   20.00    3.70
  -1   8  -1   17.30    2.90
   1  -8   1   21.00    3.60
   1  -8   1   23.90    2.90
  -2   8  -1  138.89    8.90
  -2   8  -1  127.19    8.10
  -2   8  -1  125.39    7.50
   2  -8   1  141.49    7.90
   2  -8   1  133.09    6.30
  -3   8  -1   30.60    4.50
  -3   8  -1   33.10    5.10
   3  -8   1   38.10    5.00
  -4   8  -1   55.49    6.30
  -4   8  -1   55.09    6.70
  -5   8  -1    9.50    2.90
  -5   8  -1   11.30    3.70
  -5   8  -1   13.80    3.70
  -6  -7   1   40.50    5.90
  -6  -7   1   45.90    6.80
  -6  -7   1   47.80    5.70
  -6  -7   1   65.09    7.10
   5   7  -1   16.30    3.80
  -5  -7   1   20.90    4.00
  -5  -7   1   20.60    3.60
  -5  -7   1   15.10    3.30
  -5  -7   1   23.20    4.50
   4   7  -1    1.50    1.70
  -4  -7   1    0.90    2.10
  -4  -7   1    0.80    1.40
  -4  -7   1    2.20    1.60
   3   7  -1  134.69    8.10
  -3  -7   1  138.49    7.10
  -3  -7   1  144.39    8.20
  -3  -7   1  145.59    9.00
   2   7  -1  146.69    8.30
   2   7  -1  168.68    9.10
  -2  -7   1  165.88    7.50
  -2  -7   1  160.18    9.20
  -2  -7   1  160.58    8.40
   1   7  -1   44.70    5.20
   1   7  -1   42.30    3.30
   1   7  -1   47.10    5.60
  -1  -7   1   43.10    3.60
  -1  -7   1   49.40    5.90
  -1  -7   1   49.30    5.30
   0   7  -1   41.40    3.40
   0   7  -1   43.90    5.20
   0   7  -1   41.60    5.00
   0   7  -1   38.50    5.00
   0  -7   1   41.10    4.80
   0  -7   1   35.50    5.00
   0  -7   1   48.90    3.70
  -1   7  -1   29.50    4.30
  -1   7  -1   21.50    3.40
  -1   7  -1   23.40    3.10
   1  -7   1   24.40    4.10
   1  -7   1   24.70    3.50
   1  -7   1   32.90    3.30
  -2   7  -1   66.89    4.90
  -2   7  -1   63.09    5.50
  -2   7  -1   56.39    4.90
   2  -7   1   63.19    4.90
   2  -7   1   60.99    4.00
  -3   7  -1   -1.00    1.10
  -3   7  -1    0.90    1.50
  -3   7  -1    0.20    1.30
   3  -7   1   -0.10    1.00
  -4   7  -1    9.20    2.60
  -4   7  -1    5.80    2.60
  -4   7  -1    7.50    2.60
   4  -7   1    9.50    2.40
  -5   7  -1    7.50    2.90
  -5   7  -1    6.20    2.80
  -5   7  -1    2.30    2.00
  -6   7  -1   33.00    5.10
  -6   7  -1   46.60    6.50
  -6   7  -1   32.70    5.50
  -6  -6   1    4.70    2.50
  -6  -6   1    2.20    2.00
  -6  -6   1    4.80    2.40
   5   6  -1   10.70    2.90
  -5  -6   1    8.50    2.70
  -5  -6   1   11.20    3.00
  -5  -6   1   10.70    2.70
   4   6  -1   12.00    2.70
   4   6  -1    9.60    1.80
  -4  -6   1   11.20    2.80
  -4  -6   1   16.30    3.00
  -4  -6   1   11.80    3.20
  -4  -6   1   13.50    2.60
   3   6  -1   -0.20    1.20
   3   6  -1    0.10    0.70
   3   6  -1    0.20    1.10
  -3  -6   1    0.70    1.40
  -3  -6   1    2.60    1.70
  -3  -6   1   -0.40    0.90
  -3  -6   1    0.90    1.10
   2   6  -1   97.89    6.10
   2   6  -1   88.99    6.10
  -2  -6   1   96.09    5.20
  -2  -6   1   99.29    6.00
  -2  -6   1  102.99    6.50
  -2  -6   1   96.09    6.50
   1   6  -1   19.30    2.20
   1   6  -1   18.30    3.00
   1   6  -1   14.10    2.70
  -1  -6   1   23.20    4.30
  -1  -6   1   14.20    2.80
  -1  -6   1   13.60    2.60
  -1  -6   1   17.70    2.40
   0   6  -1   52.19    3.30
   0   6  -1   47.20    3.30
   0   6  -1   40.70    4.70
   0   6  -1   56.29    4.60
   0   6  -1   46.20    4.00
   0  -6   1   49.10    3.40
   0  -6   1   51.69    4.00
   0  -6   1   45.60    3.30
   0  -6   1   48.40    4.50
  -1   6  -1    6.50    1.50
  -1   6  -1    7.20    2.10
  -1   6  -1    6.00    1.80
  -1   6  -1    7.80    2.20
  -1   6  -1    4.40    1.40
   1  -6   1    4.90    1.20
   1  -6   1    5.20    1.30
   1  -6   1    3.80    1.80
   1  -6   1    8.50    1.90
  -2   6  -1   38.00    5.00
  -2   6  -1   34.10    4.40
  -2   6  -1   28.50    3.40
  -2   6  -1   29.30    3.90
   2  -6   1   43.10    4.40
   2  -6   1   29.60    3.10
   2  -6   1   26.10    1.70
   2  -6   1   29.50    4.40
  -3   6  -1   36.20    4.20
  -3   6  -1   36.30    4.60
  -3   6  -1   39.20    4.60
   3  -6   1   33.70    4.00
   3  -6   1   28.90    5.00
  -4   6  -1   20.90    3.50
  -4   6  -1   29.00    4.30
  -4   6  -1   25.00    3.70
  -4   6  -1   21.50    3.50
   4  -6   1   22.00    3.20
  -5   6  -1    6.10    2.50
  -5   6  -1    7.50    2.50
  -5   6  -1    6.60    2.50
  -6   6  -1    4.10    2.40
  -6   6  -1   13.70    3.50
  -6   6  -1    9.70    2.90
  -7  -5   1    4.70    2.30
  -7  -5   1    3.90    2.30
  -7  -5   1    8.00    2.90
   6   5  -1   68.79    5.60
  -6  -5   1   61.39    6.60
  -6  -5   1   52.09    5.70
  -6  -5   1   49.80    6.20
   5   5  -1   51.79    3.60
   5   5  -1   60.59    6.00
  -5  -5   1   48.40    5.10
  -5  -5   1   59.39    6.20
  -5  -5   1   44.30    5.40
   4   5  -1   10.50    2.50
   4   5  -1   14.80    2.00
   4   5  -1    8.80    2.40
  -4  -5   1    9.90    2.60
  -4  -5   1   13.50    2.60
  -4  -5   1   16.00    2.80
   3   5  -1  133.29    5.20
   3   5  -1  124.29    6.60
   3   5  -1  120.99    6.90
  -3  -5   1  128.39    6.50
  -3  -5   1  136.39    7.50
  -3  -5   1  136.79    6.30
  -3  -5   1  140.49    7.60
  -3  -5   1  127.89    6.80
   2   5  -1   67.59    4.60
   2   5  -1   63.19    4.60
  -2  -5   1   68.39    4.00
  -2  -5   1   62.39    4.60
  -2  -5   1   63.99    4.40
  -2  -5   1   62.89    4.80
   1   5  -1  184.78    8.20
   1   5  -1  175.28    7.60
   1   5  -1  166.58    7.80
  -1  -5   1  162.58    7.90
  -1  -5   1  178.88    7.60
  -1  -5   1  176.28    6.80
  -1  -5   1  184.08    8.10
   0   5  -1   17.50    2.70
   0   5  -1   15.50    1.90
   0   5  -1   13.40    2.40
   0   5  -1   14.30    2.40
   0   5  -1   13.90    1.90
   0  -5   1   17.40    2.80
   0  -5   1   16.90    2.60
   0  -5   1   16.20    2.10
   0  -5   1   17.60    2.20
   0  -5   1   11.40    2.30
  -1   5  -1    7.70    2.00
  -1   5  -1    8.00    1.60
  -1   5  -1    7.90    1.90
  -1   5  -1   10.40    2.20
  -1   5  -1   10.20    1.70
   1  -5   1    8.60    1.30
   1  -5   1    8.50    1.60
   1  -5   1    9.20    1.80
   1  -5   1    7.00    1.90
  -2   5  -1   45.80    3.40
  -2   5  -1   39.90    3.40
  -2   5  -1   41.80    3.40
  -2   5  -1   40.80    4.60
  -2   5  -1   44.40    3.80
   2  -5   1   42.20    3.00
   2  -5   1   39.60    4.70
   2  -5   1   40.20    1.80
   2  -5   1   37.00    3.10
  -3   5  -1    2.60    1.30
  -3   5  -1    2.00    1.50
  -3   5  -1    2.30    1.30
  -3   5  -1    5.40    1.80
   3  -5   1    3.80    1.20
   3  -5   1    3.30    1.40
   3  -5   1    0.50    1.00
  -4   5  -1   80.79    6.90
  -4   5  -1   66.99    5.20
  -4   5  -1   70.39    5.30
  -4   5  -1   64.19    4.90
  -4   5  -1   65.09    4.90
   4  -5   1   73.89    6.10
   4  -5   1   76.89    4.90
   4  -5   1   67.09    5.00
  -5   5  -1   -0.10    1.40
  -5   5  -1    2.40    1.90
  -5   5  -1   -0.20    1.10
   5  -5   1    1.10    1.10
  -6   5  -1   15.70    3.50
  -6   5  -1   22.60    4.20
  -6   5  -1   18.50    3.30
  -7   5  -1    2.50    2.20
  -7   5  -1    3.60    2.70
  -7   5  -1    0.90    1.80
  -7  -4   1    3.00    2.20
  -7  -4   1   -0.10    1.30
  -7  -4   1   -0.70    1.90
   6   4  -1   48.40    5.30
  -6  -4   1   41.90    4.90
  -6  -4   1   40.90    5.20
  -6  -4   1   40.70    5.00
   5   4  -1   12.80    2.60
   5   4  -1   12.70    2.10
  -5  -4   1   11.90    2.80
  -5  -4   1   21.10    3.60
  -5  -4   1   15.80    2.80
   4   4  -1   31.60    3.90
   4   4  -1   29.00    2.40
   4   4  -1   36.90    4.10
  -4  -4   1   21.50    3.30
  -4  -4   1   32.50    3.80
  -4  -4   1   23.40    3.20
  -4  -4   1   32.60    4.10
   3   4  -1    1.90    1.00
   3   4  -1    3.90    1.00
   3   4  -1    2.30    1.10
  -3  -4   1    2.60    1.30
  -3  -4   1    4.00    1.40
  -3  -4   1    4.10    1.40
  -3  -4   1    2.90    1.20
   2   4  -1  181.28    7.60
   2   4  -1  159.88    7.20
   2   4  -1  163.58    6.90
   2   4  -1  163.58    5.50
   2   4  -1  156.38    6.40
  -2  -4   1  155.88    7.20
  -2  -4   1  166.68    6.40
  -2  -4   1  165.78    7.30
  -2  -4   1  160.78    6.90
  -2  -4   1  163.98    6.50
  -2  -4   1  173.78    7.20
   1   4  -1    2.90    1.20
   1   4  -1    5.80    1.30
   1   4  -1    4.20    1.30
   1   4  -1    4.70    1.30
  -1  -4   1    3.90    1.40
  -1  -4   1    2.80    1.10
  -1  -4   1    4.50    1.20
  -1  -4   1    3.30    1.00
  -1  -4   1    5.40    1.40
  -1  -4   1    4.90    1.20
   0   4  -1  634.34   17.00
   0   4  -1  638.04   17.60
   0   4  -1  559.24   17.00
   0   4  -1  595.14   15.50
   0   4  -1  616.24   15.80
   0  -4   1  578.84   16.60
   0  -4   1  620.04   17.30
   0  -4   1  593.84   17.70
   0  -4   1  633.34   17.00
   0  -4   1  601.54   15.80
   0  -4   1  585.04   16.00
  -1   4  -1   30.70    3.20
  -1   4  -1   27.30    2.30
  -1   4  -1   28.30    3.20
  -1   4  -1   29.60    3.10
  -1   4  -1   31.30    2.40
  -1   4  -1   20.00    2.70
   1  -4   1   29.90    2.60
   1  -4   1   25.80    2.20
   1  -4   1   25.30    1.70
   1  -4   1   25.50    3.30
   1  -4   1   28.90    2.90
  -2   4  -1   -0.90    0.60
  -2   4  -1   -0.10    0.60
  -2   4  -1    0.50    0.70
  -2   4  -1    0.50    0.80
  -2   4  -1    0.30    0.90
  -2   4  -1   -0.30    0.50
   2  -4   1    0.40    0.60
   2  -4   1    0.00    0.60
   2  -4   1    0.10    0.20
   2  -4   1   -0.10    0.70
   2  -4   1   -0.10    0.60
  -3   4  -1   20.40    3.20
  -3   4  -1   22.00    3.10
  -3   4  -1   13.90    2.30
  -3   4  -1   19.80    2.70
  -3   4  -1   21.70    2.70
   3  -4   1   17.50    2.30
   3  -4   1   20.10    2.70
  -4   4  -1    4.20    1.50
  -4   4  -1    2.30    1.40
  -4   4  -1    3.20    1.40
  -4   4  -1    3.30    1.40
  -4   4  -1    5.20    1.90
  -4   4  -1    4.80    1.70
   4  -4   1    5.20    1.80
   4  -4   1    6.30    1.60
   4  -4   1    5.00    1.70
  -5   4  -1   72.19    5.40
  -5   4  -1   63.29    4.90
  -5   4  -1   66.39    5.20
  -5   4  -1   68.59    5.40
   5  -4   1   68.19    4.50
  -6   4  -1    0.50    1.60
  -6   4  -1   -1.50    1.00
  -6   4  -1   -0.20    1.20
  -7   4  -1    2.70    1.90
  -7   4  -1    3.90    2.00
  -7   4  -1    7.60    3.00
  -8  -3   1   -0.70    2.10
  -8  -3   1    0.40    1.50
  -7  -3   1   30.50    4.80
  -7  -3   1   30.20    4.40
  -7  -3   1   27.50    4.00
  -7  -3   1   31.90    5.00
   6   3  -1    0.80    1.10
   6   3  -1   -0.20    1.00
  -6  -3   1   -0.10    1.00
  -6  -3   1    0.60    1.30
  -6  -3   1   -0.10    1.40
  -6  -3   1   -0.60    1.20
   5   3  -1  181.68    7.40
   5   3  -1  198.28    9.90
   5   3  -1  177.48    7.90
  -5  -3   1  169.58    8.00
  -5  -3   1  188.48    7.60
  -5  -3   1  181.58    8.50
  -5  -3   1  184.98    8.70
  -5  -3   1  182.28    8.80
   4   3  -1   16.10    2.40
   4   3  -1   23.50    2.40
   4   3  -1   20.90    2.80
  -4  -3   1   20.80    3.00
  -4  -3   1   23.90    3.00
  -4  -3   1   20.20    2.70
  -4  -3   1   13.20    2.40
  -4  -3   1   17.80    2.80
   3   3  -1  161.78    5.60
   3   3  -1  155.18    6.50
  -3  -3   1  172.98    7.20
  -3  -3   1  160.48    6.70
  -3  -3   1  162.58    7.10
  -3  -3   1  164.68    6.70
  -3  -3   1  156.88    6.50
   2   3  -1  544.85   15.80
   2   3  -1  571.74   14.30
   2   3  -1  561.54   16.20
   2   3  -1  611.34   17.20
   2   3  -1  576.84   15.40
   2   3  -1  586.44   16.40
  -2  -3   1  559.84   16.40
  -2  -3   1  594.64   16.10
  -2  -3   1  612.44   16.60
  -2  -3   1  569.44   15.90
  -2  -3   1  569.24   15.60
  -2  -3   1  592.64   16.40
   1   3  -1   15.70    2.00
   1   3  -1   17.90    1.80
   1   3  -1   13.90    1.70
   1   3  -1   21.00    2.30
   1   3  -1   19.00    2.30
  -1  -3   1   20.20    2.30
  -1  -3   1   10.70    1.60
  -1  -3   1   21.70    2.40
  -1  -3   1   17.10    1.80
  -1  -3   1   14.70    2.10
   0   3  -1   99.99    3.60
   0   3  -1  100.19    4.60
   0   3  -1  108.99    4.10
   0   3  -1  101.39    4.40
   0   3  -1   93.09    4.30
   0   3  -1  103.59    4.80
   0  -3   1  100.89    4.20
   0  -3   1  108.49    4.70
   0  -3   1  101.79    4.90
   0  -3   1   97.89    4.30
   0  -3   1  110.29    4.50
  -1   3  -1   23.40    2.40
  -1   3  -1   20.50    2.40
  -1   3  -1   18.90    1.60
  -1   3  -1   18.90    2.40
  -1   3  -1   18.00    1.90
  -1   3  -1   20.40    2.10
   1  -3   1   18.20    2.40
   1  -3   1   20.90    2.10
   1  -3   1   21.70    2.30
   1  -3   1   18.20    1.90
   1  -3   1   22.30    1.70
   1  -3   1   17.00    2.00
  -2   3  -1  124.79    5.30
  -2   3  -1  133.59    5.70
  -2   3  -1  138.99    5.60
  -2   3  -1  132.49    6.20
  -2   3  -1  121.89    5.40
  -2   3  -1  146.79    5.60
   2  -3   1  136.19    5.60
   2  -3   1  130.79    5.30
   2  -3   1  124.19    6.20
   2  -3   1  139.59    5.30
   2  -3   1  135.39    5.40
   2  -3   1  120.29    5.20
  -3   3  -1   23.50    2.80
  -3   3  -1   19.70    2.50
  -3   3  -1   25.50    3.50
  -3   3  -1   17.90    2.30
  -3   3  -1   18.70    2.30
  -3   3  -1   21.20    2.40
  -3   3  -1   19.30    2.50
   3  -3   1   21.40    2.50
   3  -3   1   19.40    2.40
  -4   3  -1    2.20    1.10
  -4   3  -1    2.00    1.20
  -4   3  -1    1.60    1.00
  -4   3  -1    0.40    1.00
  -4   3  -1    1.70    1.50
  -4   3  -1    1.80    1.20
   4  -3   1    2.10    1.10
   4  -3   1    0.60    0.80
   4  -3   1   -0.30    0.50
  -5   3  -1  356.26   12.40
  -5   3  -1  365.86   14.40
  -5   3  -1  341.87   12.90
  -5   3  -1  337.87   12.20
  -5   3  -1  327.07   12.60
  -5   3  -1  347.77   10.00
  -5   3  -1  344.17   12.80
   5  -3   1  360.96   12.30
   5  -3   1  337.87   11.60
   5  -3   1  361.46   13.00
  -6   3  -1    1.80    1.70
  -6   3  -1    0.80    1.10
  -6   3  -1    2.60    1.50
   6  -3   1    0.30    1.00
  -7   3  -1   -0.60    1.50
  -7   3  -1    2.60    2.30
  -7   3  -1    4.00    1.80
  -8   3  -1    3.40    2.40
  -8   3  -1    4.70    3.00
  -8   3  -1    4.60    2.70
  -8  -2   1   24.50    5.10
  -8  -2   1   24.80    4.20
  -8  -2   1   24.20    4.60
  -7  -2   1   27.90    4.30
  -7  -2   1   35.60    5.30
  -7  -2   1   26.60    3.90
  -7  -2   1   33.80    4.40
   6   2  -1   55.59    4.10
   6   2  -1   56.79    4.40
  -6  -2   1   62.69    4.80
  -6  -2   1   51.09    5.60
  -6  -2   1   46.60    5.20
  -6  -2   1   65.39    4.80
   5   2  -1   34.90    3.10
   5   2  -1   36.00    3.10
   5   2  -1   33.80    3.50
  -5  -2   1   32.40    3.50
  -5  -2   1   33.60    3.60
  -5  -2   1   35.20    3.90
  -5  -2   1   36.50    4.10
  -5  -2   1   34.60    4.10
   4   2  -1   31.80    2.50
   4   2  -1   29.30    2.60
   4   2  -1   36.00    2.80
  -4  -2   1   38.30    3.30
  -4  -2   1   32.80    2.80
  -4  -2   1   33.70    3.50
  -4  -2   1   28.20    3.00
  -4  -2   1   36.30    2.80
  -4  -2   1   37.40    3.10
   3   2  -1   38.60    2.70
   3   2  -1   39.80    2.80
   3   2  -1   44.00    3.00
   3   2  -1   42.40    2.50
  -3  -2   1   39.00    2.80
  -3  -2   1   40.20    3.00
  -3  -2   1   40.80    2.80
  -3  -2   1   33.90    2.70
  -3  -2   1   42.90    3.10
  -3  -2   1   43.60    2.50
   2   2  -1   -0.10    0.30
   2   2  -1    1.20    0.80
   2   2  -1   -0.40    0.30
   2   2  -1    0.50    0.50
   2   2  -1    0.00    0.40
   2   2  -1    0.60    0.60
  -2  -2   1    1.10    0.60
  -2  -2   1    0.00    0.50
  -2  -2   1    0.60    0.60
  -2  -2   1    0.50    0.50
  -2  -2   1    0.30    0.60
   1   2  -1   39.20    2.40
   1   2  -1   40.40    2.40
   1   2  -1   43.90    2.20
   1   2  -1   39.70    2.30
   1   2  -1   45.30    2.40
  -1  -2   1   42.30    2.60
  -1  -2   1   42.80    2.60
  -1  -2   1   43.90    2.40
  -1  -2   1   45.60    2.40
  -1  -2   1   41.70    2.30
  -1  -2   1   39.50    2.10
   0   2  -1    4.90    1.00
   0   2  -1    5.50    1.00
   0   2  -1    5.10    0.60
   0   2  -1    3.00    0.70
   0   2  -1    4.80    0.90
   0   2  -1    4.20    0.90
   0  -2   1    4.40    0.90
   0  -2   1    5.30    0.90
   0  -2   1    4.50    0.90
   0  -2   1    4.80    1.00
   0  -2   1    4.10    0.90
  -1   2  -1  153.18    5.50
  -1   2  -1  140.19    5.10
  -1   2  -1  153.18    4.90
  -1   2  -1  156.48    5.80
  -1   2  -1  156.68    5.20
  -1   2  -1  154.88    5.30
   1  -2   1  152.78    5.20
   1  -2   1  147.09    4.80
   1  -2   1  150.08    5.10
   1  -2   1  143.39    5.10
   1  -2   1  149.88    5.80
   1  -2   1  154.58    5.40
  -2   2  -1  779.02   19.60
  -2   2  -1  789.72   19.40
  -2   2  -1  753.92   19.40
  -2   2  -1  750.72   19.60
  -2   2  -1  766.82   20.70
  -2   2  -1  760.72   19.10
  -2   2  -1  745.23   19.30
   2  -2   1  764.32   17.50
   2  -2   1  794.12   19.30
   2  -2   1  786.62   19.60
   2  -2   1  751.62   19.30
   2  -2   1  774.42   19.30
   2  -2   1  766.22   20.40
   2  -2   1  756.02   19.20
  -3   2  -1 1856.91   45.20
  -3   2  -1 1829.12   44.90
  -3   2  -1 1958.60   46.80
  -3   2  -1 1919.11   45.00
  -3   2  -1 1932.71   44.90
  -3   2  -1 1938.41   43.20
  -3   2  -1 1931.51   45.30
  -3   2  -1 1855.21   45.20
   3  -2   1 1907.41   44.60
   3  -2   1 1881.01   42.60
   3  -2   1 1974.50   44.80
   3  -2   1 1915.91   44.90
   3  -2   1 1912.51   45.20
  -4   2  -1  362.46   12.20
  -4   2  -1  383.76   13.50
  -4   2  -1  376.56   11.80
  -4   2  -1  379.86   12.20
  -4   2  -1  360.66   11.70
  -4   2  -1  375.06   10.60
  -4   2  -1  374.46   12.40
   4  -2   1  372.36   12.00
   4  -2   1  386.46   11.50
   4  -2   1  381.16   12.40
  -5   2  -1   62.69    4.70
  -5   2  -1   46.80    4.10
  -5   2  -1   58.79    3.50
  -5   2  -1   57.99    4.40
  -5   2  -1   44.70    5.20
  -5   2  -1   54.49    4.00
  -5   2  -1   59.29    4.20
   5  -2   1   64.59    3.90
   5  -2   1   54.69    3.90
   5  -2   1   54.19    4.20
  -6   2  -1  278.07   11.60
  -6   2  -1  270.67   11.30
  -6   2  -1  259.27   10.60
  -6   2  -1  257.57   11.30
   6  -2   1  268.07   10.00
  -7   2  -1   -1.10    1.30
  -7   2  -1   -0.90    1.30
  -7   2  -1    0.70    1.50
  -8   2  -1   -1.10    2.00
  -8   2  -1   -1.10    1.30
  -8   2  -1    0.90    1.80
  -8  -1   1   -1.80    2.40
  -8  -1   1    2.20    1.70
  -8  -1   1    2.40    2.20
  -7  -1   1    9.90    3.10
  -7  -1   1   10.80    3.40
  -7  -1   1   12.80    3.00
  -7  -1   1    9.90    2.40
   6   1  -1   40.50    4.40
   6   1  -1   40.90    4.00
  -6  -1   1   36.10    3.90
  -6  -1   1   39.90    4.50
  -6  -1   1   30.70    4.50
  -6  -1   1   34.00    4.20
   5   1  -1  225.38    8.70
   5   1  -1  209.98    8.00
   5   1  -1  216.68    8.00
  -5  -1   1  218.18    9.00
  -5  -1   1  227.18    8.40
  -5  -1   1  203.38    8.50
  -5  -1   1  221.48    8.80
  -5  -1   1  224.68    9.40
  -5  -1   1  221.98    8.50
   4   1  -1   25.00    2.60
   4   1  -1   22.50    2.50
   4   1  -1   20.10    2.30
  -4  -1   1   17.40    2.60
  -4  -1   1   17.20    2.40
  -4  -1   1   26.40    2.80
  -4  -1   1   23.00    2.80
  -4  -1   1   16.60    2.10
  -4  -1   1   18.90    2.30
   3   1  -1   74.19    3.50
   3   1  -1   82.89    4.10
   3   1  -1   76.09    3.60
   3   1  -1   85.39    3.80
   3   1  -1   73.89    3.60
   3   1  -1   79.39    3.70
  -3  -1   1   82.49    4.00
  -3  -1   1   80.69    3.80
  -3  -1   1   83.79    3.80
  -3  -1   1   74.59    3.90
  -3  -1   1   89.69    3.90
  -3  -1   1   79.09    4.10
   2   1  -1   -0.10    0.30
   2   1  -1    0.70    0.50
   2   1  -1    1.00    0.50
   2   1  -1    0.10    0.30
   2   1  -1    0.50    0.50
   2   1  -1    0.70    0.50
  -2  -1   1    0.60    0.40
  -2  -1   1    0.30    0.40
  -2  -1   1    0.80    0.60
  -2  -1   1   -0.10    0.30
  -2  -1   1   -0.30    0.40
  -2  -1   1    1.10    0.60
   1   1  -1 1646.24   37.50
   1   1  -1 1739.43   37.80
   1   1  -1 1689.13   37.70
   1   1  -1 1691.13   37.90
   1   1  -1 1651.83   36.80
  -1  -1   1 1656.33   37.50
  -1  -1   1 1630.34   37.90
  -1  -1   1 1636.14   36.80
  -1  -1   1 1679.93   37.70
  -1  -1   1 1679.93   37.90
  -1  -1   1 1628.34   37.70
   0   1  -1 2382.36   52.09
   0   1  -1 2393.56   52.79
   0   1  -1 2400.46   52.99
   0   1  -1 2407.96   53.09
   0   1  -1 2320.47   51.99
   0   1  -1 2401.66   52.89
   0   1  -1 2416.46   52.89
   0  -1   1 2368.06   51.79
   0  -1   1 2322.07   53.09
   0  -1   1 2386.36   52.89
   0  -1   1 2354.26   52.99
   0  -1   1 2307.17   52.69
   0  -1   1 2374.56   52.99
  -1   1  -1  617.34   16.20
  -1   1  -1  647.24   15.40
  -1   1  -1  667.63   15.90
  -1   1  -1  666.83   15.90
  -1   1  -1  644.54   15.60
   1  -1   1  620.94   15.50
   1  -1   1  650.23   15.70
   1  -1   1  658.53   15.70
   1  -1   1  651.13   16.40
   1  -1   1  645.24   15.30
   1  -1   1  642.44   15.70
   1  -1   1  645.04   15.40
  -2   1  -1 2345.47   53.59
  -2   1  -1 2282.47   52.69
  -2   1  -1 2291.67   52.59
  -2   1  -1 2339.27   52.49
  -2   1  -1 2374.36   51.89
  -2   1  -1 2365.36   52.79
  -2   1  -1 2244.28   52.29
  -2   1  -1 2257.37   52.49
   2  -1   1 2291.67   51.39
   2  -1   1 2290.07   52.39
   2  -1   1 2332.07   52.69
   2  -1   1 2335.97   52.59
   2  -1   1 2342.27   53.29
   2  -1   1 2274.27   52.29
   2  -1   1 2366.76   52.49
   2  -1   1 2299.47   52.49
  -3   1  -1  171.68    6.10
  -3   1  -1  162.98    6.30
  -3   1  -1  178.98    5.60
  -3   1  -1  169.18    6.90
  -3   1  -1  161.58    6.10
  -3   1  -1  153.28    6.00
  -3   1  -1  178.38    6.50
  -3   1  -1  164.98    6.30
   3  -1   1  164.58    5.90
   3  -1   1  174.58    6.20
   3  -1   1  167.38    6.10
   3  -1   1  166.58    5.90
   3  -1   1  160.78    5.20
   3  -1   1  164.38    6.30
  -4   1  -1 1967.90   45.10
  -4   1  -1 1949.90   46.70
  -4   1  -1 1886.81   45.60
  -4   1  -1 1899.21   45.50
  -4   1  -1 1926.01   44.20
  -4   1  -1 1825.92   45.40
  -4   1  -1 1868.21   45.00
   4  -1   1 1858.51   45.50
   4  -1   1 1868.91   44.50
  -5   1  -1  199.28    8.10
  -5   1  -1  210.48    8.30
  -5   1  -1  201.08    8.70
  -5   1  -1  181.58    8.20
  -5   1  -1  213.68    7.80
  -5   1  -1  202.18    8.60
  -5   1  -1  208.68    9.40
   5  -1   1  202.48    8.50
   5  -1   1  199.88    7.70
   5  -1   1  200.08    7.80
  -6   1  -1  162.68    8.90
  -6   1  -1  145.99    7.80
  -6   1  -1  163.58   11.20
  -6   1  -1  147.59    7.40
  -6   1  -1  151.18    8.00
  -6   1  -1  150.68    8.10
   6  -1   1  152.18    7.90
  -7   1  -1    9.60    2.90
  -7   1  -1    6.50    2.20
  -7   1  -1   10.70    2.60
   7  -1   1   10.50    2.80
  -8   1  -1   32.10    4.90
  -8   1  -1   42.00    5.00
  -8   1  -1   46.30    6.10
  -8   0   1   55.39    6.90
  -8   0   1   63.29    5.40
  -8   0   1   46.40    5.80
  -7   0   1   23.00    3.90
  -7   0   1   21.70    3.30
  -7   0   1   33.20    5.00
   6   0  -1  140.29    7.50
   6   0  -1  131.09    7.20
  -6   0   1  145.89    7.40
  -6   0   1  153.88    7.90
  -6   0   1  136.19    6.80
  -6   0   1  145.59    8.10
   5   0  -1   18.50    2.40
   5   0  -1   17.90    2.70
   5   0  -1   15.00    2.10
  -5   0   1   15.30    2.80
  -5   0   1   19.60    2.80
  -5   0   1   18.00    2.60
  -5   0   1   18.60    2.50
  -5   0   1   16.30    2.60
  -5   0   1   17.40    2.40
   4   0  -1   44.10    3.10
   4   0  -1   44.20    2.70
   4   0  -1   41.80    2.70
  -4   0   1   41.20    2.70
  -4   0   1   43.30    2.90
  -4   0   1   47.80    5.20
  -4   0   1   37.80    2.90
  -4   0   1   46.00    3.20
  -4   0   1   45.70    3.50
   3   0  -1  475.65   12.20
   3   0  -1  478.25   13.40
   3   0  -1  460.35   12.20
   3   0  -1  460.55   12.90
   3   0  -1  475.25   12.20
   3   0  -1  458.75   12.10
  -3   0   1  450.65   12.60
  -3   0   1  467.25   13.40
  -3   0   1  446.56   12.30
  -3   0   1  477.05   12.70
  -3   0   1  474.95   12.40
  -3   0   1  460.95   13.00
   2   0  -1   80.59    3.50
   2   0  -1   81.89    2.90
   2   0  -1   79.89    3.30
   2   0  -1   81.19    2.90
   2   0  -1   82.29    2.90
   2   0  -1   82.89    2.90
  -2   0   1   84.89    3.10
  -2   0   1   78.49    3.50
  -2   0   1   76.79    3.10
  -2   0   1   80.69    3.30
  -2   0   1   84.69    3.20
  -2   0   1   84.39    3.00
   1   0  -1   26.10    1.30
   1   0  -1   23.80    1.40
   1   0  -1   23.20    1.10
   1   0  -1   26.00    1.10
   1   0  -1   26.70    1.10
   1   0  -1   26.00    1.10
  -1   0   1   24.20    1.40
  -1   0   1   25.60    1.10
  -1   0   1   26.30    1.20
  -1   0   1   25.20    1.20
  -1   0   1   24.40    1.30
  -1   0   1   26.40    1.20
   0   0  -1  101.89    2.70
   0   0  -1  101.69    2.70
   0   0  -1   96.79    2.70
   0   0  -1  100.29    3.00
   0   0  -1   98.79    2.60
   0   0   1   96.89    2.80
   0   0   1   91.59    2.70
   0   0   1   99.59    3.00
   0   0   1  100.89    2.70
  -1   0  -1 1279.97   28.50
  -1   0  -1 1265.67   28.10
  -1   0  -1 1265.77   28.60
  -1   0  -1 1254.97   28.40
  -1   0  -1 1245.88   28.40
  -1   0  -1 1214.88   28.90
  -1   0  -1 1247.78   28.70
  -1   0  -1 1277.37   28.60
   1   0   1 1252.17   28.60
   1   0   1 1276.67   28.50
   1   0   1 1221.38   28.40
   1   0   1 1258.67   28.60
   1   0   1 1240.28   28.40
   1   0   1 1248.18   28.10
   1   0   1 1298.97   28.60
  -2   0  -1 1313.47   30.60
  -2   0  -1 1298.87   30.40
  -2   0  -1 1311.97   30.70
  -2   0  -1 1323.17   30.40
  -2   0  -1 1316.47   30.40
  -2   0  -1 1308.07   31.00
  -2   0  -1 1287.97   30.60
  -2   0  -1 1338.57   30.60
   2   0   1 1362.76   30.50
   2   0   1 1302.67   30.60
   2   0   1 1319.77   30.40
   2   0   1 1335.87   30.60
   2   0   1 1299.77   30.60
   2   0   1 1281.27   30.10
   2   0   1 1289.47   30.30
  -3   0  -1 2332.17   54.69
  -3   0  -1 2390.86   55.09
  -3   0  -1 2429.26   54.69
  -3   0  -1 2311.57   54.39
  -3   0  -1 2346.87   54.49
  -3   0  -1 2383.26   54.29
  -3   0  -1 2296.57   54.59
  -3   0  -1 2359.56   54.19
   3   0   1 2392.26   54.49
   3   0   1 2369.26   54.09
   3   0   1 2433.36   54.29
   3   0   1 2445.66   54.49
   3   0   1 2401.96   54.59
   3   0   1 2325.97   53.89
  -4   0  -1  139.49    6.10
  -4   0  -1  138.19    6.20
  -4   0  -1  153.78    6.60
  -4   0  -1  140.89    5.80
  -4   0  -1  148.19    5.90
  -4   0  -1  136.19    5.80
  -4   0  -1  144.69    6.20
   4   0   1  127.89    5.30
   4   0   1  136.49    5.50
   4   0   1  132.79    6.00
  -5   0  -1   67.89    4.30
  -5   0  -1   73.69    4.50
  -5   0  -1   68.69    4.60
  -5   0  -1   67.99    4.60
  -5   0  -1   68.09    4.90
  -5   0  -1   72.29    4.70
   5   0   1   69.49    4.50
   5   0   1   71.09    4.10
   5   0   1   61.39    4.00
  -6   0  -1   36.30    4.60
  -6   0  -1   34.50    4.30
  -6   0  -1   31.10    3.90
  -6   0  -1   22.10    3.20
  -6   0  -1   43.50    4.60
   6   0   1   33.40    3.80
   6   0   1   34.20    4.00
   6   0   1   34.50    3.60
  -7   0  -1   49.99    5.20
  -7   0  -1   51.69    5.80
  -7   0  -1   50.39    5.60
   7   0   1   48.10    4.10
  -8   0  -1   45.10    5.40
  -8   0  -1   39.50    5.90
  -8   0  -1   43.40    5.90
  -8   1   1   23.80    3.70
  -8   1   1   11.40    3.00
  -8   1   1   23.80    5.00
  -7   1   1   24.10    3.40
  -7   1   1   11.20    2.60
  -7   1   1   20.90    4.20
   6  -1  -1   -0.60    1.00
  -6   1   1   -0.60    0.80
  -6   1   1    0.40    1.00
  -6   1   1    1.10    1.70
  -6   1   1   -0.70    1.20
   5  -1  -1   18.60    2.20
   5  -1  -1   18.90    2.90
   5  -1  -1   21.20    2.40
  -5   1   1   19.90    2.50
  -5   1   1   18.10    3.10
  -5   1   1   21.60    3.00
  -5   1   1   16.00    2.30
  -5   1   1   17.30    2.50
  -5   1   1   19.00    2.80
   4  -1  -1    5.00    1.10
   4  -1  -1    5.00    1.10
   4  -1  -1    3.60    1.20
  -4   1   1    3.20    1.00
  -4   1   1    5.40    1.40
  -4   1   1    5.90    1.40
  -4   1   1    7.80    1.40
  -4   1   1    3.80    1.10
  -4   1   1    1.10    0.90
  -4   1   1    6.30    1.70
   3  -1  -1  113.69    3.90
   3  -1  -1  110.89    4.00
   3  -1  -1  110.19    4.00
   3  -1  -1  111.39    4.90
   3  -1  -1  114.29    3.90
  -3   1   1  113.19    4.50
  -3   1   1  105.29    5.00
  -3   1   1  111.39    5.00
  -3   1   1  102.29    4.30
  -3   1   1  110.29    4.20
  -3   1   1  111.59    4.20
   2  -1  -1  417.06   10.00
   2  -1  -1  406.56   11.30
   2  -1  -1  415.06   10.10
   2  -1  -1  407.46    9.90
  -2   1   1  421.76   10.60
  -2   1   1  404.96   11.40
  -2   1   1  404.76   10.40
  -2   1   1  413.36   11.40
  -2   1   1  418.46   10.30
  -2   1   1  408.56   10.30
   1  -1  -1  232.18    6.60
   1  -1  -1  229.48    5.60
  -1   1   1  234.68    6.70
  -1   1   1  234.58    5.70
  -1   1   1  245.28    5.80
  -1   1   1  230.38    5.70
  -1   1   1  227.08    5.70
   0  -1  -1  260.77    6.10
   0  -1  -1  265.37    6.20
   0  -1  -1  252.77    7.00
   0   1   1  265.37    6.20
   0   1   1  252.87    7.00
   0   1   1  256.77    6.20
   0   1   1  262.27    6.20
   0   1   1  263.17    6.20
  -1  -1  -1 1451.55   32.60
  -1  -1  -1 1430.96   32.40
  -1  -1  -1 1442.26   32.00
  -1  -1  -1 1417.46   32.30
  -1  -1  -1 1420.96   32.80
   1   1   1 1425.96   32.40
   1   1   1 1422.26   32.40
   1   1   1 1404.56   32.60
   1   1   1 1428.06   32.50
   1   1   1 1492.45   32.40
   1   1   1 1424.86   32.30
  -2  -1  -1    8.20    1.20
  -2  -1  -1    8.20    1.30
  -2  -1  -1    7.10    1.00
  -2  -1  -1    9.50    1.30
  -2  -1  -1    9.60    1.30
  -2  -1  -1    8.20    1.10
  -2  -1  -1    6.20    1.00
   2   1   1   10.80    1.30
   2   1   1    7.80    1.20
   2   1   1    7.80    1.10
   2   1   1    9.20    1.20
   2   1   1    6.20    1.00
   2   1   1    5.90    0.90
   2   1   1   10.00    1.30
  -3  -1  -1   17.20    2.00
  -3  -1  -1   11.80    1.50
  -3  -1  -1   15.80    1.70
  -3  -1  -1   22.10    2.00
  -3  -1  -1   18.50    2.10
  -3  -1  -1   18.70    2.10
  -3  -1  -1   16.90    2.10
   3   1   1   21.00    2.30
   3   1   1   13.40    1.70
   3   1   1   12.60    1.60
   3   1   1   17.70    2.10
   3   1   1   14.10    1.70
   3   1   1   17.90    2.00
   3   1   1   18.20    2.10
  -4  -1  -1  312.57    9.80
  -4  -1  -1  286.07    9.80
  -4  -1  -1  290.37   10.10
  -4  -1  -1  287.77    9.90
  -4  -1  -1  313.47   10.20
  -4  -1  -1  288.37   10.00
  -4  -1  -1  301.37   10.20
   4   1   1  309.77    9.90
   4   1   1  290.67    9.70
   4   1   1  305.17    9.60
   4   1   1  313.27   10.10
   4   1   1  302.47    9.90
  -5  -1  -1  295.17   11.00
  -5  -1  -1  305.47   10.50
  -5  -1  -1  298.27   10.90
  -5  -1  -1  284.77   10.60
  -5  -1  -1  282.27   10.80
  -5  -1  -1  277.87   10.30
   5   1   1  300.87   10.60
   5   1   1  291.97   10.00
  -6  -1  -1    1.90    1.30
  -6  -1  -1    2.40    1.70
  -6  -1  -1    4.10    1.90
  -6  -1  -1    1.50    1.30
  -6  -1  -1    0.50    1.20
   6   1   1    2.30    1.30
   6   1   1    3.70    1.50
   6   1   1    1.70    1.20
  -7  -1  -1   21.50    3.90
  -7  -1  -1   21.10    3.30
  -7  -1  -1   20.50    3.60
  -7  -1  -1   20.50    3.60
   7   1   1   20.70    3.20
  -8  -1  -1  205.78   10.60
  -8  -1  -1  210.88   11.50
  -8  -1  -1  232.38   11.90
  -8   2   1   65.89    7.90
  -8   2   1   52.09    5.50
  -8   2   1   42.70    5.60
  -7   2   1   18.50    3.30
  -7   2   1   31.60    5.20
  -7   2   1   25.90    3.60
  -6   2   1   41.50    5.40
  -6   2   1   37.90    4.70
  -6   2   1   35.10    3.70
  -6   2   1   30.80    3.80
   5  -2  -1   60.79    4.60
   5  -2  -1   67.49    3.50
   5  -2  -1   69.29    3.70
  -5   2   1   58.39    4.20
  -5   2   1   61.99    4.00
  -5   2   1   61.19    4.90
  -5   2   1   65.49    4.90
  -5   2   1   70.69    4.10
  -5   2   1   71.19    4.20
  -5   2   1   62.49    4.80
   4  -2  -1    0.20    0.70
   4  -2  -1    0.70    0.50
  -4   2   1    1.10    1.10
  -4   2   1    0.20    0.50
  -4   2   1    0.80    0.90
  -4   2   1    0.80    0.70
  -4   2   1    0.50    0.60
  -4   2   1    1.30    1.10
  -4   2   1    0.50    0.60
   3  -2  -1  661.23   16.30
   3  -2  -1  648.04   16.20
   3  -2  -1  651.13   18.00
   3  -2  -1  660.93   16.10
  -3   2   1  640.24   18.20
  -3   2   1  625.74   16.90
  -3   2   1  668.33   16.70
  -3   2   1  663.93   18.20
  -3   2   1  661.53   16.70
  -3   2   1  672.33   17.80
   2  -2  -1   47.00    2.80
   2  -2  -1   46.00    2.10
   2  -2  -1   45.70    2.10
   2  -2  -1   44.80    2.00
   2  -2  -1   43.10    2.00
  -2   2   1   43.30    2.20
  -2   2   1   44.00    2.80
  -2   2   1   42.10    2.60
  -2   2   1   42.80    2.20
  -2   2   1   43.70    2.30
   1  -2  -1    1.40    0.50
   1  -2  -1    2.00    0.60
   1  -2  -1    1.80    0.80
   1  -2  -1    1.20    0.50
   1  -2  -1    1.70    0.60
  -1   2   1    1.20    0.60
  -1   2   1    1.80    0.60
  -1   2   1    2.40    0.80
  -1   2   1    1.10    0.50
  -1   2   1    2.10    0.50
  -1   2   1    1.40    0.60
   0  -2  -1  406.86   10.40
   0  -2  -1  426.06   10.60
   0  -2  -1  418.96   10.80
   0  -2  -1  428.36   10.70
   0  -2  -1  431.06   10.50
   0   2   1  417.36   10.60
   0   2   1  424.46   10.60
   0   2   1  412.66   10.50
   0   2   1  430.96   10.50
   0   2   1  427.76   10.70
   0   2   1  428.06    9.50
  -1  -2  -1 1456.95   33.80
  -1  -2  -1 1453.45   34.00
  -1  -2  -1 1454.05   33.90
  -1  -2  -1 1481.35   33.70
  -1  -2  -1 1475.15   33.80
  -1  -2  -1 1498.05   33.70
   1   2   1 1504.15   34.00
   1   2   1 1425.66   33.70
   1   2   1 1501.15   33.70
   1   2   1 1439.96   33.70
   1   2   1 1436.36   33.60
   1   2   1 1475.85   33.90
  -2  -2  -1  492.55   13.30
  -2  -2  -1  492.15   13.20
  -2  -2  -1  482.15   13.00
  -2  -2  -1  482.45   12.90
  -2  -2  -1  470.15   12.90
   2   2   1  482.85   12.90
   2   2   1  470.95   12.70
   2   2   1  489.65   12.90
   2   2   1  488.05   12.90
   2   2   1  491.75   13.20
   2   2   1  495.75   13.30
  -3  -2  -1   40.00    2.90
  -3  -2  -1   40.20    2.70
  -3  -2  -1   36.20    2.70
  -3  -2  -1   43.50    3.00
  -3  -2  -1   38.70    2.70
  -3  -2  -1   41.30    2.90
  -3  -2  -1   42.60    2.80
   3   2   1   40.00    2.80
   3   2   1   42.50    2.90
   3   2   1   39.30    2.70
   3   2   1   36.30    2.70
   3   2   1   41.90    2.90
   3   2   1   39.20    2.60
   3   2   1   40.40    2.70
  -4  -2  -1    4.50    1.40
  -4  -2  -1    3.20    1.10
  -4  -2  -1    3.70    1.30
  -4  -2  -1    5.40    1.50
  -4  -2  -1    4.50    1.40
  -4  -2  -1    3.90    1.30
   4   2   1    3.20    1.30
   4   2   1    6.30    1.40
   4   2   1    4.00    1.20
   4   2   1    2.40    0.90
   4   2   1    4.20    1.30
  -5  -2  -1  214.68    8.80
  -5  -2  -1  251.87   11.00
  -5  -2  -1  221.38    8.80
  -5  -2  -1  196.28    9.00
  -5  -2  -1  221.58    9.10
   5   2   1  204.68    8.60
   5   2   1  223.18    8.70
   5   2   1  217.68    8.40
  -6  -2  -1  718.63   21.60
  -6  -2  -1  761.42   22.70
  -6  -2  -1  725.73   22.60
  -6  -2  -1  733.43   22.20
  -6  -2  -1  708.23   21.60
   6   2   1  732.33   21.50
   6   2   1  715.53   21.00
  -7  -2  -1    0.40    1.60
  -7  -2  -1   -0.30    1.60
  -7  -2  -1    3.90    1.70
  -7  -2  -1   -0.50    1.60
   7   2   1    1.80    1.40
  -8  -2  -1   46.50    5.40
  -8  -2  -1   64.69    7.40
  -8  -2  -1   44.60    6.00
  -7   3   1    7.30    2.00
  -7   3   1   10.60    3.60
  -7   3   1    4.30    2.00
  -6   3   1    7.50    2.00
  -6   3   1    8.00    2.70
  -6   3   1    8.50    2.30
   5  -3  -1    3.00    1.10
   5  -3  -1    0.90    1.20
  -5   3   1    0.70    1.00
  -5   3   1    1.30    1.70
  -5   3   1    2.50    1.80
  -5   3   1    0.50    1.40
  -5   3   1    1.90    1.80
  -5   3   1    2.30    1.10
  -5   3   1    4.00    1.50
   4  -3  -1   16.70    1.90
   4  -3  -1   21.50    1.80
   4  -3  -1   17.20    2.60
  -4   3   1   20.00    2.40
  -4   3   1   19.40    1.70
  -4   3   1   19.30    3.00
  -4   3   1   17.70    2.40
  -4   3   1   12.90    2.50
  -4   3   1   16.60    2.20
  -4   3   1   18.80    2.80
   3  -3  -1   57.99    3.80
   3  -3  -1   51.39    2.80
   3  -3  -1   55.49    2.80
   3  -3  -1   56.29    2.90
  -3   3   1   51.69    3.70
  -3   3   1   55.09    2.30
  -3   3   1   56.19    3.90
  -3   3   1   51.79    3.10
  -3   3   1   53.99    3.80
  -3   3   1   53.09    3.20
  -3   3   1   54.89    3.00
   2  -3  -1  736.83   18.40
   2  -3  -1  725.23   19.30
   2  -3  -1  725.83   17.80
   2  -3  -1  721.73   17.80
   2  -3  -1  750.72   17.90
  -2   3   1  706.03   18.40
  -2   3   1  732.83   18.30
  -2   3   1  714.53   17.10
  -2   3   1  739.63   18.10
  -2   3   1  727.83   19.10
  -2   3   1  694.23   19.30
  -2   3   1  715.63   18.10
   1  -3  -1  184.28    6.30
   1  -3  -1  176.68    5.30
   1  -3  -1  184.18    5.70
   1  -3  -1  173.08    5.70
   1  -3  -1  185.58    5.70
  -1   3   1  183.08    5.40
  -1   3   1  173.78    5.90
  -1   3   1  188.58    5.80
  -1   3   1  180.18    5.80
  -1   3   1  186.48    6.50
  -1   3   1  178.68    6.30
  -1   3   1  179.58    5.10
   0  -3  -1   93.09    3.60
   0  -3  -1   84.29    3.50
   0  -3  -1   89.89    3.70
   0  -3  -1   84.69    3.50
   0   3   1   91.79    3.90
   0   3   1   89.39    3.60
   0   3   1   90.19    3.30
   0   3   1   89.69    2.50
   0   3   1   87.79    3.60
   0   3   1   91.59    3.80
  -1  -3  -1   21.00    1.90
  -1  -3  -1   29.00    2.10
  -1  -3  -1   25.10    1.90
  -1  -3  -1   26.30    1.90
  -1  -3  -1   26.50    2.00
   1   3   1   23.40    1.80
   1   3   1   22.70    1.90
   1   3   1   27.30    1.90
   1   3   1   27.80    2.10
   1   3   1   25.50    2.10
   1   3   1   25.50    1.90
  -2  -3  -1  542.05   14.90
  -2  -3  -1  539.65   14.90
  -2  -3  -1  520.25   14.50
  -2  -3  -1  528.25   14.60
  -2  -3  -1  533.25   14.60
  -2  -3  -1  536.35   15.00
   2   3   1  570.94   14.80
   2   3   1  532.45   14.60
   2   3   1  519.75   14.60
   2   3   1  536.65   15.00
   2   3   1  550.14   14.70
  -3  -3  -1 1153.68   28.30
  -3  -3  -1 1083.99   28.30
  -3  -3  -1 1065.29   27.80
  -3  -3  -1 1097.49   27.90
  -3  -3  -1 1187.98   29.30
  -3  -3  -1 1131.69   27.90
   3   3   1 1098.39   28.20
   3   3   1 1136.99   28.40
   3   3   1 1020.20   27.70
   3   3   1 1070.09   27.20
   3   3   1 1128.39   27.80
   3   3   1 1131.69   27.80
   3   3   1 1077.19   27.70
  -4  -3  -1  299.17   10.10
  -4  -3  -1  283.87   10.20
  -4  -3  -1  266.17   10.30
  -4  -3  -1  260.67    9.70
  -4  -3  -1  273.37    9.90
   4   3   1  279.27    9.40
   4   3   1  264.47    9.50
   4   3   1  268.17    9.90
   4   3   1  265.97   10.00
  -5  -3  -1   74.49    5.10
  -5  -3  -1   69.59    4.80
  -5  -3  -1   81.49    5.30
  -5  -3  -1   67.69    5.00
   5   3   1   72.79    4.90
   5   3   1   77.19    4.70
   5   3   1   73.49    4.50
  -6  -3  -1    7.00    2.00
  -6  -3  -1    2.40    1.70
  -6  -3  -1    5.30    1.80
  -6  -3  -1    5.20    2.10
   6   3   1    6.90    1.90
   6   3   1    5.20    1.80
  -7  -3  -1   77.39    5.90
  -7  -3  -1   77.79    6.30
  -7  -3  -1   55.99    6.40
  -7  -3  -1   68.79    5.60
   7   3   1   65.89    5.20
  -8  -3  -1   -0.70    1.30
  -8  -3  -1    0.50    1.80
  -8  -3  -1    1.90    2.10
  -7   4   1    8.00    2.60
  -7   4   1    7.90    2.30
  -7   4   1   14.50    4.00
  -6   4   1   27.60    4.70
  -6   4   1   27.50    3.80
  -6   4   1   20.40    3.10
  -5   4   1   78.69    4.80
  -5   4   1   88.09    6.20
  -5   4   1   73.79    5.10
  -5   4   1   82.59    6.20
  -5   4   1   96.19    6.80
   4  -4  -1   11.60    1.80
   4  -4  -1    9.50    1.60
   4  -4  -1   10.40    2.40
  -4   4   1   12.50    2.60
  -4   4   1    8.60    1.90
  -4   4   1   11.60    2.00
  -4   4   1    6.10    2.00
  -4   4   1    8.10    2.20
  -4   4   1   12.40    2.20
   3  -4  -1   41.00    2.70
   3  -4  -1   39.90    3.40
   3  -4  -1   38.50    2.80
  -3   4   1   40.00    2.90
  -3   4   1   44.70    3.00
  -3   4   1   41.50    3.50
  -3   4   1   39.80    3.00
  -3   4   1   42.20    3.60
   2  -4  -1   29.80    2.20
   2  -4  -1   33.00    2.70
  -2   4   1   33.50    2.40
  -2   4   1   24.50    2.80
  -2   4   1   30.80    2.30
  -2   4   1   34.40    2.90
  -2   4   1   35.60    2.50
  -2   4   1   29.20    2.40
   1  -4  -1  198.98    6.80
   1  -4  -1  212.28    7.70
   1  -4  -1  205.58    7.00
   1  -4  -1  219.28    7.00
   1  -4  -1  206.58    6.30
  -1   4   1  218.18    6.40
  -1   4   1  204.48    5.80
  -1   4   1  205.28    7.30
  -1   4   1  215.98    7.10
  -1   4   1  198.38    7.00
  -1   4   1  223.18    7.80
  -1   4   1  211.68    7.70
   0  -4  -1  536.45   14.60
   0  -4  -1  518.85   12.30
   0  -4  -1  542.55   14.10
   0  -4  -1  547.25   14.40
   0  -4  -1  501.95   14.10
   0   4   1  533.45   12.40
   0   4   1  535.35   14.90
   0   4   1  560.04   14.60
   0   4   1  501.85   14.30
   0   4   1  516.45   13.50
   0   4   1  516.65   14.70
  -1  -4  -1  321.97    9.80
  -1  -4  -1  317.17    8.00
  -1  -4  -1  310.67   10.10
  -1  -4  -1  322.97    9.80
  -1  -4  -1  304.37    9.70
  -1  -4  -1  313.37   10.10
   1   4   1  314.57    9.80
   1   4   1  311.67   10.20
   1   4   1  315.67   10.00
   1   4   1  306.97    9.40
   1   4   1  311.37    9.80
  -2  -4  -1    1.10    0.80
  -2  -4  -1    0.90    0.70
  -2  -4  -1    0.50    0.70
  -2  -4  -1    0.60    0.70
  -2  -4  -1    0.70    0.80
   2   4   1   -0.40    0.70
   2   4   1    1.20    1.00
   2   4   1    1.10    0.70
   2   4   1   -0.40    0.50
   2   4   1    0.30    0.70
   2   4   1    0.10    0.70
  -3  -4  -1    2.50    1.20
  -3  -4  -1    5.20    1.40
  -3  -4  -1    4.10    1.40
  -3  -4  -1    5.40    1.60
   3   4   1    4.20    1.50
   3   4   1    2.10    0.90
   3   4   1    3.20    1.10
   3   4   1    4.40    1.40
   3   4   1    2.40    1.00
  -4  -4  -1  117.79    6.10
  -4  -4  -1  121.79    6.50
  -4  -4  -1  114.69    6.40
  -4  -4  -1  114.49    6.20
   4   4   1  119.89    5.60
   4   4   1  121.79    6.10
   4   4   1  120.09    6.30
  -5  -4  -1    5.70    2.00
  -5  -4  -1    9.00    2.20
  -5  -4  -1    7.40    1.90
  -5  -4  -1    6.70    2.10
   5   4   1    7.40    1.90
   5   4   1    8.20    1.90
   5   4   1    5.00    1.60
  -6  -4  -1   31.30    4.50
  -6  -4  -1   28.40    3.90
  -6  -4  -1   36.00    4.80
   6   4   1   31.80    4.10
   6   4   1   28.50    3.70
  -7  -4  -1    2.10    1.70
  -7  -4  -1    4.80    2.50
  -7  -4  -1    1.90    1.50
   7   4   1    6.30    2.30
  -8  -4  -1    0.70    1.50
  -8  -4  -1    1.40    2.00
  -8  -4  -1    2.20    2.30
  -7   5   1    0.80    1.60
  -7   5   1    0.70    1.60
  -7   5   1    3.80    2.80
  -6   5   1   22.90    3.50
  -6   5   1   36.60    5.30
  -6   5   1   27.60    4.10
  -5   5   1   -0.30    1.00
  -5   5   1    0.00    1.20
  -5   5   1   -0.10    1.40
   4  -5  -1    4.00    1.70
   4  -5  -1    2.00    1.80
   4  -5  -1    4.20    1.30
  -4   5   1    3.20    1.60
  -4   5   1    0.70    1.40
  -4   5   1    3.20    1.40
  -4   5   1    2.90    1.40
  -4   5   1    3.00    1.80
   3  -5  -1    5.30    1.50
   3  -5  -1    6.30    1.40
  -3   5   1    6.00    1.60
  -3   5   1    6.40    1.60
  -3   5   1    3.60    1.30
  -3   5   1    5.20    1.70
  -3   5   1    5.00    1.70
   2  -5  -1   21.00    2.90
   2  -5  -1   19.00    2.30
  -2   5   1   19.80    2.90
  -2   5   1   13.30    2.00
  -2   5   1   15.20    2.30
  -2   5   1   16.90    2.30
  -2   5   1   16.60    2.10
  -2   5   1   14.30    2.40
   1  -5  -1   56.69    2.90
   1  -5  -1   50.39    3.80
   1  -5  -1   53.79    3.30
  -1   5   1   57.29    2.50
  -1   5   1   55.09    3.90
  -1   5   1   47.20    3.30
  -1   5   1   59.29    3.80
  -1   5   1   49.99    3.40
  -1   5   1   54.79    2.80
  -1   5   1   54.39    3.70
   0  -5  -1   27.90    2.30
   0  -5  -1   27.10    2.80
   0  -5  -1   32.80    3.00
   0  -5  -1   28.80    1.50
   0   5   1   23.70    2.60
   0   5   1   29.30    2.70
   0   5   1   29.10    1.50
   0   5   1   28.50    3.20
   0   5   1   31.60    2.20
   0   5   1   32.20    2.70
  -1  -5  -1   45.50    3.20
  -1  -5  -1   47.10    3.50
  -1  -5  -1   42.90    3.10
  -1  -5  -1   43.10    3.50
  -1  -5  -1   43.50    2.00
   1   5   1   38.30    2.80
   1   5   1   38.80    3.10
   1   5   1   43.30    3.30
   1   5   1   41.00    3.40
   1   5   1   36.80    3.20
  -2  -5  -1    6.00    1.50
  -2  -5  -1    5.70    1.60
  -2  -5  -1    6.00    1.70
  -2  -5  -1    5.20    1.00
   2   5   1    5.30    1.60
   2   5   1    6.90    1.80
   2   5   1    6.30    1.60
   2   5   1    2.70    1.00
  -3  -5  -1   92.69    5.60
  -3  -5  -1   99.09    5.50
  -3  -5  -1   88.09    5.20
  -3  -5  -1   98.39    5.80
   3   5   1   89.29    5.50
   3   5   1   86.89    5.60
   3   5   1   99.39    5.50
  -4  -5  -1   28.50    3.50
  -4  -5  -1   21.10    3.30
  -4  -5  -1   24.70    3.70
  -4  -5  -1   20.90    3.30
   4   5   1   24.40    3.20
   4   5   1   18.20    2.90
   4   5   1   21.70    2.80
  -5  -5  -1    1.80    1.60
  -5  -5  -1    2.70    1.90
  -5  -5  -1    3.00    1.70
  -5  -5  -1    4.20    1.50
   5   5   1    3.60    1.70
   5   5   1    2.70    1.30
   5   5   1    2.70    1.50
  -6  -5  -1   82.09    6.40
  -6  -5  -1   94.69    6.50
  -6  -5  -1   78.29    6.60
   6   5   1   85.79    6.00
   6   5   1   84.29    5.50
  -7  -5  -1   -0.10    1.20
  -7  -5  -1   -0.10    1.50
  -7  -5  -1   -0.50    1.90
   7   5   1   -0.60    1.30
  -8  -5  -1    4.20    2.90
  -8  -5  -1    4.60    2.70
  -8  -5  -1    0.50    1.60
  -6   6   1    4.40    2.10
  -6   6   1    9.10    3.10
  -6   6   1    9.10    2.80
  -5   6   1   24.20    3.80
  -5   6   1   16.80    3.00
  -5   6   1   30.50    5.00
  -4   6   1   23.50    3.50
  -4   6   1   19.10    2.90
  -4   6   1   22.60    3.90
   3  -6  -1   68.69    4.30
  -3   6   1   67.69    5.30
  -3   6   1   65.89    4.60
  -3   6   1   87.59    5.40
  -3   6   1   81.99    5.70
  -3   6   1   74.49    4.90
   2  -6  -1   11.50    2.50
   2  -6  -1    6.90    1.60
  -2   6   1    9.00    2.10
  -2   6   1    9.10    2.00
  -2   6   1    8.20    1.90
  -2   6   1    8.40    1.60
  -2   6   1    9.40    2.30
  -2   6   1    6.60    1.90
   1  -6  -1    0.30    0.70
   1  -6  -1   -0.50    0.60
   1  -6  -1    0.30    0.90
  -1   6   1    0.50    0.70
  -1   6   1   -0.10    0.80
  -1   6   1    0.00    1.00
  -1   6   1   -0.50    0.70
  -1   6   1   -0.50    0.60
  -1   6   1   -0.10    0.80
   0  -6  -1   15.70    2.20
   0  -6  -1   13.40    1.20
   0  -6  -1   16.00    2.50
   0  -6  -1   13.20    2.60
   0   6   1   11.20    2.30
   0   6   1    9.80    2.20
   0   6   1   14.20    2.40
   0   6   1   14.20    2.40
   0   6   1    8.30    1.70
  -1  -6  -1    0.80    0.60
  -1  -6  -1    1.40    1.00
  -1  -6  -1    2.10    1.00
   1   6   1   -0.30    0.70
   1   6   1    0.80    0.90
   1   6   1    1.30    1.00
  -2  -6  -1   59.59    3.00
  -2  -6  -1   63.89    4.80
  -2  -6  -1   55.09    4.10
   2   6   1   54.49    4.20
   2   6   1   55.39    4.50
   2   6   1   55.39    4.50
  -3  -6  -1  145.29    7.40
  -3  -6  -1  158.38    8.10
  -3  -6  -1  149.88    5.80
   3   6   1  138.39    7.60
   3   6   1  143.39    7.50
   3   6   1  186.48   11.70
  -4  -6  -1  185.98    9.50
  -4  -6  -1  206.08   13.60
  -4  -6  -1  178.48    8.80
  -4  -6  -1  196.48    9.20
   4   6   1  200.88    8.20
   4   6   1  190.38    9.00
   4   6   1  192.18    9.40
  -5  -6  -1  111.69    7.10
  -5  -6  -1  112.89    7.70
  -5  -6  -1  124.39    7.70
   5   6   1  115.69    7.10
   5   6   1  125.49    6.60
   5   6   1  128.19   10.80
  -6  -6  -1   37.50    5.50
  -6  -6  -1   41.50    5.50
  -6  -6  -1   39.10    5.00
   6   6   1   31.90    4.60
   6   6   1   38.90    4.40
  -7  -6  -1    1.50    1.90
  -7  -6  -1   -1.30    1.00
  -7  -6  -1    2.00    2.60
   7   6   1   -0.20    1.60
  -6   7   1   27.80    4.30
  -5   7   1    1.70    1.70
  -5   7   1    5.00    2.20
  -5   7   1    0.90    2.00
  -4   7   1    3.60    2.00
  -4   7   1    3.60    1.60
   3  -7  -1    5.70    1.70
  -3   7   1    8.70    2.30
  -3   7   1    5.30    1.90
   2  -7  -1   87.99    5.20
  -2   7   1   84.29    5.80
  -2   7   1   96.69    6.30
  -2   7   1   95.79    5.80
   1  -7  -1   11.70    2.30
   1  -7  -1    9.50    1.80
   1  -7  -1    8.10    2.40
  -1   7   1   11.70    2.40
  -1   7   1    8.90    2.30
  -1   7   1    8.80    1.50
  -1   7   1    5.80    1.80
  -1   7   1    6.90    2.20
   0  -7  -1    5.40    1.60
   0  -7  -1    7.70    1.00
   0  -7  -1    3.70    1.70
   0  -7  -1    8.20    2.00
   0   7   1    4.60    1.70
   0   7   1    6.70    2.10
   0   7   1   12.20    2.70
   0   7   1    5.50    1.80
  -1  -7  -1   46.80    2.50
  -1  -7  -1   49.70    5.30
  -1  -7  -1   46.60    3.90
   1   7   1   55.19    4.90
   1   7   1   46.50    5.10
   1   7   1   45.30    4.90
  -2  -7  -1    7.40    2.20
  -2  -7  -1    4.60    1.10
  -2  -7  -1    4.40    1.60
   2   7   1    4.70    2.30
   2   7   1    3.90    1.70
   2   7   1    4.90    1.80
  -3  -7  -1  201.88    9.90
  -3  -7  -1  185.38    9.00
  -3  -7  -1  186.18    7.00
   3   7   1  189.38    9.70
   3   7   1  174.58    8.90
  -4  -7  -1   10.00    2.70
  -4  -7  -1    7.00    1.70
  -4  -7  -1    7.60    2.20
   4   7   1   10.50    2.30
   4   7   1    6.10    2.10
   4   7   1   10.30    2.90
  -5  -7  -1   30.80    4.50
  -5  -7  -1   21.00    4.00
  -5  -7  -1   35.70    5.10
   5   7   1   25.50    3.50
   5   7   1   29.90    4.70
  -6  -7  -1    4.60    2.30
  -6  -7  -1    9.60    3.10
  -6  -7  -1    6.10    2.90
   6   7   1    9.60    2.80
  -7  -7  -1    1.90    2.30
  -7  -7  -1    5.60    3.10
  -7  -7  -1    2.10    1.90
   7   7   1    4.20    2.30
  -5   8   1   32.30    5.00
  -5   8   1   29.10    5.30
  -5   8   1   29.20    4.50
  -4   8   1    6.20    2.60
  -4   8   1    9.50    2.70
  -3   8   1   90.69    6.60
  -3   8   1   83.89    6.20
   2  -8  -1    2.00    1.30
  -2   8   1    0.80    1.30
  -2   8   1   -0.30    1.10
   1  -8  -1   48.70    5.00
  -1   8   1   56.99    5.20
  -1   8   1   55.89    5.70
  -1   8   1   56.39    5.60
   0  -8  -1    7.80    2.20
   0   8   1   12.60    2.90
   0   8   1   13.60    2.90
   0   8   1   13.00    2.80
  -1  -8  -1   -0.30    0.70
   1   8   1    0.70    1.10
   1   8   1   -0.20    1.30
   1   8   1   -0.70    1.10
  -2  -8  -1   49.50    8.00
  -2  -8  -1   31.60    4.20
   2   8   1   35.50    4.90
   2   8   1   27.10    4.00
  -3  -8  -1    4.50    1.80
  -3  -8  -1    7.90    2.20
  -3  -8  -1    5.70    2.40
   3   8   1    2.70    2.00
   3   8   1    5.50    2.30
  -4  -8  -1    3.70    2.80
  -4  -8  -1    4.90    2.00
   4   8   1    4.50    1.90
   4   8   1    8.20    2.60
  -5  -8  -1   15.50    3.30
   5   8   1   17.50    4.00
  -6  -8  -1   30.50    5.00
   6   8   1   43.80    6.00
  -4   9   1   19.60    3.70
  -4   9   1   19.40    4.50
  -3   9   1   32.20    5.20
  -3   9   1   25.20    4.30
  -2   9   1  117.89    8.20
  -2   9   1  126.89    8.00
   1  -9  -1   17.90    3.30
  -1   9   1   14.00    3.30
  -1   9   1   16.50    3.90
   0  -9  -1    6.50    2.10
   0   9   1    3.00    1.90
   0   9   1    2.60    2.00
   0   9   1    4.70    2.20
  -1  -9  -1   15.50    3.30
   1   9   1    8.10    3.00
   1   9   1    7.80    2.50
   1   9   1   14.10    3.00
  -2  -9  -1   41.20    5.10
   2   9   1   44.40    5.80
   2   9   1   45.70    6.40
  -3  -9  -1  104.29    7.40
   3   9   1  106.99    8.70
   3   9   1  114.89    8.10
  -4  -9  -1    8.20    2.70
   4   9   1    6.90    2.90
  -5  -9  -1    6.90    2.70
   5   9   1   12.60    3.60
  -2  10   1    6.10    2.70
  -2  10   1   14.90    4.10
  -1  10   1   22.90    4.70
  -1  10   1   19.80    4.10
   0 -10  -1   81.69    6.60
   0  10   1   87.49    7.10
   0  10   1   81.59    7.60
  -1 -10  -1    9.90    2.90
   1  10   1    8.20    3.20
   1  10   1    5.50    2.40
  -2 -10  -1    9.20    2.80
   2  10   1    6.10    3.40
   2  10   1   11.40    3.50
  -3 -10  -1   10.00    3.00
   3  10   1   15.10    4.00
  -4 -10  -1   19.50    4.40
   4  10   1   19.90    4.60
   3   9  -2    1.60    2.30
  -3  -9   2    0.10    1.50
   2   9  -2    2.50    2.40
  -2  -9   2    1.60    2.00
   1   9  -2   12.90    3.70
  -1  -9   2   10.00    3.20
   0   9  -2   10.50    3.10
   0  -9   2   11.60    3.10
  -1   9  -2    2.10    1.80
   1  -9   2    2.80    2.00
  -2   9  -2   16.10    4.10
  -2   9  -2   16.90    4.10
   2  -9   2   13.60    3.50
  -3   9  -2   10.10    3.50
  -3   9  -2    8.10    3.00
   3  -9   2   15.80    3.80
   4   8  -2   42.20    5.80
  -4  -8   2   32.00    5.70
  -4  -8   2   30.10    5.00
  -4  -8   2   39.20    5.20
   3   8  -2   17.50    4.00
  -3  -8   2   19.70    3.90
  -3  -8   2   20.90    3.80
  -3  -8   2   19.00    4.20
   2   8  -2   -0.60    1.40
  -2  -8   2    0.30    1.30
  -2  -8   2    0.90    1.60
  -2  -8   2    0.10    1.70
   1   8  -2    0.80    1.40
  -1  -8   2   -0.40    1.20
  -1  -8   2   -0.40    1.10
  -1  -8   2   -0.10    1.50
   0   8  -2    1.70    2.20
   0   8  -2    0.70    1.40
   0  -8   2    3.70    1.70
   0  -8   2    2.20    1.60
  -1   8  -2  116.39    7.90
  -1   8  -2  130.19    8.70
  -1   8  -2  123.89    6.70
   1  -8   2  127.09    6.80
   1  -8   2  123.29    7.90
  -2   8  -2   38.40    4.50
  -2   8  -2   31.10    4.70
  -2   8  -2   38.30    5.50
   2  -8   2   45.00    5.50
   2  -8   2   33.40    4.10
  -3   8  -2   18.80    3.90
  -3   8  -2    7.30    2.90
   3  -8   2   14.20    3.30
   3  -8   2   10.00    2.30
  -4   8  -2   13.40    3.40
  -4   8  -2   13.20    3.20
  -4   8  -2    9.80    3.50
   4  -8   2   16.20    4.80
  -5   8  -2   10.70    4.10
  -5   8  -2    6.90    3.20
  -5   8  -2   11.50    3.30
  -5  -7   2    6.30    2.60
  -5  -7   2    4.90    2.80
  -5  -7   2    5.50    2.40
   4   7  -2    2.50    2.00
  -4  -7   2    3.10    2.00
  -4  -7   2    5.40    2.20
  -4  -7   2    3.60    2.40
   3   7  -2   42.20    5.20
  -3  -7   2   46.40    5.10
  -3  -7   2   45.30    5.30
  -3  -7   2   48.20    6.40
   2   7  -2   52.49    5.80
  -2  -7   2   36.10    4.30
  -2  -7   2   42.40    5.80
  -2  -7   2   39.50    4.70
   1   7  -2   12.10    3.00
   1   7  -2   16.30    3.10
   1   7  -2   15.80    2.20
  -1  -7   2   16.30    3.80
  -1  -7   2   13.80    2.80
  -1  -7   2   12.80    2.60
   0   7  -2    9.50    2.70
   0   7  -2    6.60    2.40
   0   7  -2    9.10    1.80
   0  -7   2    4.50    1.70
   0  -7   2    7.00    2.10
   0  -7   2    3.90    2.10
  -1   7  -2    3.60    1.40
  -1   7  -2    1.10    1.50
  -1   7  -2    1.10    1.60
   1  -7   2    2.60    1.20
   1  -7   2    1.90    1.30
   1  -7   2    1.50    1.70
  -2   7  -2    9.90    2.70
  -2   7  -2    8.20    2.20
  -2   7  -2    8.40    2.10
   2  -7   2    5.60    1.60
   2  -7   2   11.40    2.40
  -3   7  -2    1.60    1.80
  -3   7  -2    2.90    1.70
  -3   7  -2    0.60    1.40
   3  -7   2    1.10    1.30
   3  -7   2    0.30    0.90
  -4   7  -2    0.50    1.80
  -4   7  -2   -0.20    1.80
  -4   7  -2    0.60    1.60
   4  -7   2   -0.60    1.00
  -5   7  -2    1.90    2.20
  -5   7  -2    4.50    2.70
  -5   7  -2    2.40    2.10
  -6   7  -2   -1.00    1.70
  -6   7  -2    9.20    3.00
  -6   7  -2    3.10    2.70
  -6  -6   2   20.70    4.20
  -6  -6   2   13.20    3.30
  -6  -6   2   20.30    4.50
  -6  -6   2   19.70    4.30
   5   6  -2   40.90    5.30
  -5  -6   2   48.10    5.70
  -5  -6   2   44.00    5.50
  -5  -6   2   35.00    5.40
  -5  -6   2   40.40    5.10
   4   6  -2   15.40    3.10
  -4  -6   2   26.60    3.90
  -4  -6   2   18.40    3.40
  -4  -6   2   20.70    3.60
  -4  -6   2   10.90    3.20
   3   6  -2   43.30    4.90
  -3  -6   2   29.00    4.00
  -3  -6   2   39.50    4.50
  -3  -6   2   36.00    5.00
   2   6  -2   14.20    3.10
   2   6  -2   10.60    2.40
   2   6  -2   14.00    1.70
   2   6  -2   14.00    1.70
  -2  -6   2   16.70    3.50
  -2  -6   2    7.30    2.00
  -2  -6   2   18.40    3.60
  -2  -6   2    9.10    2.30
   1   6  -2   37.40    4.50
   1   6  -2   29.70    2.30
   1   6  -2   25.00    3.60
  -1  -6   2   35.10    4.80
  -1  -6   2   35.40    4.40
  -1  -6   2   32.00    3.70
  -1  -6   2   36.20    4.80
   0   6  -2   43.30    3.00
   0   6  -2   39.20    4.60
   0   6  -2   45.70    4.90
   0  -6   2   43.00    5.40
   0  -6   2   42.20    4.40
   0  -6   2   39.90    4.10
  -1   6  -2  117.09    7.30
  -1   6  -2  107.79    6.40
  -1   6  -2  102.59    5.20
  -1   6  -2  111.59    6.80
   1  -6   2  106.99    5.00
   1  -6   2  110.19    7.40
   1  -6   2  102.39    5.70
   1  -6   2  106.39    6.30
  -2   6  -2    2.10    1.90
  -2   6  -2    1.60    1.10
  -2   6  -2    1.20    1.20
  -2   6  -2    1.50    1.40
   2  -6   2    1.50    0.80
   2  -6   2    2.70    1.30
   2  -6   2    1.00    1.00
   2  -6   2    3.70    1.90
  -3   6  -2  138.29    7.70
  -3   6  -2  133.69    7.20
  -3   6  -2  137.59    8.00
   3  -6   2  141.59    7.40
   3  -6   2  138.79    6.90
   3  -6   2  139.69    7.20
   3  -6   2  141.79    9.40
  -4   6  -2    7.00    2.40
  -4   6  -2    7.60    2.40
  -4   6  -2    7.60    2.30
  -4   6  -2    4.50    2.00
   4  -6   2    6.00    2.00
  -5   6  -2   48.00    5.90
  -5   6  -2   48.80    5.50
  -5   6  -2   62.29    6.20
   5  -6   2   48.60    5.50
  -6   6  -2    8.20    2.60
  -6   6  -2   10.80    3.20
  -6   6  -2   14.30    3.70
  -6  -5   2   42.30    5.70
  -6  -5   2   40.10    5.20
  -6  -5   2   38.40    5.50
   5   5  -2    4.90    2.00
  -5  -5   2    4.30    1.80
  -5  -5   2    5.60    2.30
  -5  -5   2    3.80    2.10
   4   5  -2   90.49    5.90
  -4  -5   2   83.09    6.30
  -4  -5   2   89.99    5.70
  -4  -5   2   93.99    6.10
  -4  -5   2   81.29    5.70
   3   5  -2   67.29    3.10
   3   5  -2   71.39    5.20
   3   5  -2   66.39    4.90
  -3  -5   2   75.59    5.10
  -3  -5   2   73.49    5.60
  -3  -5   2   72.19    5.60
  -3  -5   2   61.39    4.60
  -3  -5   2   70.89    4.70
   2   5  -2  513.95   13.20
   2   5  -2  523.25   16.50
   2   5  -2  496.95   16.70
  -2  -5   2  497.95   16.30
  -2  -5   2  515.85   16.00
  -2  -5   2  562.84   17.50
  -2  -5   2  508.65   17.40
   1   5  -2    7.60    1.60
   1   5  -2    6.40    1.10
   1   5  -2    6.50    1.90
   1   5  -2    8.80    2.00
  -1  -5   2    6.00    1.60
  -1  -5   2    7.10    2.10
  -1  -5   2    2.70    1.30
  -1  -5   2    8.20    1.80
   0   5  -2   75.09    4.90
   0   5  -2   75.19    3.60
   0   5  -2   74.69    5.30
   0   5  -2   81.69    5.30
   0   5  -2   73.89    4.10
   0  -5   2   80.39    5.20
   0  -5   2   82.39    5.60
   0  -5   2   85.29    4.80
   0  -5   2   74.49    4.80
  -1   5  -2   69.79    4.90
  -1   5  -2   77.69    5.50
  -1   5  -2   72.59    4.80
  -1   5  -2   76.29    4.00
   1  -5   2   73.69    5.00
   1  -5   2   75.49    4.80
   1  -5   2   70.89    5.40
   1  -5   2   74.29    4.50
  -2   5  -2  119.39    5.70
  -2   5  -2  112.79    6.30
  -2   5  -2  124.09    6.70
  -2   5  -2  118.19    7.10
   2  -5   2  121.49    5.90
   2  -5   2  111.89    7.30
   2  -5   2  114.09    6.00
   2  -5   2  118.59    5.60
  -3   5  -2  256.57   10.60
  -3   5  -2  225.48    9.90
  -3   5  -2  247.98   11.40
  -3   5  -2  233.88    9.50
   3  -5   2  236.18    9.30
   3  -5   2  237.58    9.40
   3  -5   2  250.77    9.90
   3  -5   2  239.28   11.30
  -4   5  -2   13.00    2.80
  -4   5  -2   11.10    2.30
  -4   5  -2   12.50    2.70
  -4   5  -2   14.30    3.00
   4  -5   2   12.30    2.40
   4  -5   2   15.30    2.70
   4  -5   2   16.50    2.80
   4  -5   2   12.80    3.20
  -5   5  -2    0.90    1.40
  -5   5  -2    0.40    1.30
  -5   5  -2   -0.70    1.30
   5  -5   2    1.90    1.40
  -6   5  -2    8.70    2.60
  -6   5  -2   10.30    3.10
  -6   5  -2    8.60    2.80
   6  -5   2    6.80    2.80
  -7   5  -2    6.40    2.80
  -7   5  -2    5.10    2.70
  -7   5  -2   10.70    2.90
  -7  -4   2   22.20    4.00
  -7  -4   2   16.80    3.90
  -7  -4   2   27.30    4.90
  -6  -4   2    7.10    2.70
  -6  -4   2    5.80    2.20
  -6  -4   2    3.30    1.70
   5   4  -2  267.37   10.70
  -5  -4   2  269.87   11.90
  -5  -4   2  274.67   11.30
  -5  -4   2  250.87   10.90
   4   4  -2   72.29    3.70
   4   4  -2   71.19    4.90
  -4  -4   2   84.99    6.70
  -4  -4   2   75.89    5.20
  -4  -4   2   81.09    5.70
  -4  -4   2   80.79    5.20
   3   4  -2  204.08    6.40
   3   4  -2  202.78    8.50
  -3  -4   2  218.78    8.80
  -3  -4   2  209.78    8.30
  -3  -4   2  219.68    8.90
  -3  -4   2  210.38    9.20
  -3  -4   2  208.78    9.30
   2   4  -2    2.00    1.20
   2   4  -2    0.40    0.40
   2   4  -2   -0.10    0.70
   2   4  -2    0.10    0.80
  -2  -4   2    1.10    1.10
  -2  -4   2    1.40    0.90
  -2  -4   2    1.60    1.00
  -2  -4   2    0.30    0.70
  -2  -4   2    0.50    0.90
  -2  -4   2    1.60    1.20
   1   4  -2  137.59    5.40
   1   4  -2  137.59    4.30
   1   4  -2  139.89    6.60
   1   4  -2  127.79    6.20
  -1  -4   2  147.59    6.60
  -1  -4   2  148.39    6.40
  -1  -4   2  138.19    6.80
  -1  -4   2  147.79    6.30
  -1  -4   2  141.09    6.70
   0   4  -2  163.18    7.30
   0   4  -2  157.78    7.10
   0   4  -2  164.78    5.90
   0   4  -2  174.38    6.50
   0   4  -2  155.98    6.80
   0   4  -2  155.48    5.20
   0  -4   2  159.58    6.70
   0  -4   2  161.98    6.70
   0  -4   2  163.18    7.70
   0  -4   2  162.08    7.20
  -1   4  -2   43.60    2.60
  -1   4  -2   42.20    3.30
  -1   4  -2   40.50    3.40
  -1   4  -2   41.10    3.10
  -1   4  -2   47.80    3.80
   1  -4   2   39.40    3.00
   1  -4   2   45.10    3.30
   1  -4   2   39.00    3.30
   1  -4   2   42.10    3.80
  -2   4  -2  160.68    7.40
  -2   4  -2  159.78    6.50
  -2   4  -2  158.78    7.10
  -2   4  -2  176.68    8.30
   2  -4   2  168.88    8.50
   2  -4   2  162.38    6.40
   2  -4   2  168.68    7.30
   2  -4   2  161.68    7.00
   2  -4   2  163.38    6.80
  -3   4  -2  148.19    7.30
  -3   4  -2  142.69    7.80
  -3   4  -2  130.59    6.70
  -3   4  -2  141.89    6.60
  -3   4  -2  137.79    6.20
   3  -4   2  146.89    6.50
   3  -4   2  145.09    6.70
   3  -4   2  149.39    8.00
   3  -4   2  140.69    4.40
   3  -4   2  139.89    6.40
  -4   4  -2  121.99    6.60
  -4   4  -2  132.69    8.10
  -4   4  -2  106.29    6.50
  -4   4  -2  112.19    6.40
  -4   4  -2  114.59    6.10
   4  -4   2  121.09    7.30
   4  -4   2  124.69    6.50
   4  -4   2  125.49    6.20
   4  -4   2  120.09    6.20
  -5   4  -2    9.60    2.40
  -5   4  -2    8.30    2.40
  -5   4  -2   13.40    2.80
  -5   4  -2    8.40    2.20
   5  -4   2    8.00    2.40
   5  -4   2    9.80    2.30
  -6   4  -2   42.80    5.10
  -6   4  -2   37.10    5.00
  -6   4  -2   41.10    5.00
   6  -4   2   43.90    4.70
  -7   4  -2    1.30    2.30
  -7   4  -2    0.50    1.60
  -7   4  -2    0.80    1.90
  -8   4  -2    5.50    2.70
  -8   4  -2    3.60    3.10
  -7  -3   2    6.40    2.20
  -7  -3   2    7.90    2.70
  -7  -3   2    0.10    2.30
  -6  -3   2   24.80    4.00
  -6  -3   2   27.20    3.80
  -6  -3   2   30.00    4.50
   5   3  -2    9.00    2.20
   5   3  -2   11.80    2.10
  -5  -3   2    9.80    2.30
  -5  -3   2   13.00    2.70
  -5  -3   2    8.80    2.30
   4   3  -2  143.29    6.70
   4   3  -2  134.79    6.40
   4   3  -2  144.19    5.50
  -4  -3   2  151.08    7.40
  -4  -3   2  133.79    6.70
  -4  -3   2  131.59    6.60
  -4  -3   2  136.09    7.10
  -4  -3   2  147.09    6.80
   3   3  -2   19.60    2.50
   3   3  -2   29.40    3.20
   3   3  -2   23.00    1.70
  -3  -3   2   19.80    2.80
  -3  -3   2   23.10    3.10
  -3  -3   2   26.50    3.10
  -3  -3   2   23.40    2.80
  -3  -3   2   29.50    3.30
   2   3  -2   59.59    3.40
   2   3  -2   64.39    3.80
   2   3  -2   61.19    2.30
  -2  -3   2   66.89    4.00
  -2  -3   2   60.59    3.70
  -2  -3   2   66.49    4.20
  -2  -3   2   59.89    3.50
  -2  -3   2   70.69    4.30
  -2  -3   2   69.89    4.00
   1   3  -2    2.90    1.10
   1   3  -2    2.90    0.90
   1   3  -2    1.90    0.40
   1   3  -2    1.50    0.80
   1   3  -2    1.60    0.40
   1   3  -2    1.20    0.80
  -1  -3   2    2.00    0.80
  -1  -3   2    1.10    0.80
  -1  -3   2    0.50    0.60
  -1  -3   2    1.50    0.80
  -1  -3   2    1.80    0.90
   0   3  -2   24.40    2.60
   0   3  -2   22.70    2.60
   0   3  -2   29.80    2.90
   0   3  -2   25.60    1.40
   0   3  -2   23.40    1.70
   0   3  -2   30.70    3.20
   0   3  -2   27.30    2.50
   0  -3   2   30.90    2.50
   0  -3   2   26.80    2.90
   0  -3   2   24.10    2.80
   0  -3   2   27.10    2.30
   0  -3   2   20.80    2.30
  -1   3  -2  595.64   16.00
  -1   3  -2  570.04   16.40
  -1   3  -2  591.34   16.90
  -1   3  -2  609.74   16.10
  -1   3  -2  535.85   15.90
  -1   3  -2  569.24   14.80
   1  -3   2  588.74   16.10
   1  -3   2  557.14   17.10
   1  -3   2  558.44   15.90
   1  -3   2  584.74   14.80
   1  -3   2  611.44   16.20
   1  -3   2  599.34   16.50
  -2   3  -2   26.80    2.90
  -2   3  -2   15.50    2.20
  -2   3  -2   19.00    2.40
  -2   3  -2   23.80    3.00
  -2   3  -2   20.40    2.50
  -2   3  -2   18.40    2.10
   2  -3   2   22.60    3.70
   2  -3   2   23.90    2.80
   2  -3   2   19.00    2.30
   2  -3   2   16.90    2.10
   2  -3   2   20.70    2.20
   2  -3   2   20.90    2.00
   2  -3   2   20.00    3.00
  -3   3  -2  190.98    7.10
  -3   3  -2  194.38    7.50
  -3   3  -2  192.88    7.70
  -3   3  -2  197.28    8.90
  -3   3  -2  174.68    7.50
  -3   3  -2  193.68    8.00
   3  -3   2  185.88    7.40
   3  -3   2  188.28    7.40
   3  -3   2  195.58    5.70
   3  -3   2  207.68    8.60
   3  -3   2  189.98    7.50
   3  -3   2  187.78    8.70
  -4   3  -2    0.70    0.80
  -4   3  -2    2.00    1.60
  -4   3  -2    0.10    0.80
  -4   3  -2    0.30    0.80
  -4   3  -2    0.00    0.90
   4  -3   2    0.90    0.40
   4  -3   2    0.20    0.70
   4  -3   2    0.60    1.00
   4  -3   2    1.70    0.90
  -5   3  -2   12.50    2.60
  -5   3  -2   11.20    3.10
  -5   3  -2    6.30    1.80
  -5   3  -2    9.60    1.70
  -5   3  -2    9.60    2.40
  -5   3  -2    6.90    1.90
   5  -3   2   11.60    2.50
   5  -3   2    7.00    1.70
  -6   3  -2    8.20    2.20
  -6   3  -2    7.30    2.20
  -6   3  -2    7.40    2.50
   6  -3   2   10.30    2.40
  -7   3  -2   29.40    4.30
  -7   3  -2   25.40    4.30
  -7   3  -2   29.40    4.60
  -8   3  -2  141.79    9.40
  -8   3  -2  112.39    8.70
  -8   3  -2  122.99    8.40
  -7  -2   2   56.39    6.50
  -7  -2   2   66.29    5.30
  -7  -2   2   52.89    6.10
   6   2  -2    1.20    1.20
  -6  -2   2   -0.90    0.80
  -6  -2   2    1.30    1.40
  -6  -2   2    1.20    1.40
  -6  -2   2    2.00    2.00
   5   2  -2   80.69    4.60
   5   2  -2   78.29    4.60
  -5  -2   2   68.59    5.00
  -5  -2   2   77.59    4.60
  -5  -2   2   74.69    4.80
  -5  -2   2   73.69    5.10
  -5  -2   2   81.59    5.40
   4   2  -2   12.10    2.00
   4   2  -2   17.10    2.10
   4   2  -2   12.60    2.00
  -4  -2   2   10.60    2.10
  -4  -2   2   14.90    2.20
  -4  -2   2   14.60    2.50
  -4  -2   2   11.80    2.20
  -4  -2   2   15.80    2.00
  -4  -2   2   10.70    2.00
   3   2  -2  129.49    4.70
   3   2  -2  141.19    5.90
   3   2  -2  132.99    5.50
   3   2  -2  133.09    5.60
  -3  -2   2  128.99    4.80
  -3  -2   2  135.89    5.70
  -3  -2   2  123.09    5.90
  -3  -2   2  128.99    5.60
  -3  -2   2  129.19    5.70
  -3  -2   2  132.49    6.00
   2   2  -2    0.60    0.60
   2   2  -2    2.40    1.20
   2   2  -2    1.30    0.50
   2   2  -2    0.90    0.60
   2   2  -2    1.50    0.80
   2   2  -2    1.50    0.70
  -2  -2   2    1.60    0.80
  -2  -2   2    1.20    0.60
  -2  -2   2    1.50    0.80
  -2  -2   2    0.70    0.60
  -2  -2   2    0.10    0.60
   1   2  -2   96.79    4.10
   1   2  -2   88.99    4.10
   1   2  -2   96.99    4.10
   1   2  -2   94.79    3.50
  -1  -2   2   88.59    4.30
  -1  -2   2   98.39    4.10
  -1  -2   2  101.39    4.40
  -1  -2   2  105.49    4.30
  -1  -2   2   93.99    3.60
  -1  -2   2   92.49    4.30
   0   2  -2    6.20    1.00
   0   2  -2    6.10    0.80
   0   2  -2    6.50    1.10
   0   2  -2    6.10    1.20
   0   2  -2    4.50    1.10
   0   2  -2    8.90    1.40
   0   2  -2    6.40    0.50
   0  -2   2    5.50    1.20
   0  -2   2    5.90    1.30
   0  -2   2    5.50    1.00
   0  -2   2    5.20    1.10
   0  -2   2    5.30    1.00
  -1   2  -2   22.30    1.50
  -1   2  -2   21.30    2.20
  -1   2  -2   23.90    2.00
  -1   2  -2   21.00    2.20
  -1   2  -2   22.10    2.20
  -1   2  -2   21.80    2.40
   1  -2   2   18.90    2.30
   1  -2   2   20.40    2.10
   1  -2   2   22.40    2.20
   1  -2   2   24.70    2.10
   1  -2   2   21.70    2.20
   1  -2   2   18.80    1.40
  -2   2  -2   15.90    2.00
  -2   2  -2   20.50    2.20
  -2   2  -2   20.70    1.70
  -2   2  -2   21.70    2.50
  -2   2  -2   16.50    2.10
  -2   2  -2   17.50    2.40
  -2   2  -2   19.70    1.80
   2  -2   2   20.50    2.20
   2  -2   2   19.90    2.00
   2  -2   2   21.40    2.30
   2  -2   2   20.20    2.30
   2  -2   2   17.70    1.80
   2  -2   2   15.40    1.80
   2  -2   2   20.00    2.70
  -3   2  -2  386.96   12.20
  -3   2  -2  370.96   12.00
  -3   2  -2  402.46   13.50
  -3   2  -2  362.76   11.70
  -3   2  -2  384.46   11.70
  -3   2  -2  380.56   11.60
  -3   2  -2  371.76   11.10
   3  -2   2  362.46   11.50
   3  -2   2  380.66   11.80
   3  -2   2  366.56   10.10
   3  -2   2  381.66   12.70
   3  -2   2  366.06   11.40
   3  -2   2  380.86   11.50
  -4   2  -2   80.09    4.80
  -4   2  -2   90.59    4.80
  -4   2  -2   84.29    4.10
  -4   2  -2   77.59    4.90
  -4   2  -2   87.69    4.80
  -4   2  -2   86.99    4.90
  -4   2  -2   83.39    5.70
   4  -2   2   79.89    5.00
   4  -2   2   85.59    4.60
   4  -2   2   86.89    3.50
   4  -2   2   72.39    4.50
  -5   2  -2   10.40    2.30
  -5   2  -2   10.00    2.20
  -5   2  -2   15.00    3.20
  -5   2  -2    8.20    1.70
  -5   2  -2    3.80    1.60
  -5   2  -2   11.30    2.20
   5  -2   2   16.20    2.70
   5  -2   2   10.90    2.10
   5  -2   2   11.40    2.10
   5  -2   2   12.60    1.60
  -6   2  -2  602.74   19.30
  -6   2  -2  599.24   19.60
  -6   2  -2  620.84   20.00
  -6   2  -2  580.04   19.00
   6  -2   2  603.94   18.20
  -7   2  -2    0.10    1.60
  -7   2  -2   -1.90    1.20
  -7   2  -2    1.00    1.30
   7  -2   2    0.50    1.20
  -8   2  -2  181.38   10.60
  -8   2  -2  180.18   10.70
  -8   2  -2  173.58    9.70
  -7  -1   2    6.30    3.00
  -7  -1   2    8.00    2.50
  -7  -1   2    5.50    2.10
   6   1  -2   38.70    4.20
  -6  -1   2   28.60    4.50
  -6  -1   2   36.20    4.00
  -6  -1   2   40.80    4.60
  -6  -1   2   53.79    5.10
   5   1  -2   17.60    2.30
   5   1  -2   14.80    2.40
   5   1  -2   17.90    2.50
  -5  -1   2   17.90    2.60
  -5  -1   2   18.30    2.70
  -5  -1   2   16.70    2.70
  -5  -1   2   12.50    2.70
  -5  -1   2   17.20    2.70
  -5  -1   2   17.50    2.60
   4   1  -2   27.50    2.20
   4   1  -2   27.70    2.30
   4   1  -2   27.10    2.40
  -4  -1   2   24.20    2.60
  -4  -1   2   20.70    2.50
  -4  -1   2   19.00    2.40
  -4  -1   2   26.70    3.00
  -4  -1   2   28.50    3.40
  -4  -1   2   28.60    2.50
   3   1  -2   21.60    2.10
   3   1  -2   23.10    2.60
   3   1  -2   20.80    1.80
   3   1  -2   23.40    1.90
   3   1  -2   23.40    1.80
  -3  -1   2   19.20    2.00
  -3  -1   2   22.40    2.40
  -3  -1   2   19.30    2.20
  -3  -1   2   23.20    2.60
  -3  -1   2   20.80    2.20
  -3  -1   2   23.50    2.00
   2   1  -2   80.69    3.60
   2   1  -2   77.89    3.30
   2   1  -2   77.19    3.00
   2   1  -2   82.99    3.40
   2   1  -2   76.29    3.30
   2   1  -2   72.79    3.20
  -2  -1   2   84.69    3.70
  -2  -1   2   74.49    3.60
  -2  -1   2   79.69    3.60
  -2  -1   2   70.59    3.30
  -2  -1   2   80.59    3.50
  -2  -1   2   79.99    3.00
   1   1  -2    3.60    0.70
   1   1  -2    2.00    0.60
   1   1  -2    3.60    0.40
   1   1  -2    2.90    0.80
   1   1  -2    2.20    0.70
   1   1  -2    3.70    0.80
  -1  -1   2    3.00    0.80
  -1  -1   2    2.60    0.70
  -1  -1   2    3.70    1.00
  -1  -1   2    2.90    0.70
  -1  -1   2    2.60    0.70
  -1  -1   2    4.40    0.90
  -1  -1   2    3.20    0.40
   0   1  -2  200.58    6.30
   0   1  -2  196.58    4.80
   0   1  -2  201.28    5.90
   0   1  -2  199.78    5.90
   0   1  -2  200.78    6.20
   0  -1   2  195.38    6.40
   0  -1   2  206.88    6.20
   0  -1   2  193.58    6.40
   0  -1   2  197.28    4.70
   0  -1   2  201.88    6.00
   0  -1   2  195.08    4.80
   0  -1   2  197.48    5.90
  -1   1  -2 1701.13   38.90
  -1   1  -2 1662.43   38.10
  -1   1  -2 1735.43   39.10
  -1   1  -2 1719.83   39.40
  -1   1  -2 1665.83   39.60
  -1   1  -2 1691.13   38.90
  -1   1  -2 1686.03   37.40
   1  -1   2 1702.23   38.90
   1  -1   2 1707.43   39.10
   1  -1   2 1696.23   39.30
   1  -1   2 1664.53   38.00
   1  -1   2 1669.33   38.80
   1  -1   2 1665.93   39.90
  -2   1  -2  181.88    6.60
  -2   1  -2  185.18    6.00
  -2   1  -2  178.08    6.20
  -2   1  -2  177.68    5.50
  -2   1  -2  185.78    7.10
  -2   1  -2  187.58    6.20
  -2   1  -2  170.98    6.20
  -2   1  -2  179.18    6.40
   2  -1   2  183.18    6.10
   2  -1   2  177.58    5.90
   2  -1   2  167.18    6.10
   2  -1   2  184.18    6.40
   2  -1   2  177.38    5.50
   2  -1   2  185.88    7.00
   2  -1   2  176.58    6.10
   2  -1   2  183.98    6.20
  -3   1  -2  269.87    9.00
  -3   1  -2  284.37    8.80
  -3   1  -2  291.67    9.20
  -3   1  -2  292.47    9.60
  -3   1  -2  292.37    9.20
  -3   1  -2  281.97    9.40
  -3   1  -2  284.67    8.90
  -3   1  -2  285.07   10.30
   3  -1   2  284.07    8.30
   3  -1   2  282.27    9.10
   3  -1   2  284.67    9.30
   3  -1   2  270.27    9.10
   3  -1   2  282.27    9.00
   3  -1   2  293.87    9.10
   3  -1   2  281.37    9.80
   3  -1   2  280.57    8.60
  -4   1  -2  527.85   14.80
  -4   1  -2  506.85   15.10
  -4   1  -2  524.55   16.80
  -4   1  -2  511.85   15.00
  -4   1  -2  500.15   15.00
  -4   1  -2  490.85   15.40
  -4   1  -2  497.55   15.30
   4  -1   2  542.95   15.70
   4  -1   2  538.15   15.00
   4  -1   2  512.35   13.80
   4  -1   2  538.55   15.40
   4  -1   2  523.55   15.60
  -5   1  -2    6.20    2.70
  -5   1  -2   10.10    2.10
  -5   1  -2    9.50    2.10
  -5   1  -2    9.50    2.70
  -5   1  -2   12.10    2.20
  -5   1  -2   12.80    2.30
  -5   1  -2   11.50    2.30
   5  -1   2   11.10    1.70
   5  -1   2    8.20    1.90
   5  -1   2   12.30    2.10
   5  -1   2    9.50    2.00
  -6   1  -2  123.89    7.00
  -6   1  -2  146.99    8.80
  -6   1  -2  123.09    7.30
  -6   1  -2  124.59    7.00
  -6   1  -2  121.29    7.10
   6  -1   2  128.99    6.50
   6  -1   2  142.89    7.50
  -7   1  -2  109.29    7.30
  -7   1  -2  108.59    7.40
  -7   1  -2  125.59    7.30
  -8   1  -2   12.00    2.90
  -8   1  -2   11.30    3.40
  -8   1  -2   16.90    3.80
  -7   0   2    6.40    2.90
  -7   0   2    8.20    2.50
  -7   0   2    7.50    2.10
   6   0  -2    2.40    1.50
  -6   0   2    5.10    2.40
  -6   0   2    1.30    1.10
  -6   0   2    2.30    1.60
  -6   0   2    0.40    1.10
   5   0  -2   98.49    5.50
   5   0  -2   89.69    4.30
  -5   0   2   84.69    5.10
  -5   0   2   96.99    4.90
  -5   0   2   88.49    5.30
  -5   0   2   87.79    5.80
  -5   0   2   92.19    4.80
  -5   0   2   97.79    5.30
   4   0  -2   33.90    2.20
   4   0  -2   35.10    2.30
   4   0  -2   35.20    2.80
  -4   0   2   39.40    2.80
  -4   0   2   38.80    3.40
  -4   0   2   41.30    3.10
  -4   0   2   37.00    2.90
  -4   0   2   31.30    2.40
  -4   0   2   40.80    2.70
   3   0  -2   56.89    3.50
   3   0  -2   63.29    2.80
   3   0  -2   60.59    2.70
   3   0  -2   56.99    3.30
   3   0  -2   62.69    2.60
  -3   0   2   58.79    3.20
  -3   0   2   62.19    3.40
  -3   0   2   56.99    3.00
  -3   0   2   60.49    3.70
  -3   0   2   63.59    3.00
   2   0  -2  105.39    3.20
   2   0  -2  101.29    3.10
   2   0  -2  104.29    3.40
   2   0  -2   97.59    3.80
   2   0  -2   99.09    4.10
  -2   0   2   99.29    3.70
  -2   0   2  107.49    4.30
  -2   0   2  101.19    3.80
  -2   0   2  103.99    3.90
  -2   0   2  105.19    3.60
  -2   0   2  104.89    3.60
   1   0  -2   80.19    2.50
   1   0  -2   78.99    2.30
   1   0  -2   80.39    2.40
  -1   0   2   82.29    2.70
  -1   0   2   84.89    2.70
  -1   0   2   84.89    2.80
  -1   0   2   77.49    3.00
  -1   0   2   76.89    2.80
  -1   0   2   76.09    2.70
   0   0  -2  719.03   16.90
   0   0  -2  749.13   16.80
   0   0  -2  730.83   16.80
   0   0  -2  726.43   17.60
   0   0  -2  723.23   16.80
   0   0   2  724.53   16.90
   0   0   2  740.03   17.80
   0   0   2  736.93   17.00
   0   0   2  681.93   17.10
   0   0   2  744.83   16.90
  -1   0  -2   -0.60    0.30
  -1   0  -2    0.30    0.40
  -1   0  -2    0.10    0.40
  -1   0  -2   -0.40    0.30
  -1   0  -2   -0.50    0.40
  -1   0  -2   -0.50    0.40
  -1   0  -2   -1.00    0.30
  -1   0  -2   -0.60    0.50
   1   0   2   -0.70    0.30
   1   0   2   -0.30    0.30
   1   0   2    0.30    0.40
   1   0   2   -0.40    0.50
   1   0   2    1.30    0.70
   1   0   2    0.00    0.40
   1   0   2   -1.00    0.40
   1   0   2   -0.80    0.30
  -2   0  -2  395.86   10.30
  -2   0  -2  390.06   10.80
  -2   0  -2  386.56   10.80
  -2   0  -2  391.26   11.00
  -2   0  -2  401.66   11.20
  -2   0  -2  394.06   11.40
  -2   0  -2  400.56   10.90
  -2   0  -2  410.66   11.80
   2   0   2  410.46   11.10
   2   0   2  396.66   11.10
   2   0   2  403.36   11.00
   2   0   2  391.26   10.70
   2   0   2  402.26   10.80
   2   0   2  422.06   11.00
   2   0   2  389.86   10.30
   2   0   2  413.56   11.60
  -3   0  -2  659.53   17.40
  -3   0  -2  656.43   17.00
  -3   0  -2  660.33   18.40
  -3   0  -2  679.53   17.30
  -3   0  -2  664.83   17.60
  -3   0  -2  648.64   17.50
  -3   0  -2  642.44   17.40
  -3   0  -2  653.53   17.70
   3   0   2  641.54   17.60
   3   0   2  660.63   16.90
   3   0   2  652.53   17.10
   3   0   2  640.74   16.90
   3   0   2  659.23   17.30
   3   0   2  657.53   17.30
   3   0   2  669.23   17.30
   3   0   2  684.03   17.60
  -4   0  -2    1.20    0.90
  -4   0  -2    0.80    0.70
  -4   0  -2    2.90    1.40
  -4   0  -2    1.30    1.00
  -4   0  -2    0.50    0.80
  -4   0  -2    0.60    0.80
  -4   0  -2    1.80    0.90
   4   0   2    0.10    0.50
   4   0   2    0.60    0.70
   4   0   2    1.50    0.90
   4   0   2    1.00    0.60
   4   0   2    0.70    0.70
  -5   0  -2   32.90    3.70
  -5   0  -2   46.50    3.80
  -5   0  -2   43.10    3.60
  -5   0  -2   41.90    4.70
  -5   0  -2   42.70    3.50
  -5   0  -2   39.10    3.40
  -5   0  -2   39.10    3.60
   5   0   2   43.30    3.40
   5   0   2   38.30    2.90
   5   0   2   40.00    3.40
   5   0   2   37.50    3.10
  -6   0  -2   40.30    4.70
  -6   0  -2   33.30    3.90
  -6   0  -2   30.90    4.00
  -6   0  -2   45.70    5.50
  -6   0  -2   32.50    4.00
   6   0   2   26.80    3.50
   6   0   2   37.30    4.10
  -7   0  -2   -0.40    1.10
  -7   0  -2    0.40    1.60
  -7   0  -2    0.60    1.20
   7   0   2    1.60    1.20
  -8   0  -2  129.49    8.80
  -8   0  -2  110.99    7.70
  -8   0  -2  115.89    8.20
  -9   0  -2   29.90    5.50
  -9   0  -2   48.80    7.00
  -9   0  -2   31.20    5.00
  -7   1   2    1.90    1.30
  -7   1   2    2.70    1.90
  -7   1   2    2.00    2.20
  -6   1   2    2.40    1.20
  -6   1   2    4.40    2.00
  -6   1   2    2.50    1.40
  -6   1   2    8.50    2.70
   5  -1  -2   20.10    2.10
   5  -1  -2   17.10    2.80
  -5   1   2   19.20    2.40
  -5   1   2   19.20    3.00
  -5   1   2   21.30    2.90
  -5   1   2   19.70    3.30
  -5   1   2   19.40    2.50
  -5   1   2   18.10    2.50
   4  -1  -2   11.10    1.40
   4  -1  -2   11.30    2.00
  -4   1   2   12.00    1.80
  -4   1   2   12.50    1.90
  -4   1   2   10.50    2.20
  -4   1   2   10.90    1.60
  -4   1   2   15.20    1.80
  -4   1   2    7.70    1.70
   3  -1  -2    0.00    0.20
   3  -1  -2    0.90    0.40
   3  -1  -2    0.60    0.60
  -3   1   2    0.80    0.80
  -3   1   2    1.70    0.60
  -3   1   2    0.40    0.40
  -3   1   2    1.30    0.60
  -3   1   2    0.90    0.70
   2  -1  -2   38.60    2.40
   2  -1  -2   40.90    1.40
   2  -1  -2   40.60    1.40
  -2   1   2   40.00    1.70
  -2   1   2   39.10    2.60
  -2   1   2   39.50    1.70
  -2   1   2   39.00    1.80
  -2   1   2   40.10    1.80
  -2   1   2   39.00    2.50
  -1   1   2   37.90    2.10
   0  -1  -2 1300.77   29.60
   0   1   2 1390.66   29.70
   0   1   2 1348.17   30.60
   0   1   2 1320.37   29.70
   0   1   2 1347.67   31.90
   0   1   2 1283.67   29.90
   0   1   2 1403.06   29.80
  -1  -1  -2 1911.81   43.30
  -1  -1  -2 1940.51   43.40
  -1  -1  -2 1974.20   43.60
  -1  -1  -2 1924.11   43.80
  -1  -1  -2 1926.31   44.80
  -1  -1  -2 1917.51   43.30
   1   1   2 1885.01   43.60
   1   1   2 1964.80   43.60
   1   1   2 1967.00   43.60
   1   1   2 1998.90   43.50
   1   1   2 1889.61   44.70
   1   1   2 1913.21   43.30
   1   1   2 1927.81   43.30
  -2  -1  -2  249.68    7.30
  -2  -1  -2  238.58    7.40
  -2  -1  -2  245.08    7.70
  -2  -1  -2  251.57    8.10
  -2  -1  -2  238.88    7.10
   2   1   2  245.28    7.50
   2   1   2  251.57    7.60
   2   1   2  237.48    7.40
   2   1   2  248.08    7.20
   2   1   2  236.78    7.20
   2   1   2  255.17    7.80
   2   1   2  240.18    7.10
  -3  -1  -2   93.39    4.20
  -3  -1  -2   98.19    4.70
  -3  -1  -2   93.69    4.20
  -3  -1  -2   85.29    4.10
  -3  -1  -2   95.09    4.60
  -3  -1  -2   84.09    4.20
  -3  -1  -2   97.59    4.50
  -3  -1  -2   94.49    4.20
   3   1   2   93.39    4.10
   3   1   2   90.09    4.30
   3   1   2   92.99    4.40
   3   1   2   94.29    4.30
   3   1   2   97.39    4.20
   3   1   2   97.59    4.30
   3   1   2   91.09    4.20
  -4  -1  -2    0.20    0.60
  -4  -1  -2    0.10    0.70
  -4  -1  -2   -0.40    0.60
  -4  -1  -2    0.40    0.80
  -4  -1  -2   -0.10    0.70
  -4  -1  -2   -0.30    0.80
  -4  -1  -2    0.70    0.80
   4   1   2   -0.10    0.50
   4   1   2    0.70    0.70
   4   1   2   -0.50    0.40
   4   1   2    1.50    0.80
  -5  -1  -2  310.67   11.10
  -5  -1  -2  311.47   11.20
  -5  -1  -2  326.67   11.40
  -5  -1  -2  332.37   12.10
   5   1   2  312.47   11.10
   5   1   2  301.77   10.60
   5   1   2  315.77   10.80
   5   1   2  312.77   11.00
  -6  -1  -2  180.18    8.60
  -6  -1  -2  168.98    8.20
  -6  -1  -2  173.58    8.70
  -6  -1  -2  176.68    8.50
  -6  -1  -2  185.58    9.40
   6   1   2  174.78    7.80
   6   1   2  172.98    8.00
   6   1   2  178.98    7.90
   6   1   2  186.08    8.50
  -7  -1  -2    8.00    2.30
  -7  -1  -2    5.90    2.00
  -7  -1  -2    9.90    2.80
  -7  -1  -2    7.80    2.90
   7   1   2    7.90    2.10
  -8  -1  -2   22.60    4.00
  -8  -1  -2   25.80    4.50
  -8  -1  -2   32.90    5.00
  -9  -1  -2    5.10    2.80
  -9  -1  -2   11.60    3.20
  -9  -1  -2    3.70    3.10
  -7   2   2    2.40    1.40
  -7   2   2    4.70    2.00
  -7   2   2    1.70    2.40
  -6   2   2   -0.70    0.80
  -6   2   2    0.30    0.90
  -6   2   2    0.00    1.90
   5  -2  -2   56.59    4.50
  -5   2   2   55.49    4.60
  -5   2   2   53.19    5.50
  -5   2   2   49.99    3.70
  -5   2   2   63.69    4.60
  -5   2   2   52.89    3.50
   4  -2  -2   86.39    5.10
  -4   2   2   89.39    4.80
  -4   2   2  103.39    5.60
  -4   2   2   92.49    4.10
  -4   2   2   86.59    5.40
  -4   2   2   85.09    4.30
  -4   2   2   85.69    3.90
   3  -2  -2  116.29    3.70
   3  -2  -2  116.09    5.50
   3  -2  -2  115.79    3.70
  -3   2   2  126.69    5.80
  -3   2   2  121.19    4.20
  -3   2   2  116.59    4.20
  -3   2   2  111.39    4.70
  -3   2   2  109.89    4.40
  -3   2   2  116.79    5.70
   2  -2  -2  432.26   12.50
   2  -2  -2  429.76   10.10
   2  -2  -2  437.16   10.10
  -2   2   2  436.06   12.60
  -2   2   2  427.26   10.60
  -2   2   2  425.66   10.80
  -2   2   2  437.46   10.60
  -2   2   2  438.76   11.20
  -1   2   2    4.00    1.10
  -1   2   2    2.30    0.50
  -1   2   2    1.70    0.40
  -1   2   2    2.50    0.50
  -1   2   2    2.00    0.50
   0  -2  -2  347.47   10.20
   0  -2  -2  341.67    8.40
   0  -2  -2  339.87    8.30
   0  -2  -2  360.96    8.50
   0   2   2  343.87   10.10
   0   2   2  353.26    8.60
   0   2   2  346.47    8.60
   0   2   2  358.36    8.80
   0   2   2  345.07    8.70
   0   2   2  357.76    8.60
  -1  -2  -2   25.10    2.20
  -1  -2  -2   25.90    1.40
  -1  -2  -2   25.40    1.60
   1   2   2   29.00    1.70
   1   2   2   28.80    1.80
   1   2   2   28.10    1.70
   1   2   2   26.80    1.70
   1   2   2   30.30    2.20
   1   2   2   31.00    2.00
   1   2   2   27.10    1.30
  -2  -2  -2  162.38    5.70
  -2  -2  -2  169.38    5.90
  -2  -2  -2  168.78    5.30
  -2  -2  -2  168.78    5.60
  -2  -2  -2  163.98    6.00
   2   2   2  171.68    5.80
   2   2   2  166.58    5.70
   2   2   2  162.68    6.10
   2   2   2  167.68    6.00
   2   2   2  170.28    5.90
   2   2   2  168.58    5.80
  -3  -2  -2  163.38    6.60
  -3  -2  -2  164.88    6.10
  -3  -2  -2  156.78    5.70
  -3  -2  -2  152.68    6.40
  -3  -2  -2  159.08    6.10
  -3  -2  -2  155.98    6.10
  -3  -2  -2  153.68    6.20
   3   2   2  152.98    6.10
   3   2   2  159.38    6.10
   3   2   2  145.69    6.10
   3   2   2  171.38    6.50
   3   2   2  159.88    6.00
   3   2   2  160.08    6.10
   3   2   2  167.48    6.20
  -4  -2  -2   25.50    2.90
  -4  -2  -2   33.50    3.30
  -4  -2  -2   26.60    3.00
  -4  -2  -2   30.10    2.80
  -4  -2  -2   32.80    2.80
  -4  -2  -2   36.50    3.70
  -4  -2  -2   32.00    3.00
   4   2   2   30.70    2.60
   4   2   2   31.30    2.90
   4   2   2   32.70    2.80
   4   2   2   32.30    2.80
   4   2   2   31.30    2.70
  -5  -2  -2   10.20    1.90
  -5  -2  -2   14.00    2.50
  -5  -2  -2   11.10    2.10
  -5  -2  -2   12.60    2.60
  -5  -2  -2   10.50    2.20
   5   2   2   11.70    2.10
   5   2   2   13.30    2.20
   5   2   2   11.60    2.10
   5   2   2   12.80    2.40
  -6  -2  -2  109.19    6.60
  -6  -2  -2  116.69    6.60
  -6  -2  -2  103.89    6.20
  -6  -2  -2  104.59    6.80
  -6  -2  -2  119.99    7.30
   6   2   2  120.99    6.50
   6   2   2  110.59    6.20
   6   2   2  104.89    5.90
   6   2   2  110.69    6.40
  -7  -2  -2   29.30    4.60
  -7  -2  -2   20.60    3.40
  -7  -2  -2   26.50    4.00
  -7  -2  -2   28.10    4.40
   7   2   2   27.60    3.80
  -8  -2  -2   42.10    5.80
  -8  -2  -2   34.10    5.50
  -8  -2  -2   33.70    4.80
   8   2   2   55.29    6.00
  -9  -2  -2   56.29    7.20
  -9  -2  -2   77.29    8.80
  -9  -2  -2   62.59    6.80
  -7   3   2    4.30    1.80
  -7   3   2    2.50    2.70
  -7   3   2    3.90    2.00
  -6   3   2    0.40    1.20
  -6   3   2    0.70    1.00
  -6   3   2    1.10    1.80
   5  -3  -2   30.70    5.10
  -5   3   2   23.60    3.10
  -5   3   2   25.60    3.60
  -5   3   2   27.00    2.90
  -5   3   2   33.70    4.30
  -5   3   2   28.60    4.20
   4  -3  -2   41.80    4.30
  -4   3   2   32.00    3.80
  -4   3   2   37.30    2.90
  -4   3   2   40.30    2.80
  -4   3   2   39.00    4.20
  -4   3   2   39.10    2.70
  -4   3   2   41.50    3.40
   3  -3  -2  165.18    5.20
   3  -3  -2  179.78    7.40
  -3   3   2  172.78    6.80
  -3   3   2  170.98    5.70
  -3   3   2  163.88    7.30
  -3   3   2  163.48    5.90
  -3   3   2  163.98    5.70
  -3   3   2  171.98    7.50
   2  -3  -2   68.39    2.60
  -2   3   2   79.69    3.90
  -2   3   2   69.09    3.10
  -2   3   2   73.59    3.50
  -2   3   2   64.59    2.90
  -2   3   2   74.09    3.00
  -2   3   2   64.19    4.00
   1  -3  -2   57.19    2.20
   1  -3  -2   68.29    2.60
   1  -3  -2   59.89    2.40
  -1   3   2   60.89    3.20
  -1   3   2   66.29    2.90
  -1   3   2   61.99    2.70
  -1   3   2   62.79    2.60
  -1   3   2   61.69    2.60
   0  -3  -2  266.67    7.40
   0  -3  -2  269.27    7.40
   0  -3  -2  276.87    8.60
   0  -3  -2  269.37    7.70
   0  -3  -2  265.27    7.40
   0   3   2  271.07    7.50
   0   3   2  273.37    8.30
   0   3   2  265.07    7.70
   0   3   2  259.37    7.50
   0   3   2  272.57    7.80
  -1  -3  -2  232.98    7.30
  -1  -3  -2  239.88    7.20
  -1  -3  -2  251.57    8.20
  -1  -3  -2  227.78    7.10
   1   3   2  245.08    7.70
   1   3   2  239.08    7.50
   1   3   2  236.88    7.30
   1   3   2  238.38    7.30
   1   3   2  242.18    7.60
  -2  -3  -2  184.28    7.10
  -2  -3  -2  181.18    6.40
  -2  -3  -2  176.88    6.70
  -2  -3  -2  180.88    5.40
  -2  -3  -2  181.28    6.50
  -2  -3  -2  191.28    6.70
  -2  -3  -2  182.88    6.60
   2   3   2  182.08    6.80
   2   3   2  179.18    6.60
   2   3   2  197.88    6.60
   2   3   2  183.78    6.60
   2   3   2  181.68    6.40
   2   3   2  178.38    6.70
  -3  -3  -2  309.67   10.10
  -3  -3  -2  323.97   10.50
  -3  -3  -2  317.67   10.80
  -3  -3  -2  309.17   10.10
  -3  -3  -2  306.27   10.50
  -3  -3  -2  312.07   10.40
   3   3   2  317.07   10.10
   3   3   2  319.77   10.40
   3   3   2  326.37   10.30
   3   3   2  315.67   10.10
   3   3   2  311.07   10.50
   3   3   2  311.07   10.40
   3   3   2  320.67   10.20
  -4  -3  -2  354.86   11.80
  -4  -3  -2  354.06   12.20
  -4  -3  -2  369.86   12.10
  -4  -3  -2  341.87   11.70
   4   3   2  363.86   11.60
   4   3   2  357.36   12.00
   4   3   2  348.07   11.50
   4   3   2  367.36   12.00
   4   3   2  339.77   11.70
  -5  -3  -2  174.48    8.10
  -5  -3  -2  186.58    8.40
  -5  -3  -2  187.38    8.70
   5   3   2  188.78    8.40
   5   3   2  206.88    8.60
   5   3   2  184.58    8.00
   5   3   2  194.38    8.10
  -6  -3  -2  344.17   13.20
  -6  -3  -2  366.16   13.90
  -6  -3  -2  336.57   12.90
  -6  -3  -2  345.57   13.70
   6   3   2  341.37   12.60
   6   3   2  356.76   12.80
   6   3   2  344.57   13.00
  -7  -3  -2   22.00    4.10
  -7  -3  -2   10.90    2.60
  -7  -3  -2   11.20    3.00
  -7  -3  -2   13.10    3.10
   7   3   2   15.20    3.10
  -8  -3  -2    2.30    2.40
  -8  -3  -2    0.80    1.90
  -8  -3  -2   -0.40    1.30
   8   3   2    1.30    1.60
  -7   4   2   25.00    3.50
  -7   4   2   20.60    3.60
  -7   4   2   32.10    5.90
  -6   4   2   26.30    3.50
  -6   4   2   29.20    3.50
  -6   4   2   42.30    6.00
  -5   4   2    2.50    1.20
  -5   4   2    2.60    2.00
  -5   4   2    4.00    1.30
  -5   4   2    3.90    1.90
   4  -4  -2  113.99    6.60
  -4   4   2  122.89    7.10
  -4   4   2  127.19    4.70
  -4   4   2  115.09    5.30
  -4   4   2  118.69    5.40
  -4   4   2  116.39    5.30
  -4   4   2  120.79    6.90
  -4   4   2  123.79    6.60
  -4   4   2  109.49    5.50
   3  -4  -2  138.39    4.80
  -3   4   2  136.39    5.40
  -3   4   2  142.19    6.40
  -3   4   2  131.69    6.80
  -3   4   2  139.29    5.40
  -3   4   2  125.19    5.60
  -3   4   2  138.59    5.50
   2  -4  -2  534.65   13.40
   2  -4  -2  520.15   13.30
   2  -4  -2  540.95   13.50
  -2   4   2  544.15   14.80
  -2   4   2  506.85   15.70
  -2   4   2  480.45   14.00
  -2   4   2  520.25   13.80
  -2   4   2  480.35   13.70
  -2   4   2  529.65   13.80
   1  -4  -2    1.90    0.60
   1  -4  -2    2.30    0.70
   1  -4  -2    4.60    1.10
  -1   4   2    2.60    0.70
  -1   4   2    2.20    0.80
  -1   4   2    2.20    0.90
  -1   4   2    2.70    0.80
  -1   4   2    3.70    1.30
  -1   4   2    2.70    0.80
  -1   4   2    2.20    0.80
   0  -4  -2   11.60    1.50
   0  -4  -2   12.50    1.80
   0  -4  -2   11.00    1.50
   0  -4  -2   12.10    1.50
   0  -4  -2   10.90    1.60
   0   4   2    8.20    1.40
   0   4   2   11.30    1.60
   0   4   2    7.80    1.30
   0   4   2   10.30    1.50
   0   4   2   11.20    1.50
  -1  -4  -2  362.76   10.70
  -1  -4  -2  344.37   10.40
  -1  -4  -2  359.36   10.50
  -1  -4  -2  375.86   11.40
   1   4   2  368.76   10.70
   1   4   2  351.16   10.90
   1   4   2  344.17   10.50
   1   4   2  336.77   10.50
   1   4   2  351.16   11.00
  -2  -4  -2    6.20    1.50
  -2  -4  -2    5.20    1.30
  -2  -4  -2    4.80    1.20
  -2  -4  -2    7.20    0.90
  -2  -4  -2    6.70    1.50
  -2  -4  -2    4.10    1.20
   2   4   2    5.90    1.30
   2   4   2    4.20    1.30
   2   4   2    5.60    1.40
   2   4   2    5.40    1.40
   2   4   2    6.80    1.50
   2   4   2    8.20    1.60
  -3  -4  -2  468.45   14.80
  -3  -4  -2  475.25   14.40
  -3  -4  -2  475.15   14.60
  -3  -4  -2  488.85   14.70
   3   4   2  471.25   14.60
   3   4   2  485.35   14.90
   3   4   2  492.55   15.20
   3   4   2  485.25   14.40
  -4  -4  -2  132.79    6.80
  -4  -4  -2  132.79    6.60
  -4  -4  -2  131.29    6.80
  -4  -4  -2  124.19    6.50
   4   4   2  144.29    7.00
   4   4   2  140.19    6.90
   4   4   2  130.29    6.60
   4   4   2  133.99    6.40
   4   4   2  131.49    6.20
  -5  -4  -2    6.20    1.90
  -5  -4  -2    7.90    2.00
  -5  -4  -2   11.90    2.60
  -5  -4  -2   10.50    2.60
   5   4   2    6.70    1.80
   5   4   2    8.90    2.00
   5   4   2    7.30    2.00
   5   4   2    4.00    1.50
  -6  -4  -2   73.59    5.70
  -6  -4  -2   66.99    5.30
  -6  -4  -2   73.39    5.90
   6   4   2   79.99    5.30
   6   4   2   64.69    5.00
   6   4   2   70.69    5.60
  -7  -4  -2   28.30    4.60
  -7  -4  -2   28.30    4.60
  -7  -4  -2   25.80    4.00
   7   4   2   22.40    3.60
  -8  -4  -2   27.40    4.50
  -8  -4  -2   27.20    5.10
  -8  -4  -2   32.00    5.40
   8   4   2   19.40    3.60
  -6   5   2    2.00    1.50
  -6   5   2   -1.40    2.20
  -6   5   2    2.30    1.70
  -5   5   2  151.78    8.90
  -5   5   2  129.59    7.00
  -5   5   2  140.19    6.70
  -4   5   2   11.10    2.20
  -4   5   2    4.20    1.40
  -4   5   2    6.90    2.40
  -4   5   2    8.50    2.30
  -4   5   2    5.70    2.10
   3  -5  -2  155.38    5.70
  -3   5   2  143.29    6.50
  -3   5   2  161.98    6.30
  -3   5   2  135.99    6.10
  -3   5   2  145.49    7.60
  -3   5   2  150.98    7.20
  -3   5   2  148.49    4.60
   2  -5  -2   10.80    1.60
   2  -5  -2   14.90    2.10
  -2   5   2   14.50    2.30
  -2   5   2   11.70    1.80
  -2   5   2   12.50    2.00
  -2   5   2   14.40    1.40
  -2   5   2   19.30    2.40
  -2   5   2   12.80    1.80
  -2   5   2   12.60    2.30
   1  -5  -2    2.10    1.00
   1  -5  -2    1.70    0.80
   1  -5  -2    3.30    1.10
  -1   5   2    3.70    0.80
  -1   5   2    1.00    0.70
  -1   5   2    2.30    1.00
  -1   5   2    2.50    1.10
  -1   5   2    2.40    1.00
  -1   5   2    3.20    0.90
  -1   5   2    1.40    0.80
   0  -5  -2    9.60    1.90
   0  -5  -2   11.60    1.80
   0  -5  -2    9.40    1.80
   0   5   2    5.50    1.40
   0   5   2   10.40    1.90
   0   5   2   10.10    1.80
   0   5   2    8.20    1.60
   0   5   2   10.00    1.50
  -1  -5  -2    4.30    1.10
  -1  -5  -2    3.00    1.20
  -1  -5  -2    7.40    1.70
   1   5   2    3.70    1.10
   1   5   2    5.00    1.30
   1   5   2    6.00    1.60
   1   5   2    5.90    1.30
   1   5   2    4.20    1.30
  -2  -5  -2   48.30    3.70
  -2  -5  -2   50.29    3.50
  -2  -5  -2   55.59    4.00
   2   5   2   55.89    3.60
   2   5   2   50.89    3.60
   2   5   2   52.19    3.80
   2   5   2   49.40    3.90
   2   5   2   51.59    3.70
  -3  -5  -2  298.27   11.00
  -3  -5  -2  310.87   11.30
  -3  -5  -2  296.37   10.70
   3   5   2  301.37   11.30
   3   5   2  303.37   11.20
   3   5   2  301.57   10.90
   3   5   2  299.47   10.70
  -4  -5  -2  121.59    6.60
  -4  -5  -2  135.99    7.20
  -4  -5  -2  123.09    6.80
  -4  -5  -2  145.79    7.50
   4   5   2  133.39    6.50
   4   5   2  129.59    7.00
   4   5   2  131.29    6.80
   4   5   2  130.99    7.30
   4   5   2  134.79    6.90
  -5  -5  -2    2.80    1.80
  -5  -5  -2    1.90    1.40
  -5  -5  -2    0.80    1.10
  -5  -5  -2    1.70    1.50
   5   5   2    1.30    1.10
   5   5   2    2.40    1.50
   5   5   2    1.50    1.30
   5   5   2    1.90    1.20
  -6  -5  -2  125.09    7.90
  -6  -5  -2  117.99    7.90
  -6  -5  -2  111.09    7.20
   6   5   2  129.69    7.10
   6   5   2  123.69    7.30
  -7  -5  -2   19.10    4.10
  -7  -5  -2   28.30    4.50
  -7  -5  -2   35.10    5.40
   7   5   2   22.10    3.70
  -8  -5  -2   73.69    7.90
  -8  -5  -2   92.99    8.00
  -8  -5  -2   74.19    8.30
   8   5   2   86.79    7.00
  -6   6   2   12.50    3.40
  -6   6   2   12.10    2.60
  -6   6   2    9.20    2.50
  -5   6   2    8.70    2.30
  -5   6   2   12.60    3.50
  -5   6   2    7.80    2.40
  -4   6   2   51.09    5.80
  -4   6   2   53.99    4.10
  -4   6   2   54.79    4.50
   3  -6  -2   21.30    2.50
  -3   6   2   22.70    3.00
  -3   6   2   20.20    3.30
  -3   6   2   26.50    3.90
  -3   6   2   19.50    2.80
   2  -6  -2  130.59    5.80
   2  -6  -2  137.49    6.60
  -2   6   2  150.48    6.50
  -2   6   2  130.69    6.10
  -2   6   2  131.59    6.60
  -2   6   2  134.19    7.30
  -2   6   2  136.59    6.90
  -2   6   2  140.99    4.20
   1  -6  -2    2.90    1.10
   1  -6  -2    0.70    0.70
   1  -6  -2    3.00    1.40
  -1   6   2    3.60    0.90
  -1   6   2    1.90    1.20
  -1   6   2    2.50    1.20
  -1   6   2    1.30    1.10
  -1   6   2    0.80    0.80
  -1   6   2    1.40    0.70
  -1   6   2    2.90    1.20
   0  -6  -2  147.99    6.90
   0  -6  -2  148.09    6.50
   0  -6  -2  140.19    6.10
   0   6   2  119.29    6.40
   0   6   2  150.48    7.10
   0   6   2  145.39    6.50
   0   6   2  132.49    5.50
   0   6   2  143.39    6.50
  -1  -6  -2  212.28    9.60
  -1  -6  -2  174.48    7.80
  -1  -6  -2  157.28    6.90
   1   6   2  170.48    7.90
   1   6   2  177.38    7.50
   1   6   2  151.78    7.50
   1   6   2  162.98    7.30
   1   6   2  171.88    6.90
  -2  -6  -2   20.80    2.70
  -2  -6  -2   23.90    1.40
  -2  -6  -2   20.70    3.20
   2   6   2   25.10    3.20
   2   6   2   21.00    3.20
   2   6   2   24.60    3.10
   2   6   2   25.10    3.60
  -3  -6  -2    0.70    0.80
  -3  -6  -2    0.10    0.90
   3   6   2    0.10    1.10
   3   6   2    0.70    0.90
   3   6   2   -0.60    0.70
   3   6   2   -0.30    0.90
  -4  -6  -2   14.90    3.00
  -4  -6  -2   21.10    3.40
  -4  -6  -2   21.30    3.50
   4   6   2   24.40    3.30
   4   6   2   16.50    3.00
   4   6   2   26.80    4.00
   4   6   2   17.80    3.00
  -5  -6  -2   14.30    3.00
  -5  -6  -2   17.60    3.50
  -5  -6  -2   19.90    3.90
   5   6   2   27.00    4.40
   5   6   2   20.80    3.60
   5   6   2   20.60    3.10
  -6  -6  -2   32.40    5.10
  -6  -6  -2   39.20    5.10
  -6  -6  -2   45.70    5.70
   6   6   2   40.80    4.80
   6   6   2   37.50    4.70
  -7  -6  -2   10.80    2.90
  -7  -6  -2   12.30    3.60
  -7  -6  -2   17.30    4.00
   7   6   2   17.30    3.50
  -8  -6  -2   -0.20    1.90
  -8  -6  -2    0.10    2.30
  -8  -6  -2   -0.30    2.60
   8   6   2    0.50    2.00
  -5   7   2   43.40    4.80
  -5   7   2   39.50    5.90
  -5   7   2   43.50    5.20
  -4   7   2   15.60    3.10
  -4   7   2   16.20    2.80
  -3   7   2   11.20    2.30
  -3   7   2    9.20    2.30
   2  -7  -2   10.10    2.00
  -2   7   2   10.70    2.20
  -2   7   2   13.80    2.90
  -2   7   2    8.50    2.30
   1  -7  -2    3.30    1.20
   1  -7  -2    1.00    1.10
   1  -7  -2    2.70    1.50
  -1   7   2    0.50    1.30
  -1   7   2    3.00    1.40
  -1   7   2    0.80    0.70
  -1   7   2    0.50    1.00
  -1   7   2    3.30    1.70
  -1   7   2    2.10    0.80
  -1   7   2    2.10    1.40
   0  -7  -2   18.70    2.70
   0  -7  -2   14.40    2.80
   0  -7  -2   15.10    2.60
   0   7   2   16.50    2.70
   0   7   2   18.80    2.40
   0   7   2   17.80    2.90
   0   7   2   20.70    3.30
   0   7   2   18.20    3.10
  -1  -7  -2  180.18    8.00
  -1  -7  -2  191.88    8.90
   1   7   2  182.18    7.60
   1   7   2  197.58    9.10
   1   7   2  191.88    9.10
   1   7   2  174.28    8.20
  -2  -7  -2   26.90    3.90
  -2  -7  -2   18.90    3.00
   2   7   2   18.60    3.20
   2   7   2   23.10    3.10
   2   7   2   20.60    3.50
   2   7   2   14.80    2.70
  -3  -7  -2   70.99    5.60
  -3  -7  -2   67.89    5.10
  -3  -7  -2   65.09    3.30
   3   7   2   63.19    5.00
   3   7   2   67.59    5.70
   3   7   2   68.99    5.00
   3   7   2   67.29    5.50
  -4  -7  -2   39.70    4.50
  -4  -7  -2   43.10    5.20
   4   7   2   35.90    4.80
   4   7   2   42.80    5.10
   4   7   2   48.60    4.20
  -5  -7  -2    3.80    2.10
  -5  -7  -2    1.60    1.50
   5   7   2    5.30    2.30
   5   7   2    1.80    1.40
   5   7   2    1.80    1.50
  -6  -7  -2   27.50    4.50
  -6  -7  -2   31.70    5.00
  -6  -7  -2   24.30    4.90
   6   7   2   37.40    5.50
  -7  -7  -2   -0.60    2.30
  -7  -7  -2   -0.80    1.40
   7   7   2   -0.30    1.70
  -4   8   2    9.70    2.80
  -4   8   2   17.00    3.20
  -3   8   2    0.90    1.30
  -3   8   2    0.50    1.30
  -2   8   2   27.60    3.90
  -2   8   2   24.50    3.80
   1  -8  -2  131.39    6.80
  -1   8   2  131.69    7.70
  -1   8   2  115.79    7.20
  -1   8   2  122.89    7.00
   0  -8  -2  137.29    7.10
   0   8   2  133.69    7.80
   0   8   2  128.79    7.50
   0   8   2  130.19    7.30
  -1  -8  -2   68.59    5.00
   1   8   2   65.59    5.40
   1   8   2   61.29    5.10
  -2  -8  -2  251.27   10.80
   2   8   2  242.48   10.90
   2   8   2  269.47   12.00
  -3  -8  -2   14.00    2.70
   3   8   2    9.50    2.60
   3   8   2   14.10    3.00
  -4  -8  -2    0.90    1.20
   4   8   2   -0.70    1.30
   4   8   2   -0.20    1.20
  -5  -8  -2   13.10    3.10
   5   8   2    8.50    2.80
  -6  -8  -2    1.60    1.70
   6   8   2    2.30    1.90
  -3   9   2    5.70    2.40
  -3   9   2    7.20    2.60
  -2   9   2   39.40    4.80
  -2   9   2   45.60    5.70
  -1   9   2   -1.00    1.40
  -1   9   2    0.00    1.50
   0  -9  -2  145.99    7.90
   0   9   2  155.88    8.70
   0   9   2  155.48    9.10
  -1  -9  -2   13.20    3.00
   1   9   2    7.50    2.90
   1   9   2   11.90    3.10
   1   9   2    9.90    2.80
  -2  -9  -2   -0.40    1.10
   2   9   2   -1.40    1.10
   2   9   2    2.00    1.70
  -3  -9  -2   27.20    4.50
   3   9   2   28.00    4.80
   3   9   2   25.40    4.30
  -4  -9  -2   29.60    4.50
   4   9   2   27.40    4.60
  -5  -9  -2    6.00    2.50
   5   9   2    8.90    2.90
  -2  10   2    3.00    2.40
  -2  10   2    5.30    2.40
  -1  10   2    1.80    2.20
  -1  10   2    2.10    2.00
   0  10   2   37.50    5.50
   0  10   2   34.20    5.50
  -1 -10  -2   32.30    4.90
   1  10   2   34.10    5.90
   1  10   2   35.70    5.40
  -2 -10  -2   -0.70    1.20
   2  10   2    2.20    2.40
   2  10   2   -0.30    1.60
  -3 -10  -2   89.19    7.10
   3  10   2   77.29    9.40
   3  10   2   72.89    7.70
  -4 -10  -2   10.40    3.10
   4  10   2   12.60    4.00
   1   9  -3    1.10    2.20
  -1  -9   3    1.50    2.10
   0   9  -3   10.50    3.60
   0  -9   3   16.00    3.80
  -1   9  -3   13.50    3.70
   1  -9   3   15.20    3.80
  -2   9  -3    1.50    2.40
   2  -9   3    4.60    2.40
   3   8  -3    1.10    2.30
  -3  -8   3    2.60    2.30
  -3  -8   3    2.80    1.90
  -3  -8   3    5.20    2.60
   2   8  -3   13.40    3.40
  -2  -8   3   12.90    3.30
  -2  -8   3   17.00    3.70
  -2  -8   3   13.10    4.20
   1   8  -3    0.50    2.00
  -1  -8   3   -1.10    1.80
  -1  -8   3    1.70    1.70
  -1  -8   3    1.80    1.70
   0   8  -3   21.50    4.10
   0  -8   3   26.70    4.50
   0  -8   3   15.30    3.00
  -1   8  -3    1.50    1.90
   1  -8   3   -0.40    1.10
   1  -8   3    4.20    2.00
  -2   8  -3   15.10    4.40
  -2   8  -3   16.10    3.80
   2  -8   3   22.60    4.10
   2  -8   3   27.90    4.20
  -3   8  -3    2.00    1.90
  -3   8  -3    1.80    2.40
   3  -8   3    1.30    1.40
   3  -8   3    1.80    1.70
  -4   8  -3   -0.70    1.70
  -4   8  -3   -1.70    2.00
  -4   8  -3   -1.90    2.20
   4  -8   3    0.60    1.50
   4  -8   3   -0.90    1.60
  -4  -7   3    5.50    2.50
  -4  -7   3    8.20    2.70
  -4  -7   3    3.80    2.50
   3   7  -3    3.00    2.10
  -3  -7   3    6.20    2.40
  -3  -7   3    3.60    2.30
  -3  -7   3    7.90    2.60
   2   7  -3    0.80    1.80
  -2  -7   3    0.90    1.30
  -2  -7   3    0.50    1.50
  -2  -7   3   -0.40    1.50
   1   7  -3    0.20    1.30
  -1  -7   3    1.30    1.60
  -1  -7   3    1.60    1.70
  -1  -7   3    0.00    1.10
   0   7  -3  230.78   11.90
   0   7  -3  224.98   10.80
   0  -7   3  223.08   12.20
   0  -7   3  218.78   10.50
   0  -7   3  205.48    9.90
  -1   7  -3   77.89    6.40
  -1   7  -3   68.49    4.30
  -1   7  -3   67.39    6.70
   1  -7   3   66.09    5.60
   1  -7   3   68.89    5.40
   1  -7   3   54.49    7.20
  -2   7  -3   12.70    3.40
  -2   7  -3   15.10    2.60
  -2   7  -3   14.50    3.10
   2  -7   3   11.30    2.60
   2  -7   3   11.70    2.60
  -3   7  -3   -0.20    1.70
  -3   7  -3   -0.20    1.40
  -3   7  -3   -0.90    1.40
   3  -7   3    3.00    1.60
   3  -7   3    0.20    1.20
  -4   7  -3    5.70    2.20
  -4   7  -3    4.20    2.60
  -4   7  -3    5.40    2.40
   4  -7   3    7.00    2.20
   4  -7   3    4.20    2.00
  -5   7  -3   43.00    5.40
  -5   7  -3   45.00    5.90
  -5   7  -3   47.30    6.70
   5  -7   3   48.00    6.00
  -5  -6   3   16.40    3.50
  -5  -6   3   13.00    3.30
  -5  -6   3   16.40    3.50
  -5  -6   3    9.40    3.30
   4   6  -3    4.20    2.10
  -4  -6   3    3.80    1.90
  -4  -6   3   -1.20    1.20
  -4  -6   3    0.90    1.40
  -4  -6   3    0.30    1.40
   3   6  -3   64.49    5.40
  -3  -6   3   65.59    5.40
  -3  -6   3   62.99    7.00
  -3  -6   3   60.19    6.10
   2   6  -3  387.26   14.50
  -2  -6   3  401.66   16.00
  -2  -6   3  377.36   14.20
  -2  -6   3  371.06   14.20
   1   6  -3    0.80    1.50
   1   6  -3    0.20    0.50
   1   6  -3    1.10    1.20
  -1  -6   3   -0.10    0.80
  -1  -6   3   -0.30    1.20
  -1  -6   3    0.00    1.20
   0   6  -3   60.39    5.00
   0   6  -3   59.39    3.20
   0   6  -3   62.99    5.30
   0  -6   3   63.29    5.70
   0  -6   3   79.49   10.60
   0  -6   3   56.79    4.80
   0  -6   3   61.79    4.90
  -1   6  -3   89.69    4.60
  -1   6  -3   91.69    6.10
  -1   6  -3   94.09    6.50
   1  -6   3   82.39    5.60
   1  -6   3   81.09    6.70
   1  -6   3   99.39    6.30
  -2   6  -3  106.59    7.10
  -2   6  -3  105.69    5.60
  -2   6  -3  114.79    7.00
   2  -6   3  105.89    8.00
   2  -6   3  109.09    6.40
   2  -6   3  110.49    6.60
  -3   6  -3   11.30    2.40
  -3   6  -3    5.10    1.90
  -3   6  -3    8.50    2.60
   3  -6   3   15.00    2.90
   3  -6   3    8.40    2.10
   3  -6   3   15.20    4.10
   3  -6   3    9.80    2.20
  -4   6  -3    0.00    1.20
  -4   6  -3    2.10    1.50
  -4   6  -3   -0.10    1.20
  -4   6  -3    2.90    2.20
   4  -6   3    1.10    1.40
   4  -6   3    1.10    1.30
  -5   6  -3    6.40    2.30
  -5   6  -3    2.90    2.10
  -5   6  -3    9.60    2.90
   5  -6   3    8.80    2.70
  -6   6  -3   97.79    8.20
  -6   6  -3   76.99    7.80
  -6   6  -3   85.29    7.00
  -6  -5   3   25.50    4.90
  -6  -5   3   23.50    4.50
  -6  -5   3   23.60    4.50
  -6  -5   3   34.10    4.90
  -5  -5   3   60.29    6.10
  -5  -5   3   56.09    5.80
  -5  -5   3   36.80    5.20
  -5  -5   3   43.90    5.60
   4   5  -3    8.00    2.30
  -4  -5   3   13.60    2.90
  -4  -5   3   10.30    2.90
  -4  -5   3   12.30    2.90
  -4  -5   3   16.00    3.10
   3   5  -3   52.99    5.30
  -3  -5   3   48.10    4.80
  -3  -5   3   55.99    6.20
  -3  -5   3   49.50    4.00
  -3  -5   3   50.09    5.20
   2   5  -3   74.99    5.20
   2   5  -3   73.19    5.30
  -2  -5   3   73.79    5.70
  -2  -5   3   66.59    4.90
  -2  -5   3   76.39    5.90
  -2  -5   3   59.39    4.80
   1   5  -3  299.27    7.60
   1   5  -3  311.47   12.00
   1   5  -3  295.87   11.50
   1   5  -3  304.97    9.80
  -1  -5   3  318.47   12.30
  -1  -5   3  309.47   11.50
  -1  -5   3  286.77   11.40
  -1  -5   3  302.77   12.60
   0   5  -3    5.40    1.70
   0   5  -3    9.60    1.70
   0   5  -3    6.90    2.00
   0   5  -3   13.10    1.50
   0  -5   3   10.30    2.50
   0  -5   3    7.20    2.30
   0  -5   3    7.10    2.00
   0  -5   3   10.80    2.30
  -1   5  -3  136.99    7.50
  -1   5  -3  138.79    5.50
  -1   5  -3  137.29    7.10
   1  -5   3  139.79    7.40
   1  -5   3  153.98    8.60
   1  -5   3  143.79    7.20
   1  -5   3  135.09    7.00
  -2   5  -3    8.00    1.70
  -2   5  -3    3.30    1.80
  -2   5  -3    4.80    1.80
  -2   5  -3    5.00    1.90
   2  -5   3    5.30    1.40
   2  -5   3    7.50    1.90
   2  -5   3    6.90    2.50
   2  -5   3    4.80    1.50
  -3   5  -3  101.09    7.40
  -3   5  -3  103.09    5.70
  -3   5  -3   93.99    6.20
  -3   5  -3  109.59    5.50
  -3   5  -3  103.19    6.70
   3  -5   3  103.39    5.60
   3  -5   3  107.09    7.60
   3  -5   3  105.59    4.90
   3  -5   3  102.99    6.20
   3  -5   3   91.09    5.70
  -4   5  -3  155.68    8.40
  -4   5  -3  157.68    8.90
  -4   5  -3  160.58    7.60
  -4   5  -3  160.78    8.00
   4  -5   3  158.78    7.90
   4  -5   3  165.58    9.80
   4  -5   3  161.98    7.80
   4  -5   3  166.98    8.30
  -5   5  -3   40.20    7.00
  -5   5  -3   22.00    3.40
  -5   5  -3   27.40    4.40
  -5   5  -3   24.30    4.00
   5  -5   3   25.50    4.00
  -6   5  -3  103.99    7.60
  -6   5  -3  113.49    7.50
  -6   5  -3   93.29    7.70
   6  -5   3  114.49    7.30
  -7   5  -3    5.30    2.50
  -7   5  -3    6.20    3.00
  -7   5  -3   10.40    3.40
  -6  -4   3    7.90    2.30
  -6  -4   3   10.00    3.00
  -6  -4   3   11.00    3.10
  -5  -4   3   13.10    3.00
  -5  -4   3   20.30    3.40
  -5  -4   3   19.30    3.60
   4   4  -3  301.87   11.30
  -4  -4   3  281.47   12.20
  -4  -4   3  300.17   11.30
  -4  -4   3  286.47   11.40
  -4  -4   3  293.87   12.20
   3   4  -3   25.20    3.80
   3   4  -3   20.90    1.20
   3   4  -3   21.40    3.00
  -3  -4   3   21.30    3.40
  -3  -4   3   24.90    3.10
  -3  -4   3   22.00    3.50
  -3  -4   3   22.50    3.70
  -3  -4   3   18.20    2.90
   2   4  -3  431.86   12.60
   2   4  -3  447.36   14.10
  -2  -4   3  420.86   12.70
  -2  -4   3  426.56   14.00
  -2  -4   3  416.66   14.80
  -2  -4   3  425.26   14.80
  -2  -4   3  442.46   14.50
   1   4  -3    9.30    1.90
   1   4  -3   16.60    2.00
   1   4  -3   17.10    2.80
  -1  -4   3   12.20    2.10
  -1  -4   3   16.80    2.70
  -1  -4   3   14.60    2.50
  -1  -4   3   11.00    2.30
   0   4  -3  236.68    6.40
   0   4  -3  232.68    7.30
   0   4  -3  226.78    9.00
   0   4  -3  231.18    9.30
   0  -4   3  222.08    9.10
   0  -4   3  232.28    8.90
   0  -4   3  250.97    9.70
   0  -4   3  224.28    9.90
  -1   4  -3  132.09    6.50
  -1   4  -3  141.19    6.90
  -1   4  -3  142.19    5.10
  -1   4  -3  151.88    7.40
   1  -4   3  142.99    7.70
   1  -4   3  136.99    6.60
   1  -4   3  138.89    6.90
   1  -4   3  141.09    6.80
  -2   4  -3    3.70    1.10
  -2   4  -3    2.50    1.50
  -2   4  -3    2.30    1.30
  -2   4  -3    1.20    0.90
   2  -4   3    4.00    1.30
   2  -4   3    2.10    1.10
   2  -4   3    3.20    1.00
   2  -4   3    3.80    1.70
   2  -4   3    4.70    1.90
  -3   4  -3  193.28    7.30
  -3   4  -3  175.08    8.30
  -3   4  -3  197.08    7.80
  -3   4  -3  190.38    8.90
  -3   4  -3  190.58    9.60
   3  -4   3  198.18    7.70
   3  -4   3  183.18    8.20
   3  -4   3  188.88    8.20
   3  -4   3  182.18    9.50
   3  -4   3  184.98    6.90
  -4   4  -3   40.50    5.50
  -4   4  -3   24.70    3.30
  -4   4  -3   36.50    3.80
  -4   4  -3   33.80    4.40
  -4   4  -3   33.70    4.00
   4  -4   3   40.80    4.20
   4  -4   3   46.40    5.70
   4  -4   3   35.10    2.20
   4  -4   3   32.80    3.90
   4  -4   3   32.60    4.00
  -5   4  -3   33.60    4.50
  -5   4  -3   27.70    3.80
  -5   4  -3   32.10    4.00
  -5   4  -3   27.20    3.80
   5  -4   3   33.90    3.90
   5  -4   3   33.60    4.30
  -6   4  -3   34.00    4.70
  -6   4  -3   32.20    4.80
  -6   4  -3   28.50    4.00
   6  -4   3   35.50    4.60
  -7   4  -3   10.00    2.90
  -7   4  -3   10.30    3.20
  -7   4  -3   10.80    3.30
  -8   4  -3    1.60    2.30
  -8   4  -3    2.20    2.60
  -7  -3   3   46.80    5.30
  -6  -3   3   16.20    3.10
  -6  -3   3   11.80    3.00
  -6  -3   3   17.00    3.60
  -5  -3   3  326.17   12.40
  -5  -3   3  317.57   13.00
  -5  -3   3  358.26   13.00
   4   3  -3   41.70    4.20
   4   3  -3   33.60    2.30
  -4  -3   3   36.60    4.00
  -4  -3   3   29.70    3.60
  -4  -3   3   25.30    3.60
  -4  -3   3   47.10    5.60
   3   3  -3  158.78    6.80
   3   3  -3  152.88    6.80
   3   3  -3  142.89    4.60
  -3  -3   3  158.48    7.50
  -3  -3   3  145.59    7.20
  -3  -3   3  150.38    6.50
  -3  -3   3  146.29    7.40
  -3  -3   3  161.48    7.10
  -3  -3   3  149.99    6.80
   2   3  -3    0.20    0.60
   2   3  -3    0.00    0.70
   2   3  -3    1.00    0.80
  -2  -3   3    1.20    0.80
  -2  -3   3   -0.70    0.60
  -2  -3   3    0.50    0.90
  -2  -3   3   -0.10    0.70
  -2  -3   3    0.50    0.80
  -2  -3   3    0.80    0.90
   1   3  -3   32.40    2.80
   1   3  -3   30.10    2.00
  -1  -3   3   28.50    3.20
  -1  -3   3   34.10    3.40
  -1  -3   3   30.70    2.60
  -1  -3   3   28.00    3.20
  -1  -3   3   34.90    3.10
   0   3  -3   71.49    2.90
   0   3  -3   70.39    4.30
   0   3  -3   82.89    4.70
   0   3  -3   74.89    2.40
   0   3  -3   74.99    4.20
   0  -3   3   79.49    4.40
   0  -3   3   77.49    4.50
   0  -3   3   75.89    4.80
   0  -3   3   83.09    4.70
   0  -3   3   71.49    4.10
  -1   3  -3   12.30    1.40
  -1   3  -3    9.40    1.80
  -1   3  -3    7.20    1.50
  -1   3  -3    8.90    2.00
   1  -3   3    9.50    1.90
   1  -3   3   10.50    1.90
   1  -3   3   10.20    1.70
   1  -3   3   10.00    1.90
   1  -3   3   11.80    2.40
   1  -3   3   10.70    1.30
  -2   3  -3   18.40    2.70
  -2   3  -3   20.50    1.70
  -2   3  -3   21.60    2.80
  -2   3  -3   19.30    2.10
  -2   3  -3   22.00    3.30
   2  -3   3   20.00    2.60
   2  -3   3   17.90    2.60
   2  -3   3   18.90    2.10
   2  -3   3   20.90    3.20
   2  -3   3   17.40    2.60
  -3   3  -3  198.48    8.40
  -3   3  -3  227.88   10.00
  -3   3  -3  209.78    7.90
  -3   3  -3  204.08    8.80
  -3   3  -3  211.58    7.40
   3  -3   3  213.38    9.80
   3  -3   3  214.68    7.60
   3  -3   3  218.38    7.90
   3  -3   3  214.78    8.80
   3  -3   3  212.38    8.50
   3  -3   3  210.98    8.40
  -4   3  -3  305.97   10.90
  -4   3  -3  276.77   11.20
  -4   3  -3  305.37   11.70
  -4   3  -3  300.27   10.30
  -4   3  -3  316.37   13.10
   4  -3   3  319.97   12.70
   4  -3   3  303.97   11.20
   4  -3   3  293.27   10.90
   4  -3   3  308.37    9.10
   4  -3   3  295.17   10.80
  -5   3  -3   32.70    4.10
  -5   3  -3   25.30    3.30
  -5   3  -3   21.80    4.30
  -5   3  -3   27.20    3.70
  -5   3  -3   27.00    3.90
   5  -3   3   28.20    4.30
   5  -3   3   29.00    3.50
   5  -3   3   28.30    2.00
   5  -3   3   34.00    4.10
  -6   3  -3   24.80    3.60
  -6   3  -3   36.60    4.60
  -6   3  -3   33.70    4.80
   6  -3   3   31.20    4.10
  -7   3  -3    1.30    1.40
  -7   3  -3    4.20    2.20
  -7   3  -3    4.80    2.60
   7  -3   3    2.20    1.40
  -8   3  -3   53.59    6.40
  -8   3  -3   53.49    6.80
  -8   3  -3   56.69    6.90
  -7  -2   3   76.19    7.80
  -7  -2   3   77.79    5.80
  -7  -2   3   76.69    6.40
  -6  -2   3   31.90    4.00
  -6  -2   3   27.90    4.20
  -6  -2   3   30.60    4.80
   5   2  -3   18.90    2.50
  -5  -2   3   14.40    2.90
  -5  -2   3   17.80    2.80
  -5  -2   3   14.50    2.30
  -5  -2   3   18.60    3.20
   4   2  -3  277.77    9.50
   4   2  -3  288.17    9.40
   4   2  -3  272.57    8.80
  -4  -2   3  261.77   10.30
  -4  -2   3  279.77    9.00
  -4  -2   3  292.17   10.10
  -4  -2   3  280.67    9.90
  -4  -2   3  270.67   10.20
  -4  -2   3  285.97   10.60
   3   2  -3    2.10    1.00
   3   2  -3    2.20    0.70
   3   2  -3    3.10    1.10
  -3  -2   3    4.10    1.20
  -3  -2   3    2.50    1.10
  -3  -2   3    3.50    1.30
  -3  -2   3    3.20    1.20
  -3  -2   3    3.20    0.90
  -3  -2   3    5.10    1.50
   2   2  -3   47.30    3.10
   2   2  -3   44.70    2.90
   2   2  -3   46.20    2.80
  -2  -2   3   45.30    3.50
  -2  -2   3   47.50    3.30
  -2  -2   3   51.69    3.20
  -2  -2   3   45.90    2.80
  -2  -2   3   43.60    2.90
  -2  -2   3   49.40    3.40
   1   2  -3   11.30    1.30
   1   2  -3   14.50    1.90
   1   2  -3   16.00    2.20
   1   2  -3   12.70    1.80
  -1  -2   3   12.60    2.00
  -1  -2   3   14.70    2.00
  -1  -2   3    8.50    1.60
  -1  -2   3   11.80    1.70
  -1  -2   3    9.30    1.70
  -1  -2   3   10.90    1.30
   0   2  -3  377.26   11.00
   0   2  -3  372.76    9.00
   0   2  -3  378.76   11.30
   0   2  -3  377.76   11.40
   0   2  -3  382.06   11.00
   0  -2   3  393.16   11.20
   0  -2   3  359.96   11.20
   0  -2   3  358.26   11.70
   0  -2   3  363.86   10.90
   0  -2   3  366.76   11.70
  -1   2  -3 1315.87   32.80
  -1   2  -3 1421.96   33.30
  -1   2  -3 1379.26   32.60
  -1   2  -3 1316.07   30.80
  -1   2  -3 1333.37   32.60
  -1   2  -3 1381.36   33.60
   1  -2   3 1295.97   33.20
   1  -2   3 1366.46   33.10
   1  -2   3 1350.66   30.80
   1  -2   3 1397.16   32.80
   1  -2   3 1310.77   33.90
   1  -2   3 1286.27   32.40
  -2   2  -3   72.59    4.30
  -2   2  -3   60.29    3.70
  -2   2  -3   65.89    3.30
  -2   2  -3   68.89    4.50
  -2   2  -3   63.19    2.80
  -2   2  -3   59.39    3.80
  -2   2  -3   59.99    3.70
   2  -2   3   67.39    4.60
   2  -2   3   61.79    3.70
   2  -2   3   65.99    3.20
   2  -2   3   60.59    3.80
   2  -2   3   65.69    3.80
   2  -2   3   63.69    4.00
   2  -2   3   64.39    3.90
  -3   2  -3  226.78    9.70
  -3   2  -3  226.18    7.40
  -3   2  -3  224.98    8.00
  -3   2  -3  219.98    8.70
  -3   2  -3  243.48    8.80
   3  -2   3  233.68    8.00
   3  -2   3  230.78    8.40
   3  -2   3  228.18    8.00
   3  -2   3  212.38    8.40
   3  -2   3  218.28    9.40
   3  -2   3  225.18    8.60
  -4   2  -3    5.10    1.50
  -4   2  -3    6.10    1.60
  -4   2  -3    1.40    1.10
  -4   2  -3    4.20    1.20
  -4   2  -3    3.10    1.40
  -4   2  -3    5.70    2.00
   4  -2   3    4.20    1.40
   4  -2   3    7.50    1.30
   4  -2   3    3.70    1.30
   4  -2   3    1.80    1.00
   4  -2   3    4.60    1.80
  -5   2  -3   90.19    5.90
  -5   2  -3   93.69    5.40
  -5   2  -3   93.49    7.00
  -5   2  -3   93.09    5.70
  -5   2  -3   83.89    5.10
  -5   2  -3   86.89    5.60
   5  -2   3   88.79    5.90
   5  -2   3   88.29    5.30
   5  -2   3   86.99    4.10
   5  -2   3   90.99    5.50
  -6   2  -3    5.70    1.90
  -6   2  -3   12.70    2.80
  -6   2  -3   16.20    3.20
  -6   2  -3    7.70    2.30
   6  -2   3    6.40    1.40
   6  -2   3    8.80    2.20
  -7   2  -3   -1.20    1.40
  -7   2  -3   -0.20    1.50
  -7   2  -3   -0.30    1.30
   7  -2   3   -1.00    0.90
  -8   2  -3   64.09    6.90
  -8   2  -3   64.09    7.60
  -8   2  -3   68.89    7.30
  -7  -1   3   -0.30    1.20
  -7  -1   3    1.60    1.50
  -7  -1   3    1.50    2.20
  -6  -1   3   51.99    5.90
  -6  -1   3   49.10    5.00
  -6  -1   3   53.99    4.70
  -6  -1   3   63.79    4.50
   5   1  -3  113.89    5.70
  -5  -1   3  124.59    7.10
  -5  -1   3  112.29    6.00
  -5  -1   3  127.09    6.50
  -5  -1   3  113.49    5.80
  -5  -1   3  123.69    6.50
   4   1  -3   14.80    1.90
   4   1  -3   14.30    1.80
   4   1  -3   18.10    2.20
  -4  -1   3   14.70    2.30
  -4  -1   3   10.80    1.90
  -4  -1   3   14.00    2.10
  -4  -1   3   13.10    2.20
  -4  -1   3   13.40    2.00
  -4  -1   3   16.40    2.70
   3   1  -3   27.00    1.90
   3   1  -3   23.70    2.00
   3   1  -3   25.30    1.90
  -3  -1   3   27.40    2.20
  -3  -1   3   21.20    2.60
  -3  -1   3   26.10    2.40
  -3  -1   3   25.80    2.20
  -3  -1   3   24.90    2.00
  -3  -1   3   26.50    2.40
   2   1  -3  307.47    9.00
   2   1  -3  314.27    9.30
   2   1  -3  325.07    9.00
   2   1  -3  322.87    8.90
   2   1  -3  310.87    8.40
  -2  -1   3  308.37    9.30
  -2  -1   3  325.67    9.40
  -2  -1   3  323.67    9.70
  -2  -1   3  297.77    9.50
  -2  -1   3  306.17    9.20
  -2  -1   3  311.67    8.40
   1   1  -3  475.65   12.40
   1   1  -3  468.45   12.40
   1   1  -3  478.55   12.40
   1   1  -3  473.85   11.90
   1   1  -3  492.15   12.50
  -1  -1   3  484.45   11.10
  -1  -1   3  477.25   11.90
  -1  -1   3  446.96   12.80
  -1  -1   3  454.25   13.50
  -1  -1   3  474.25   12.50
  -1  -1   3  475.45   12.90
  -1  -1   3  489.95   12.70
   0   1  -3   29.90    2.00
   0   1  -3   27.40    1.90
   0   1  -3   26.20    1.90
   0   1  -3   28.10    2.00
   0   1  -3   25.80    2.10
   0  -1   3   26.10    2.20
   0  -1   3   30.00    2.50
   0  -1   3   26.50    1.10
   0  -1   3   28.50    2.10
   0  -1   3   23.60    1.80
   0  -1   3   27.30    1.90
  -1   1  -3   31.00    2.20
  -1   1  -3   29.20    2.30
  -1   1  -3   32.40    2.30
  -1   1  -3   27.10    2.30
  -1   1  -3   29.90    2.10
  -1   1  -3   31.00    1.70
   1  -1   3   29.60    2.10
   1  -1   3   30.60    1.60
   1  -1   3   25.70    2.10
   1  -1   3   30.80    2.50
   1  -1   3   31.70    2.60
   1  -1   3   31.60    2.20
  -2   1  -3   65.59    2.60
  -2   1  -3   68.99    4.20
  -2   1  -3   65.89    3.70
  -2   1  -3   66.59    3.50
  -2   1  -3   66.89    3.20
  -2   1  -3   72.59    4.00
  -2   1  -3   61.49    3.50
   2  -1   3   65.89    3.10
   2  -1   3   66.69    3.70
   2  -1   3   62.09    3.40
   2  -1   3   66.79    3.60
   2  -1   3   68.69    3.90
   2  -1   3   67.89    4.20
   2  -1   3   61.39    3.80
  -3   1  -3    4.00    1.30
  -3   1  -3    6.30    1.70
  -3   1  -3    4.00    1.30
  -3   1  -3    6.30    1.20
  -3   1  -3    5.80    1.20
  -3   1  -3    5.00    1.40
  -3   1  -3    6.30    1.40
  -3   1  -3    5.10    1.60
   3  -1   3    5.50    1.10
   3  -1   3    4.80    1.20
   3  -1   3    3.50    1.00
   3  -1   3    8.30    1.50
   3  -1   3    4.90    1.50
   3  -1   3   10.70    1.60
   3  -1   3    3.50    1.20
   3  -1   3    6.20    1.40
  -4   1  -3    4.70    1.40
  -4   1  -3    6.80    2.20
  -4   1  -3    8.00    1.60
  -4   1  -3    4.40    1.30
  -4   1  -3    6.50    1.60
  -4   1  -3    6.60    1.40
   4  -1   3    6.50    1.50
   4  -1   3    6.70    1.50
   4  -1   3    9.80    1.80
   4  -1   3    9.60    2.10
   4  -1   3    2.90    1.30
   4  -1   3    6.40    1.60
   4  -1   3    6.80    1.30
  -5   1  -3   58.69    4.30
  -5   1  -3   58.29    4.50
  -5   1  -3   55.39    4.00
  -5   1  -3   57.89    6.20
  -5   1  -3   55.39    4.20
  -5   1  -3   57.29    4.30
   5  -1   3   57.59    4.40
   5  -1   3   56.69    3.50
   5  -1   3   53.49    4.10
   5  -1   3   56.99    4.00
  -6   1  -3    2.70    2.10
  -6   1  -3    3.50    1.50
  -6   1  -3    4.40    1.90
  -6   1  -3    4.20    1.70
  -6   1  -3    5.60    1.90
   6  -1   3    5.50    1.90
   6  -1   3    5.80    2.00
   6  -1   3    5.10    1.40
   6  -1   3    2.00    1.10
  -7   1  -3   11.40    3.10
  -7   1  -3    8.70    2.70
  -7   1  -3    9.00    2.50
   7  -1   3    8.30    2.30
  -8   1  -3   -0.80    1.70
  -8   1  -3    1.10    2.20
  -8   1  -3    2.40    1.90
  -9   1  -3   16.50    4.50
  -9   1  -3   16.60    3.80
  -7   0   3    1.70    1.60
  -7   0   3    2.90    1.80
  -7   0   3    2.70    2.60
   6   0  -3    8.70    2.30
  -6   0   3    7.70    2.60
  -6   0   3    7.70    2.10
  -6   0   3    6.50    1.80
  -6   0   3    8.30    2.30
   5   0  -3    0.80    1.10
  -5   0   3    2.10    1.40
  -5   0   3   -0.10    0.80
  -5   0   3    0.80    1.30
  -5   0   3    1.10    0.90
  -5   0   3    2.00    1.20
   4   0  -3    7.70    1.60
  -4   0   3   10.60    1.90
  -4   0   3    8.20    1.60
  -4   0   3    9.70    2.10
  -4   0   3   10.70    1.70
  -4   0   3   10.90    1.70
  -4   0   3   10.60    1.90
   3   0  -3  111.89    3.90
   3   0  -3  113.49    4.90
  -3   0   3  119.99    4.80
  -3   0   3  101.79    4.50
  -3   0   3  120.99    5.50
  -3   0   3  116.69    4.40
  -3   0   3  112.09    4.90
  -3   0   3  118.19    4.40
   2   0  -3   33.40    1.60
  -2   0   3   27.70    2.00
  -2   0   3   31.80    1.80
  -2   0   3   29.70    1.90
  -2   0   3   28.00    1.90
  -2   0   3   27.90    1.70
  -2   0   3   29.10    2.30
   1   0  -3  456.85   11.10
   1   0  -3  458.95   10.70
   1   0  -3  467.75   10.70
  -1   0   3  450.45   11.50
  -1   0   3  443.86   11.60
  -1   0   3  452.75   12.90
  -1   0   3  469.95   11.40
  -1   0   3  459.45   11.30
  -1   0   3  425.76   11.40
  -1   0   3  465.35   11.50
   0   0  -3  196.38    5.60
   0   0  -3  196.58    5.60
   0   0  -3  187.38    5.60
   0   0  -3  200.58    5.60
   0   0  -3  195.98    6.50
   0   0   3  197.98    5.90
   0   0   3  198.08    5.70
   0   0   3  192.48    5.00
   0   0   3  195.58    5.70
   0   0   3  184.28    6.00
   0   0   3  189.28    6.60
  -1   0  -3  201.58    6.70
  -1   0  -3  190.98    6.00
  -1   0  -3  195.88    6.10
   1   0   3  205.08    6.40
   1   0   3  189.48    6.80
   1   0   3  191.48    5.80
   1   0   3  198.78    6.10
   1   0   3  189.38    7.50
   1   0   3  201.08    6.90
   1   0   3  211.08    6.30
   1   0   3  197.28    4.90
  -2   0  -3  162.58    5.00
  -2   0  -3  169.28    5.90
  -2   0  -3  165.38    6.00
  -2   0  -3  154.38    6.60
  -2   0  -3  158.68    6.20
  -2   0  -3  166.98    6.70
  -2   0  -3  167.28    5.80
  -2   0  -3  157.98    5.60
   2   0   3  177.68    6.20
   2   0   3  175.98    6.00
   2   0   3  162.78    6.60
   2   0   3  163.58    6.20
   2   0   3  161.48    4.90
   2   0   3  166.28    5.60
  -3   0  -3  109.79    5.70
  -3   0  -3   96.99    4.70
  -3   0  -3  104.99    4.30
  -3   0  -3  100.59    4.70
  -3   0  -3  101.19    4.70
  -3   0  -3  113.69    5.40
  -3   0  -3  108.99    5.30
  -3   0  -3  105.69    5.00
   3   0   3   99.79    4.20
   3   0   3  112.19    5.00
   3   0   3  105.69    4.70
   3   0   3  107.09    4.90
   3   0   3  108.29    5.10
   3   0   3  109.59    4.80
   3   0   3  108.59    5.30
   3   0   3  106.19    5.00
  -4   0  -3   33.10    3.60
  -4   0  -3   42.60    4.50
  -4   0  -3   31.00    2.60
  -4   0  -3   28.20    3.30
  -4   0  -3   33.00    3.50
  -4   0  -3   28.20    3.20
  -4   0  -3   32.00    2.80
   4   0   3   30.10    3.20
   4   0   3   34.70    2.90
   4   0   3   29.90    3.40
   4   0   3   30.20    2.60
   4   0   3   33.80    2.70
   4   0   3   28.40    2.40
   4   0   3   28.10    3.10
  -5   0  -3    6.30    1.70
  -5   0  -3    7.70    1.90
  -5   0  -3    7.60    2.20
  -5   0  -3    6.80    1.80
  -5   0  -3    4.00    1.50
   5   0   3    9.10    1.90
   5   0   3    7.90    2.00
   5   0   3    7.70    1.80
   5   0   3    3.60    1.10
  -6   0  -3    0.00    1.00
  -6   0  -3    0.20    1.00
  -6   0  -3    0.10    1.20
  -6   0  -3   -1.30    1.40
  -6   0  -3   -0.10    1.10
   6   0   3    2.30    1.10
   6   0   3    0.80    1.00
   6   0   3    1.10    1.00
   6   0   3    0.80    1.10
  -7   0  -3    8.70    2.40
  -7   0  -3   12.50    3.00
  -7   0  -3    6.50    2.20
   7   0   3   11.10    2.20
  -8   0  -3   -1.00    1.90
  -8   0  -3    2.70    2.20
  -8   0  -3   -2.10    1.40
   8   0   3   -1.30    1.10
  -9   0  -3   40.90    6.20
  -9   0  -3   36.90    5.50
  -9   0  -3   35.90    5.70
  -7   1   3   32.80    3.90
  -7   1   3   39.40    5.60
  -7   1   3   32.30    4.30
  -6   1   3    5.70    1.90
  -6   1   3   17.30    2.50
  -6   1   3   12.40    2.70
  -6   1   3   14.20    3.40
   5  -1  -3  125.29    6.70
  -5   1   3  116.39    5.30
  -5   1   3  131.59    7.50
  -5   1   3  129.19    6.90
  -5   1   3  129.19    6.10
  -5   1   3  114.89    5.80
   4  -1  -3   16.60    1.20
   4  -1  -3   15.20    1.20
   4  -1  -3   13.10    2.20
  -4   1   3   19.00    2.00
  -4   1   3   17.40    2.10
  -4   1   3   15.50    2.60
  -4   1   3   17.20    1.90
  -4   1   3   15.00    2.50
   3  -1  -3  105.49    5.00
  -3   1   3  113.69    5.20
  -3   1   3  108.09    3.90
  -3   1   3  111.79    4.10
  -3   1   3  106.29    5.40
  -3   1   3   96.89    4.00
  -3   1   3  109.89    3.80
  -2   1   3  139.79    4.10
  -2   1   3  129.29    5.40
  -2   1   3  134.19    5.30
  -2   1   3  134.79    3.90
  -2   1   3  131.09    4.00
  -2   1   3  136.59    3.90
  -1   1   3   12.40    0.70
  -1   1   3   12.00    0.70
  -1   1   3   14.50    0.80
  -1   1   3   17.90    1.50
   0  -1  -3  263.97    6.50
   0   1   3  243.88    7.00
   0   1   3  271.17    6.80
   0   1   3  274.17    6.80
   0   1   3  266.67    6.70
   0   1   3  259.87    7.90
  -1  -1  -3  111.09    3.70
  -1  -1  -3  108.09    3.80
  -1  -1  -3  104.79    5.10
  -1  -1  -3  111.79    3.80
  -1  -1  -3  103.99    4.10
  -1  -1  -3  109.29    4.20
   1   1   3  104.29    3.60
   1   1   3  110.09    4.30
   1   1   3  107.99    4.20
   1   1   3  106.99    5.20
   1   1   3  109.89    3.80
   1   1   3  106.59    3.90
   1   1   3  103.59    3.70
  -2  -1  -3  100.69    4.00
  -2  -1  -3  102.69    4.70
  -2  -1  -3   96.19    4.30
  -2  -1  -3   94.89    4.00
  -2  -1  -3   99.99    3.80
  -2  -1  -3   99.59    4.20
  -2  -1  -3   99.99    5.00
   2   1   3   97.59    3.70
   2   1   3   94.79    4.10
   2   1   3   99.39    4.10
   2   1   3   97.49    4.10
   2   1   3   94.19    4.30
   2   1   3  100.69    4.90
   2   1   3   90.79    3.90
   2   1   3  104.79    4.30
  -3  -1  -3  235.58    8.10
  -3  -1  -3  220.08    7.70
  -3  -1  -3  239.58    8.90
  -3  -1  -3  217.68    7.40
  -3  -1  -3  242.28    8.70
  -3  -1  -3  226.78    7.90
  -3  -1  -3  226.48    7.70
  -3  -1  -3  215.28    7.90
   3   1   3  233.88    7.40
   3   1   3  229.68    7.70
   3   1   3  217.58    7.50
   3   1   3  230.98    7.80
   3   1   3  225.68    7.80
   3   1   3  234.48    8.10
   3   1   3  225.08    8.20
   3   1   3  220.68    8.00
  -4  -1  -3   -0.40    0.70
  -4  -1  -3   -0.20    0.80
  -4  -1  -3   -0.50    0.60
  -4  -1  -3    0.40    0.60
  -4  -1  -3    0.40    0.80
  -4  -1  -3   -0.40    0.50
  -4  -1  -3    0.10    0.80
   4   1   3    0.70    0.70
   4   1   3   -0.40    0.50
   4   1   3    0.50    0.70
   4   1   3    1.10    0.80
   4   1   3    0.10    0.50
   4   1   3   -0.20    0.70
  -5  -1  -3    0.80    0.90
  -5  -1  -3    0.40    1.00
  -5  -1  -3    0.80    0.90
  -5  -1  -3   -0.10    0.80
  -5  -1  -3   -0.40    0.70
   5   1   3    1.10    0.80
   5   1   3    0.50    0.80
   5   1   3   -0.30    0.60
   5   1   3    0.60    0.70
  -6  -1  -3  129.09    7.00
  -6  -1  -3  123.49    7.20
  -6  -1  -3  128.69    8.10
  -6  -1  -3  125.19    6.90
  -6  -1  -3  137.99    7.40
   6   1   3  121.39    6.90
   6   1   3  137.19    6.70
   6   1   3  139.99    7.20
   6   1   3  127.99    6.70
  -7  -1  -3   10.90    2.50
  -7  -1  -3   12.30    2.90
  -7  -1  -3   15.30    3.10
   7   1   3    9.80    2.20
   7   1   3   13.00    2.60
  -8  -1  -3  143.09    9.30
  -8  -1  -3  159.48    9.40
  -8  -1  -3  122.69    8.20
   8   1   3  141.99    8.10
  -9  -1  -3   21.20    4.40
  -9  -1  -3   13.20    4.10
  -9  -1  -3   21.80    4.80
  -7   2   3    6.40    2.10
  -7   2   3    9.70    2.10
  -7   2   3    9.70    3.70
  -6   2   3    0.50    1.10
  -6   2   3    2.20    1.10
  -6   2   3    0.50    1.90
   5  -2  -3   84.99    5.80
  -5   2   3   95.09    6.50
  -5   2   3   99.29    6.30
  -5   2   3   95.89    5.50
  -5   2   3   97.59    4.50
  -5   2   3   88.29    4.80
   4  -2  -3    3.00    1.20
  -4   2   3    1.70    0.70
  -4   2   3   -0.10    1.20
  -4   2   3    2.10    0.90
  -4   2   3    4.10    1.50
  -4   2   3    2.60    0.80
  -4   2   3    2.00    1.00
   3  -2  -3    0.30    0.80
  -3   2   3    4.20    1.30
  -3   2   3    2.10    1.20
  -3   2   3    1.70    0.60
  -3   2   3    2.00    0.70
  -3   2   3    2.10    0.60
  -3   2   3    1.70    0.70
  -2   2   3    9.10    1.70
  -2   2   3   10.10    1.70
  -2   2   3   10.00    0.80
  -2   2   3   11.40    0.90
  -1   2   3    9.50    1.50
   0  -2  -3 1876.61   40.80
   0  -2  -3 1802.02   40.70
   0   2   3 1824.92   41.00
   0   2   3 1872.01   44.40
   0   2   3 1860.01   41.30
   0   2   3 1803.72   41.10
   0   2   3 1834.12   42.10
   0   2   3 1901.11   41.10
  -1  -2  -3  298.17   10.20
  -1  -2  -3  296.57    8.20
  -1  -2  -3  291.77    8.00
  -1  -2  -3  296.87    8.10
  -1  -2  -3  293.87    8.40
  -1  -2  -3  292.67    8.20
   1   2   3  306.37    8.40
   1   2   3  298.47    8.40
   1   2   3  307.27   10.10
   1   2   3  307.17    8.20
   1   2   3  294.17    8.30
  -2  -2  -3  800.12   20.40
  -2  -2  -3  798.72   21.80
  -2  -2  -3  790.22   19.80
  -2  -2  -3  828.42   20.00
  -2  -2  -3  803.22   20.00
  -2  -2  -3  810.52   20.40
  -2  -2  -3  790.92   20.00
   2   2   3  794.62   21.40
   2   2   3  833.72   20.20
   2   2   3  812.92   20.00
   2   2   3  805.22   19.70
   2   2   3  783.92   20.30
   2   2   3  790.22   20.20
  -3  -2  -3   62.39    3.50
  -3  -2  -3   55.49    4.00
  -3  -2  -3   63.59    3.70
  -3  -2  -3   55.39    3.40
  -3  -2  -3   64.09    3.40
  -3  -2  -3   57.99    3.50
  -3  -2  -3   61.19    3.80
   3   2   3   59.39    3.70
   3   2   3   59.19    3.40
   3   2   3   61.39    3.60
   3   2   3   64.89    3.70
   3   2   3   60.29    3.20
   3   2   3   64.49    3.80
   3   2   3   68.29    3.70
  -4  -2  -3   67.89    4.70
  -4  -2  -3   59.19    4.10
  -4  -2  -3   58.49    4.10
  -4  -2  -3   52.89    3.70
  -4  -2  -3   58.29    3.80
   4   2   3   50.99    3.70
   4   2   3   58.69    3.90
   4   2   3   56.39    3.60
   4   2   3   53.59    3.70
   4   2   3   53.09    3.80
  -5  -2  -3  105.99    6.10
  -5  -2  -3  104.19    5.80
  -5  -2  -3  119.89    6.70
  -5  -2  -3  108.59    5.90
  -5  -2  -3  105.39    5.90
   5   2   3  112.49    5.80
   5   2   3  105.69    5.70
   5   2   3  106.19    5.80
   5   2   3  106.99    5.90
  -6  -2  -3  239.88   10.30
  -6  -2  -3  232.98   10.10
  -6  -2  -3  234.88   10.10
  -6  -2  -3  244.58   11.20
  -6  -2  -3  220.88   10.30
   6   2   3  230.28    9.90
   6   2   3  242.18    9.90
   6   2   3  231.68   10.00
   6   2   3  236.68    9.70
  -7  -2  -3   56.09    7.30
  -7  -2  -3   37.70    4.60
  -7  -2  -3   35.00    4.90
  -7  -2  -3   41.60    5.30
   7   2   3   39.30    4.60
   7   2   3   46.80    5.20
  -8  -2  -3    6.30    2.40
  -8  -2  -3    3.30    2.70
  -8  -2  -3    5.10    2.40
   8   2   3    4.50    1.90
  -9  -2  -3   37.70    6.10
  -9  -2  -3   17.90    4.30
  -9  -2  -3   19.20    4.00
  -7   3   3   91.79    6.20
  -7   3   3  102.39    8.60
  -7   3   3   94.99    5.60
  -6   3   3    0.60    1.20
  -6   3   3    2.90    2.30
  -6   3   3    4.50    1.40
  -5   3   3   85.99    6.20
  -5   3   3   67.99    4.30
  -5   3   3   78.59    5.30
  -5   3   3   74.79    4.00
  -5   3   3   83.49    6.30
   4  -3  -3    0.20    1.10
  -4   3   3    0.40    0.70
  -4   3   3    0.20    0.50
  -4   3   3    0.10    1.20
  -4   3   3   -0.90    0.90
  -4   3   3    0.00    0.60
  -4   3   3   -0.30    1.10
  -3   3   3  154.48    5.40
  -3   3   3  177.98    6.30
  -3   3   3  167.78    7.60
  -3   3   3  162.68    5.20
  -3   3   3  159.58    5.20
  -3   3   3  170.78    7.60
  -2   3   3  583.14   14.40
  -2   3   3  584.84   16.70
  -2   3   3  578.74   13.60
  -2   3   3  540.95   13.80
  -2   3   3  550.84   13.60
  -2   3   3  578.04   16.80
  -1   3   3  168.08    4.90
  -1   3   3  177.18    7.20
  -1   3   3  179.48    5.10
  -1   3   3  167.48    4.80
  -1   3   3  155.88    6.50
  -1   3   3  177.08    4.80
   0  -3  -3  848.92   22.60
   0  -3  -3  824.92   19.50
   0  -3  -3  885.81   19.80
   0   3   3  843.22   20.10
   0   3   3  845.92   20.10
   0   3   3  841.32   22.60
   0   3   3  875.21   20.50
   0   3   3  871.01   20.20
   0   3   3  829.42   20.20
  -1  -3  -3  148.59    5.00
  -1  -3  -3  145.59    5.00
  -1  -3  -3  140.39    5.10
  -1  -3  -3  149.88    4.30
  -1  -3  -3  156.48    6.70
   1   3   3  152.08    5.20
   1   3   3  146.49    5.40
   1   3   3  156.78    5.20
   1   3   3  150.58    4.50
   1   3   3  143.19    6.20
   1   3   3  144.89    5.20
  -2  -3  -3    0.70    0.90
  -2  -3  -3    2.50    0.90
  -2  -3  -3    2.00    0.90
  -2  -3  -3    1.50    0.70
  -2  -3  -3    3.20    1.00
  -2  -3  -3    2.40    0.90
   2   3   3    0.20    0.70
   2   3   3    1.20    0.90
   2   3   3    1.40    0.60
   2   3   3    0.30    0.60
   2   3   3    1.60    1.00
   2   3   3    1.80    0.80
   2   3   3    0.60    0.70
  -3  -3  -3    2.30    0.90
  -3  -3  -3    1.90    1.00
  -3  -3  -3    3.20    0.90
  -3  -3  -3    3.30    1.10
  -3  -3  -3    1.60    0.90
  -3  -3  -3    1.80    1.10
   3   3   3    3.60    1.20
   3   3   3    2.90    1.00
   3   3   3    1.50    0.70
   3   3   3    2.10    1.00
   3   3   3    2.60    1.10
   3   3   3    2.00    0.80
   3   3   3    2.70    1.00
  -4  -3  -3    3.20    1.20
  -4  -3  -3    3.50    1.40
  -4  -3  -3    2.30    1.20
  -4  -3  -3    3.60    1.20
  -4  -3  -3    3.50    1.40
   4   3   3    1.30    0.90
   4   3   3    2.10    1.00
   4   3   3    2.20    1.00
   4   3   3    3.00    1.20
   4   3   3    3.90    1.20
  -5  -3  -3   29.10    3.80
  -5  -3  -3   30.30    3.70
  -5  -3  -3   27.90    3.70
  -5  -3  -3   31.90    3.80
   5   3   3   32.70    3.70
   5   3   3   26.70    3.40
   5   3   3   26.40    3.30
   5   3   3   22.60    2.80
  -6  -3  -3  175.98    8.70
  -6  -3  -3  177.68    9.20
  -6  -3  -3  166.48    8.40
  -6  -3  -3  184.78    9.50
   6   3   3  182.68    8.50
   6   3   3  172.78    8.60
   6   3   3  182.38    8.40
   6   3   3  149.49    8.00
  -7  -3  -3   30.70    4.50
  -7  -3  -3   23.50    4.20
  -7  -3  -3   27.30    4.30
   7   3   3   28.70    3.80
   7   3   3   34.80    4.30
  -8  -3  -3    8.20    3.20
  -8  -3  -3    9.40    2.80
  -8  -3  -3    2.50    2.40
   8   3   3    7.50    2.20
  -9  -3  -3    8.20    2.90
  -9  -3  -3   10.20    3.80
  -9  -3  -3   15.20    4.20
  -6   4   3   48.10    4.20
  -6   4   3   47.30    3.70
  -6   4   3   55.79    6.80
  -5   4   3   45.10    4.90
  -5   4   3   40.90    3.40
  -5   4   3   41.00    3.10
  -5   4   3   45.40    5.70
  -4   4   3   17.10    3.10
  -4   4   3   17.30    3.40
  -4   4   3   12.20    1.70
  -4   4   3   12.10    2.30
  -4   4   3   14.70    2.70
  -4   4   3   10.00    1.80
  -3   4   3  171.78    8.00
  -3   4   3  156.38    5.40
  -3   4   3  164.38    6.50
  -3   4   3  153.48    7.00
  -3   4   3  144.79    5.70
  -3   4   3  144.69    5.30
   2  -4  -3    1.10    0.40
   2  -4  -3    2.00    0.50
  -2   4   3    1.20    1.00
  -2   4   3    2.00    1.10
  -2   4   3    1.70    0.60
  -2   4   3    1.20    0.60
  -2   4   3    1.30    0.80
  -2   4   3    1.90    0.70
   1  -4  -3  115.79    3.80
  -1   4   3  124.09    5.90
  -1   4   3  116.59    4.30
  -1   4   3  125.59    5.70
  -1   4   3  110.59    4.40
  -1   4   3  120.59    4.30
  -1   4   3  121.99    4.70
   0  -4  -3  518.55   15.30
   0  -4  -3  501.45   13.00
   0  -4  -3  511.45   13.40
   0  -4  -3  516.45   13.10
   0   4   3  532.65   13.50
   0   4   3  502.85   14.80
   0   4   3  495.75   13.60
   0   4   3  504.95   12.30
   0   4   3  516.85   13.80
   0   4   3  496.95   13.40
  -1  -4  -3  550.04   16.50
  -1  -4  -3  535.15   14.40
  -1  -4  -3  547.25   14.50
  -1  -4  -3  551.54   14.50
  -1  -4  -3  557.14   14.80
   1   4   3  546.55   15.10
   1   4   3  523.95   14.90
   1   4   3  567.74   14.80
   1   4   3  540.85   14.70
   1   4   3  529.45   15.60
  -2  -4  -3   20.40    2.50
  -2  -4  -3   21.20    2.50
  -2  -4  -3   20.50    2.50
  -2  -4  -3   23.50    1.50
  -2  -4  -3   20.70    2.90
   2   4   3   21.60    2.60
   2   4   3   20.60    2.60
   2   4   3   20.60    2.60
   2   4   3   25.00    2.60
   2   4   3   20.20    2.30
  -3  -4  -3  115.89    5.70
  -3  -4  -3  110.99    5.50
  -3  -4  -3  126.09    6.10
  -3  -4  -3  119.29    5.70
  -3  -4  -3  112.89    4.50
   3   4   3  121.99    6.00
   3   4   3  112.79    5.70
   3   4   3  125.69    5.70
   3   4   3  117.89    5.90
   3   4   3  119.09    5.60
  -4  -4  -3  145.29    7.00
  -4  -4  -3  156.98    7.00
  -4  -4  -3  150.28    7.20
  -4  -4  -3  155.08    6.10
  -4  -4  -3  149.59    7.30
   4   4   3  155.78    7.40
   4   4   3  146.29    6.80
   4   4   3  140.89    7.00
   4   4   3  141.09    6.70
   4   4   3  141.79    7.00
  -5  -4  -3  153.98    7.70
  -5  -4  -3  158.18    8.00
  -5  -4  -3  172.78    8.40
  -5  -4  -3  165.78    8.40
   5   4   3  164.38    8.00
   5   4   3  168.98    7.80
   5   4   3  160.18    8.00
   5   4   3  162.68    7.70
  -6  -4  -3   27.10    4.50
  -6  -4  -3   17.30    3.30
  -6  -4  -3   12.00    2.50
  -6  -4  -3   16.60    3.50
   6   4   3   15.50    2.80
   6   4   3   20.00    3.40
   6   4   3   14.80    3.00
   6   4   3   15.10    2.80
  -7  -4  -3    3.10    2.10
  -7  -4  -3    5.10    2.30
  -7  -4  -3    2.50    1.40
   7   4   3    7.20    2.20
   7   4   3    2.10    1.40
  -8  -4  -3    6.30    3.00
  -8  -4  -3    5.30    2.60
  -8  -4  -3    4.20    2.40
   8   4   3    7.50    2.60
  -6   5   3   32.30    5.60
  -6   5   3   35.90    3.70
  -6   5   3   34.90    4.30
  -5   5   3    0.90    1.20
  -5   5   3    1.60    2.00
  -5   5   3    0.50    1.00
  -4   5   3   27.10    3.10
  -4   5   3   27.00    3.60
  -4   5   3   43.20    5.40
  -4   5   3   36.40    4.70
  -4   5   3   31.50    2.70
   3  -5  -3   78.39    3.20
  -3   5   3   75.19    3.90
  -3   5   3   75.29    4.30
  -3   5   3   74.69    5.50
  -3   5   3   68.49    4.10
  -3   5   3   84.19    4.80
  -3   5   3   76.29    3.90
  -2   5   3  648.24   17.00
  -2   5   3  631.64   17.50
  -2   5   3  645.94   19.70
  -2   5   3  667.73   18.00
  -2   5   3  654.83   17.70
  -2   5   3  648.94   17.00
   1  -5  -3  134.59    5.20
   1  -5  -3  129.19    4.80
  -1   5   3  126.99    5.40
  -1   5   3  131.79    5.20
  -1   5   3  136.99    5.70
  -1   5   3  130.79    5.60
  -1   5   3  133.39    6.60
  -1   5   3  130.99    4.50
  -1   5   3  134.09    5.30
   0  -5  -3  156.18    7.10
   0  -5  -3  158.28    6.20
   0  -5  -3  156.58    5.70
   0   5   3  149.09    5.90
   0   5   3  165.68    6.50
   0   5   3  173.18    6.20
   0   5   3  145.89    6.20
   0   5   3  156.68    6.30
  -1  -5  -3    2.80    1.00
  -1  -5  -3    0.60    0.60
  -1  -5  -3   -0.60    0.80
   1   5   3    1.40    0.90
   1   5   3    3.40    1.10
   1   5   3    1.20    0.70
   1   5   3    3.80    1.20
   1   5   3    1.10    0.80
  -2  -5  -3  107.29    5.20
  -2  -5  -3  106.79    5.50
   2   5   3  110.79    5.70
   2   5   3   98.79    5.20
   2   5   3  123.19    5.70
   2   5   3  116.89    5.70
   2   5   3  110.39    5.80
  -3  -5  -3  216.88    6.80
  -3  -5  -3  220.48    9.10
  -3  -5  -3  222.48    8.60
   3   5   3  229.78    8.80
   3   5   3  214.68    9.10
   3   5   3  217.38    8.90
   3   5   3  232.08    9.50
  -4  -5  -3  100.49    5.90
  -4  -5  -3  106.09    6.30
  -4  -5  -3   92.19    5.60
  -4  -5  -3   91.39    4.50
   4   5   3   98.19    6.00
   4   5   3   93.99    5.90
   4   5   3   93.09    5.40
   4   5   3   93.09    5.70
   4   5   3   87.19    5.40
  -5  -5  -3    0.50    1.00
  -5  -5  -3   -0.40    1.10
  -5  -5  -3    1.70    1.40
   5   5   3   -0.10    0.80
   5   5   3    0.00    1.00
   5   5   3    0.20    0.90
   5   5   3    1.10    1.10
  -6  -5  -3   77.69    5.90
  -6  -5  -3   87.79    6.70
  -6  -5  -3   77.59    6.30
   6   5   3   88.49    6.30
   6   5   3   90.49    6.50
   6   5   3   78.89    5.80
   6   5   3   87.69    5.90
  -7  -5  -3    1.10    1.40
  -7  -5  -3   -1.10    1.60
  -7  -5  -3    0.20    1.90
   7   5   3   -0.20    1.10
  -8  -5  -3   49.10    6.00
  -8  -5  -3   36.20    6.10
  -8  -5  -3   53.79    6.80
   8   5   3   44.40    5.50
  -6   6   3    0.20    1.60
  -6   6   3    1.40    1.50
  -5   6   3   74.39    7.70
  -5   6   3   65.89    5.10
  -5   6   3   77.59    4.80
  -4   6   3   54.69    3.80
  -4   6   3   35.50    3.90
  -4   6   3   39.40    5.30
  -3   6   3   -0.20    0.90
  -3   6   3    1.30    1.10
  -3   6   3    1.60    1.40
  -3   6   3   -1.10    1.50
   2  -6  -3   -0.20    0.50
  -2   6   3   -0.70    1.00
  -2   6   3    0.80    1.20
  -2   6   3    0.20    0.80
  -2   6   3    0.40    0.90
  -2   6   3    0.30    0.90
  -2   6   3    0.90    0.80
  -2   6   3    0.70    0.80
   1  -6  -3   98.09    4.60
   1  -6  -3  101.39    5.20
  -1   6   3  107.49    5.60
  -1   6   3   91.89    5.10
  -1   6   3   99.49    6.10
  -1   6   3  100.69    3.80
  -1   6   3  103.39    5.00
  -1   6   3   96.59    4.90
  -1   6   3  105.69    4.70
   0  -6  -3   29.10    2.50
   0  -6  -3   30.90    3.70
   0  -6  -3   30.10    3.30
   0   6   3   27.20    3.00
   0   6   3   28.10    3.20
   0   6   3   29.90    3.30
   0   6   3   25.10    2.80
   0   6   3   25.40    2.90
  -1  -6  -3   18.80    2.70
  -1  -6  -3   19.60    2.50
   1   6   3   21.70    2.90
   1   6   3   23.90    2.80
   1   6   3   20.10    2.60
   1   6   3   24.30    3.00
   1   6   3   26.00    3.40
  -2  -6  -3   49.30    3.90
  -2  -6  -3   44.20    3.50
   2   6   3   55.19    4.60
   2   6   3   51.69    3.80
   2   6   3   47.40    3.70
   2   6   3   47.50    4.10
   2   6   3   49.30    4.00
  -3  -6  -3  344.97   12.50
  -3  -6  -3  338.17   12.00
  -3  -6  -3  329.47    9.10
   3   6   3  348.67   12.90
   3   6   3  326.17   11.90
   3   6   3  329.67   12.10
   3   6   3  320.87   12.40
  -4  -6  -3  136.19    7.20
  -4  -6  -3  134.09    5.50
  -4  -6  -3  138.59    7.80
   4   6   3  136.59    7.40
   4   6   3  143.89    8.00
   4   6   3  137.59    7.30
   4   6   3  134.89    7.60
  -5  -6  -3  171.28    9.20
  -5  -6  -3  161.18    8.70
  -5  -6  -3  143.49    8.00
   5   6   3  158.98    8.40
   5   6   3  149.79    8.30
   5   6   3  171.88    8.30
   5   6   3  144.09    8.40
  -6  -6  -3   38.90    5.50
  -6  -6  -3   35.40    5.20
  -6  -6  -3   36.00    4.90
   6   6   3   34.50    4.70
   6   6   3   26.00    5.10
   6   6   3   28.80    4.40
  -7  -6  -3    1.90    1.60
  -7  -6  -3    0.60    2.00
  -7  -6  -3    3.00    2.40
   7   6   3    0.40    1.50
  -8  -6  -3    0.80    1.80
  -8  -6  -3   -3.70    2.10
   8   6   3    0.80    1.80
  -5   7   3   26.20    3.50
  -5   7   3   34.60    5.90
  -5   7   3   30.70    4.20
  -4   7   3   39.90    5.80
  -4   7   3   30.10    4.00
  -4   7   3   28.20    3.50
  -3   7   3   -0.20    1.00
  -3   7   3    0.60    1.10
  -2   7   3   56.79    4.20
  -2   7   3   36.10    4.10
  -2   7   3   43.60    3.60
   1  -7  -3   14.90    2.30
  -1   7   3   10.40    1.70
  -1   7   3   10.40    2.20
  -1   7   3   10.80    2.30
  -1   7   3   12.70    3.40
  -1   7   3   10.50    2.60
  -1   7   3    8.40    2.00
   0  -7  -3   52.99    3.70
   0  -7  -3   58.19    4.80
   0  -7  -3   57.89    4.40
   0   7   3   57.39    4.50
   0   7   3   60.39    4.70
   0   7   3   59.89    4.80
   0   7   3   59.39    3.70
   0   7   3   60.69    4.20
   0   7   3   60.89    4.40
  -1  -7  -3  218.48    9.50
  -1  -7  -3  223.18    8.90
   1   7   3  217.28    9.10
   1   7   3  225.28    9.80
   1   7   3  237.78   10.10
   1   7   3  225.08    8.70
  -2  -7  -3   21.60    3.30
  -2  -7  -3   19.40    2.90
   2   7   3   21.90    3.10
   2   7   3   28.90    4.20
   2   7   3   15.00    2.60
   2   7   3   24.70    3.80
  -3  -7  -3  321.07    8.80
  -3  -7  -3  268.27   10.80
  -3  -7  -3  256.97    7.10
  -3  -7  -3  251.77   11.10
   3   7   3  269.37   11.10
   3   7   3  240.78   11.20
   3   7   3  266.17   10.90
   3   7   3  248.68   11.40
  -4  -7  -3  145.59    8.00
  -4  -7  -3  158.38    8.70
   4   7   3  143.29    8.40
   4   7   3  151.08    8.20
   4   7   3  155.68    8.30
  -5  -7  -3    1.10    1.70
  -5  -7  -3   -0.20    1.20
   5   7   3    0.10    1.30
   5   7   3    0.00    1.10
   5   7   3    1.30    2.00
   5   7   3    1.50    1.50
  -6  -7  -3   35.00    4.90
  -6  -7  -3   29.50    5.00
   6   7   3   36.70    5.10
  -7  -7  -3    2.40    2.30
  -7  -7  -3    0.00    1.60
   7   7   3    0.50    1.80
  -4   8   3    5.30    2.10
  -4   8   3    7.30    2.40
  -3   8   3    4.90    1.70
  -3   8   3    3.50    1.80
  -2   8   3   25.10    3.50
  -2   8   3   24.70    3.70
  -1   8   3    0.30    1.00
  -1   8   3    0.00    1.00
  -1   8   3    0.90    1.30
   0  -8  -3   53.59    4.20
   0   8   3   53.39    4.50
   0   8   3   46.30    5.10
   0   8   3   47.10    5.10
   0   8   3   54.99    3.80
  -1  -8  -3   23.90    3.20
   1   8   3   18.30    3.30
   1   8   3   24.90    4.00
   1   8   3   26.10    3.20
  -2  -8  -3   63.29    4.90
   2   8   3   63.19    4.80
   2   8   3   66.09    5.60
   2   8   3   56.09    4.90
  -3  -8  -3   36.40    4.50
   3   8   3   40.10    4.90
   3   8   3   55.09    6.40
   3   8   3   43.10    4.90
  -4  -8  -3   44.90    5.10
   4   8   3   43.80    5.10
   4   8   3   56.79    6.10
   4   8   3   57.69    6.40
  -5  -8  -3   18.80    3.70
   5   8   3   21.10    4.20
   5   8   3   18.70    3.80
  -6  -8  -3   12.30    3.30
   6   8   3   18.70    3.80
  -7  -8  -3    1.00    2.00
   7   8   3    2.20    2.10
  -3   9   3   -1.10    1.30
  -3   9   3    2.50    1.90
  -2   9   3    0.40    1.40
  -2   9   3    3.70    2.10
  -1   9   3    3.00    1.90
  -1   9   3    2.20    1.70
   0   9   3    4.90    2.20
   0   9   3    4.60    1.90
  -1  -9  -3   21.50    3.50
   1   9   3   20.60    3.60
   1   9   3   25.20    4.30
   1   9   3   24.90    3.40
  -2  -9  -3    2.20    1.60
   2   9   3    8.60    2.80
   2   9   3    2.30    1.90
   2   9   3    2.50    1.50
  -3  -9  -3   12.90    2.90
   3   9   3   20.40    4.00
   3   9   3   16.00    3.80
  -4  -9  -3   -0.20    1.30
   4   9   3    1.40    1.70
   4   9   3    0.10    1.60
  -5  -9  -3    6.20    2.40
   5   9   3    8.10    2.90
  -6  -9  -3    0.50    1.70
   6   9   3    2.50    2.10
  -2  10   3    1.90    2.00
  -2  10   3    4.70    2.30
  -1  10   3    2.70    2.10
  -1  10   3    2.90    2.10
   0  10   3    5.00    2.20
   0  10   3    2.80    2.00
   1  10   3   15.80    3.90
   1  10   3   13.60    3.80
  -2 -10  -3    0.30    1.50
   2  10   3   -0.10    1.80
   2  10   3    0.70    1.60
  -3 -10  -3   20.10    4.10
   3  10   3   19.40    4.40
   3  10   3   17.50    4.10
  -4 -10  -3   11.80    3.50
   4  10   3    8.30    3.20
   1  11   3   31.10    5.60
   2   8  -4    0.20    2.00
  -2  -8   4    2.00    2.20
  -2  -8   4    1.90    1.90
  -2  -8   4    1.80    2.60
   1   8  -4   -0.90    1.90
  -1  -8   4   -0.90    1.20
  -1  -8   4    0.80    1.80
   0   8  -4    1.90    1.90
   0  -8   4    1.60    1.70
   0  -8   4    1.60    2.00
  -1   8  -4   21.30    4.00
   1  -8   4   34.10    5.20
   1  -8   4   24.90    4.20
  -2   8  -4    3.90    2.40
   2  -8   4    4.10    2.20
   2  -8   4    6.90    2.60
  -3   8  -4   -0.30    1.90
   3  -8   4   -0.80    1.60
   3  -8   4    1.70    1.90
  -4   8  -4    8.50    3.10
   4  -8   4   15.10    3.60
   4  -8   4   13.00    3.70
  -3  -7   4   23.40    4.20
  -3  -7   4   28.80    4.90
  -3  -7   4   29.50    5.50
   2   7  -4    2.90    2.10
  -2  -7   4    4.00    2.10
  -2  -7   4   11.40    3.30
  -2  -7   4    4.50    2.70
   1   7  -4    0.80    1.60
  -1  -7   4    2.20    1.90
  -1  -7   4    0.90    1.80
  -1  -7   4    0.80    1.40
   0   7  -4   21.80    3.90
   0  -7   4   23.60    5.00
   0  -7   4   16.50    3.40
   0  -7   4   11.20    3.00
  -1   7  -4   25.50    4.50
   1  -7   4   30.90    5.70
   1  -7   4   24.90    4.30
   1  -7   4   16.30    3.50
  -2   7  -4   17.70    3.70
   2  -7   4   18.30    3.50
   2  -7   4   19.00    3.70
  -3   7  -4   56.79    6.60
  -3   7  -4   52.79    5.70
   3  -7   4   50.19    5.70
   3  -7   4   45.00    5.40
  -4   7  -4   23.20    5.00
  -4   7  -4   21.30    4.20
  -4   7  -4   21.80    3.90
   4  -7   4   23.40    4.10
   4  -7   4   25.10    4.40
  -5   7  -4    6.10    3.40
  -5   7  -4    1.00    2.00
  -5   7  -4    7.00    3.60
   5  -7   4    2.70    1.90
   5  -7   4    0.90    1.80
  -4  -6   4   15.30    3.50
  -4  -6   4    7.80    2.80
  -4  -6   4   12.50    3.70
   3   6  -4    1.40    1.90
  -3  -6   4   -0.40    1.30
  -3  -6   4   -0.80    1.40
  -3  -6   4   -0.60    1.10
   2   6  -4   12.60    2.80
  -2  -6   4   10.10    2.80
  -2  -6   4   14.30    3.10
  -2  -6   4   15.70    3.70
   1   6  -4   41.80    5.10
  -1  -6   4   34.90    5.30
  -1  -6   4   44.00    5.20
  -1  -6   4   39.10    5.10
   0   6  -4   78.59    5.90
   0  -6   4   86.59    6.00
   0  -6   4   90.79    6.40
   0  -6   4   71.59    6.70
  -1   6  -4  153.38    8.80
  -1   6  -4  155.18    6.80
  -1   6  -4  146.59    8.30
   1  -6   4  157.18    8.50
   1  -6   4  150.58    9.80
   1  -6   4  151.68    8.30
  -2   6  -4    9.90    2.00
  -2   6  -4   12.40    3.00
  -2   6  -4    8.70    2.40
   2  -6   4    8.90    2.60
   2  -6   4   12.00    3.50
   2  -6   4    5.80    2.10
  -3   6  -4   21.50    2.90
  -3   6  -4   10.50    2.70
  -3   6  -4   17.00    3.50
  -3   6  -4   18.50    2.80
   3  -6   4   18.60    3.30
   3  -6   4   20.70    3.50
   3  -6   4   10.70    5.10
   3  -6   4   17.10    2.80
  -4   6  -4    4.80    1.80
  -4   6  -4    2.20    1.70
  -4   6  -4    5.00    2.20
  -4   6  -4    3.80    1.70
   4  -6   4    1.00    1.40
   4  -6   4    0.40    1.20
   4  -6   4   -0.40    1.40
  -5   6  -4   49.00    6.20
  -5   6  -4   42.40    5.90
  -5   6  -4   49.80    5.30
   5  -6   4   44.60    5.40
   5  -6   4   35.50    4.90
  -6   6  -4   11.90    3.50
  -6   6  -4   17.00    3.60
  -6   6  -4   12.20    3.90
   6  -6   4   10.20    3.10
  -5  -5   4   22.40    4.40
  -5  -5   4   34.10    4.80
  -5  -5   4   20.10    4.10
  -4  -5   4   21.50    4.40
  -4  -5   4   20.10    3.50
  -4  -5   4   19.90    4.00
  -4  -5   4   22.70    3.80
   3   5  -4   43.40    5.00
  -3  -5   4   40.00    5.20
  -3  -5   4   33.60    4.70
  -3  -5   4   38.50    4.50
   2   5  -4  302.67   12.00
  -2  -5   4  302.87   12.10
  -2  -5   4  321.67   13.10
  -2  -5   4  305.07   13.40
   1   5  -4    1.20    1.30
  -1  -5   4    0.20    1.10
  -1  -5   4    0.30    1.20
  -1  -5   4   -1.30    0.60
   0   5  -4   95.19    6.10
   0   5  -4   92.09    6.20
   0   5  -4  116.99    5.30
   0  -5   4  106.89    6.70
   0  -5   4  101.89    7.20
   0  -5   4  112.39    7.00
   0  -5   4   98.69    6.10
  -1   5  -4  136.39    7.70
  -1   5  -4  129.99    5.20
  -1   5  -4  125.99    7.10
  -1   5  -4  130.69    5.00
   1  -5   4  132.69    7.10
   1  -5   4  120.39    8.20
   1  -5   4  147.49    7.80
   1  -5   4  133.59    7.70
  -2   5  -4  108.49    6.70
  -2   5  -4  114.69    7.00
  -2   5  -4  115.99    5.30
   2  -5   4  114.59    5.30
   2  -5   4  102.79    7.80
   2  -5   4  104.49    6.60
   2  -5   4  106.19    6.50
  -3   5  -4   40.10    4.70
  -3   5  -4   48.30    3.80
  -3   5  -4   51.69    5.70
  -3   5  -4   42.40    3.30
   3  -5   4   51.19    5.20
   3  -5   4   49.90    6.60
   3  -5   4   53.99    3.80
   3  -5   4   54.89    4.60
   3  -5   4   47.30    4.00
  -4   5  -4    3.30    1.80
  -4   5  -4    1.70    1.30
  -4   5  -4    3.40    1.40
  -4   5  -4    2.10    1.40
   4  -5   4    1.90    1.20
   4  -5   4    0.90    1.50
   4  -5   4    2.90    1.40
   4  -5   4    2.60    2.20
  -5   5  -4    3.10    2.30
  -5   5  -4    1.60    1.50
  -5   5  -4    1.20    1.60
  -5   5  -4    0.20    1.90
   5  -5   4    1.40    1.30
   5  -5   4    0.60    1.20
  -6   5  -4   62.29    5.40
  -6   5  -4   44.80    6.10
  -6   5  -4   47.20    6.00
   6  -5   4   48.60    5.50
  -7   5  -4   28.10    4.70
  -7   5  -4   37.50    6.20
  -7   5  -4   44.10    5.80
  -5  -4   4   64.39    5.80
  -5  -4   4   65.89    5.50
  -5  -4   4   56.09    6.50
  -5  -4   4   61.39    6.20
  -4  -4   4   23.20    4.10
  -4  -4   4   22.20    4.00
  -4  -4   4   27.70    3.80
  -4  -4   4   19.50    3.40
   3   4  -4   66.29    4.80
  -3  -4   4   60.89    4.70
  -3  -4   4   60.19    6.00
  -3  -4   4   68.59    4.40
  -3  -4   4   71.99    5.70
   2   4  -4   20.70    2.50
   2   4  -4   32.80    3.90
  -2  -4   4   28.80    4.10
  -2  -4   4   30.20    3.60
  -2  -4   4   29.20    4.20
  -2  -4   4   26.40    3.80
  -2  -4   4   27.10    2.80
   1   4  -4  758.72   19.20
   1   4  -4  764.02   22.00
  -1  -4   4  829.12   23.30
  -1  -4   4  741.93   22.80
  -1  -4   4  757.32   22.00
  -1  -4   4  774.02   23.60
   0   4  -4    7.30    1.80
   0   4  -4    7.00    1.90
   0   4  -4    8.10    1.30
   0  -4   4   12.50    2.50
   0  -4   4    8.40    2.20
   0  -4   4   11.10    2.40
   0  -4   4    6.10    1.70
  -1   4  -4   17.00    2.60
  -1   4  -4   18.30    1.80
  -1   4  -4   17.90    1.60
  -1   4  -4   14.60    2.80
   1  -4   4   22.30    3.30
   1  -4   4   21.60    3.30
   1  -4   4   21.50    3.10
   1  -4   4   18.40    3.30
  -2   4  -4   34.10    4.00
  -2   4  -4   39.90    2.50
  -2   4  -4   36.80    2.70
  -2   4  -4   34.70    4.20
   2  -4   4   35.90    2.60
   2  -4   4   33.80    4.10
   2  -4   4   43.20    5.50
   2  -4   4   35.00    4.10
   2  -4   4   36.20    4.10
  -3   4  -4  256.97    9.40
  -3   4  -4  260.77   11.10
  -3   4  -4  238.28   10.40
  -3   4  -4  260.87    8.70
   3  -4   4  266.67   10.10
   3  -4   4  253.57   10.60
   3  -4   4  264.37   12.40
   3  -4   4  263.87    9.50
   3  -4   4  260.37   10.50
  -4   4  -4  192.68    9.70
  -4   4  -4  186.38    9.30
  -4   4  -4  223.38   13.60
  -4   4  -4  194.88    7.80
  -4   4  -4  195.78    8.60
   4  -4   4  203.98    9.20
   4  -4   4  180.78    8.90
   4  -4   4  195.68    8.40
   4  -4   4  209.78   11.00
   4  -4   4  187.18    7.50
  -5   4  -4    7.60    2.50
  -5   4  -4    2.60    1.70
  -5   4  -4    9.80    2.30
  -5   4  -4    4.70    2.10
   5  -4   4    2.90    1.50
   5  -4   4    9.50    2.40
   5  -4   4    7.20    2.10
  -6   4  -4    0.80    1.70
  -6   4  -4    0.10    1.70
  -6   4  -4    0.90    1.60
   6  -4   4    0.70    1.10
  -7   4  -4   16.10    3.80
  -7   4  -4    7.90    2.70
  -7   4  -4   22.00    4.50
   7  -4   4   14.40    3.30
  -6  -3   4    0.70    1.30
  -6  -3   4    0.70    2.20
  -6  -3   4    1.70    1.80
  -5  -3   4    6.60    2.50
  -5  -3   4    5.90    2.10
  -5  -3   4    3.80    1.60
  -4  -3   4   92.09    5.60
  -4  -3   4   99.09    5.90
  -4  -3   4   85.69    6.00
  -4  -3   4   94.99    6.60
   3   3  -4  136.79    6.50
  -3  -3   4  143.59    6.40
  -3  -3   4  144.59    7.80
  -3  -3   4  143.39    7.40
  -3  -3   4  137.89    6.70
  -3  -3   4  138.09    7.40
  -3  -3   4  154.98    8.80
   2   3  -4  392.86   12.70
   2   3  -4  394.46   11.30
   2   3  -4  394.36   12.60
  -2  -3   4  403.86   13.00
  -2  -3   4  370.56   13.70
  -2  -3   4  377.06   12.60
  -2  -3   4  392.56   13.50
  -2  -3   4  396.46   11.60
  -2  -3   4  384.66   13.60
   1   3  -4    1.50    0.70
   1   3  -4    0.20    0.80
   1   3  -4    2.90    1.10
  -1  -3   4    0.80    1.00
  -1  -3   4    0.40    0.70
  -1  -3   4    3.10    1.30
  -1  -3   4    2.10    1.00
  -1  -3   4    1.10    1.00
   0   3  -4  563.84   13.60
   0   3  -4  536.45   16.60
   0   3  -4  572.24   16.60
   0  -3   4  566.44   17.60
   0  -3   4  587.54   17.40
   0  -3   4  619.74   17.20
   0  -3   4  553.64   17.90
   0  -3   4  548.25   16.40
  -1   3  -4  267.07    7.60
  -1   3  -4  265.17    9.80
  -1   3  -4  277.27    7.20
  -1   3  -4  274.87   10.10
   1  -3   4  262.97   11.10
   1  -3   4  277.97   10.30
   1  -3   4  279.97    9.90
   1  -3   4  263.47   10.50
   1  -3   4  275.07    7.60
  -2   3  -4    8.30    1.40
  -2   3  -4    3.70    1.20
  -2   3  -4    8.30    1.20
  -2   3  -4    7.80    1.80
   2  -3   4   11.10    2.00
   2  -3   4    7.30    1.30
   2  -3   4    9.20    2.10
   2  -3   4    6.20    2.20
   2  -3   4    5.40    1.70
  -3   3  -4   73.09    5.10
  -3   3  -4   70.49    4.80
  -3   3  -4   69.69    4.20
  -3   3  -4   85.49    6.10
  -3   3  -4   77.49    3.70
   3  -3   4   73.29    4.70
   3  -3   4   74.69    4.80
   3  -3   4   74.89    5.00
   3  -3   4   76.19    4.20
   3  -3   4   75.89    5.10
   3  -3   4   67.89    5.60
  -4   3  -4  239.58    9.40
  -4   3  -4  228.38   11.30
  -4   3  -4  233.98   10.30
  -4   3  -4  230.78   10.00
  -4   3  -4  231.08    8.40
   4  -3   4  233.18    9.10
   4  -3   4  226.78    8.60
   4  -3   4  232.38    9.70
   4  -3   4  234.68    9.90
   4  -3   4  222.68   11.00
  -5   3  -4   88.69    5.30
  -5   3  -4   79.99    5.60
  -5   3  -4   79.39    5.80
  -5   3  -4   90.69    6.40
  -5   3  -4   92.79    8.20
   5  -3   4   81.59    6.50
   5  -3   4   87.69    5.80
   5  -3   4   88.09    4.40
   5  -3   4   87.59    5.60
   5  -3   4   74.79    5.40
  -6   3  -4   25.70    4.20
  -6   3  -4   26.30    4.10
  -6   3  -4   30.40    4.10
   6  -3   4   32.30    4.10
   6  -3   4   21.90    3.40
  -7   3  -4   62.99    7.20
  -7   3  -4   56.69    6.00
  -7   3  -4   42.70    5.40
   7  -3   4   57.79    6.00
  -8   3  -4   -2.60    2.30
  -8   3  -4   -0.40    2.10
  -8   3  -4   -0.10    1.70
  -6  -2   4    5.60    1.90
  -6  -2   4    5.80    2.20
  -6  -2   4    6.40    2.60
  -5  -2   4    2.60    2.00
  -5  -2   4    3.00    1.70
  -5  -2   4    1.40    1.10
  -4  -2   4   59.09    4.00
  -4  -2   4   61.39    4.50
  -4  -2   4   53.79    3.20
  -4  -2   4   49.80    4.20
   3   2  -4   33.20    2.80
   3   2  -4   38.50    2.90
  -3  -2   4   42.30    3.50
  -3  -2   4   39.10    3.10
  -3  -2   4   36.40    3.10
  -3  -2   4   40.80    3.50
  -3  -2   4   36.10    3.10
  -3  -2   4   40.60    4.60
  -3  -2   4   37.70    2.10
   2   2  -4  133.59    5.20
   2   2  -4  133.99    5.60
   2   2  -4  140.39    5.70
  -2  -2   4  137.49    5.90
  -2  -2   4  141.69    6.50
  -2  -2   4  138.09    5.90
  -2  -2   4  141.39    6.40
  -2  -2   4  128.69    6.70
  -2  -2   4  129.89    5.20
   1   2  -4    3.30    1.00
   1   2  -4    3.60    1.10
   1   2  -4    4.80    0.90
  -1  -2   4    3.10    1.10
  -1  -2   4    4.20    1.30
  -1  -2   4    5.30    1.40
  -1  -2   4    2.90    0.80
  -1  -2   4    3.10    1.30
  -1  -2   4    4.70    1.20
   0   2  -4    1.60    0.80
   0   2  -4    0.40    0.60
   0  -2   4   -0.20    0.50
   0  -2   4    1.10    0.80
   0  -2   4    3.20    1.20
   0  -2   4    0.70    0.90
   0  -2   4    2.70    1.00
  -1   2  -4   33.50    2.80
  -1   2  -4   33.60    1.90
  -1   2  -4   30.70    2.80
   1  -2   4   35.90    2.80
   1  -2   4   38.00    3.10
   1  -2   4   38.20    2.90
   1  -2   4   35.70    3.70
   1  -2   4   41.30    3.60
   1  -2   4   37.20    1.90
  -2   2  -4  645.04   19.00
  -2   2  -4  622.94   16.40
  -2   2  -4  622.04   15.00
  -2   2  -4  618.24   17.70
  -2   2  -4  632.94   18.10
   2  -2   4  633.34   18.60
   2  -2   4  621.44   18.70
   2  -2   4  639.74   18.30
   2  -2   4  603.54   17.60
   2  -2   4  622.64   19.50
   2  -2   4  624.94   16.20
   2  -2   4  652.63   17.90
  -3   2  -4  112.19    5.20
  -3   2  -4  100.59    4.20
  -3   2  -4  104.09    5.80
  -3   2  -4  107.29    5.70
  -3   2  -4  115.69    6.80
   3  -2   4  107.29    5.00
   3  -2   4  104.39    5.60
   3  -2   4  105.39    5.50
   3  -2   4  110.59    6.70
   3  -2   4  106.29    5.80
   3  -2   4  110.19    5.80
  -4   2  -4  307.17   11.50
  -4   2  -4  322.67   12.10
  -4   2  -4  316.57   11.10
  -4   2  -4  315.07   10.10
  -4   2  -4  329.67   13.60
   4  -2   4  318.47   12.80
   4  -2   4  319.17   11.90
   4  -2   4  322.87   11.10
   4  -2   4  303.47   10.60
   4  -2   4  316.17   11.30
   4  -2   4  308.67   11.60
  -5   2  -4   -0.30    0.80
  -5   2  -4    0.60    1.00
  -5   2  -4    0.50    1.90
  -5   2  -4   -1.70    0.80
  -5   2  -4    0.00    0.80
   5  -2   4    0.80    1.20
   5  -2   4    0.40    0.90
   5  -2   4    0.80    0.80
   5  -2   4    0.50    0.80
   5  -2   4   -0.30    0.70
  -6   2  -4   11.00    2.50
  -6   2  -4   12.80    2.70
  -6   2  -4   12.60    3.00
  -6   2  -4   14.10    3.00
   6  -2   4   16.60    3.10
   6  -2   4   13.70    3.30
   6  -2   4   13.10    2.00
  -7   2  -4    3.50    2.30
  -7   2  -4    0.40    1.40
  -7   2  -4    0.90    1.60
   7  -2   4    1.40    1.30
  -8   2  -4    8.60    3.30
  -8   2  -4    5.20    2.40
  -8   2  -4    4.60    2.80
   8  -2   4    7.10    2.50
  -6  -1   4    1.00    1.10
  -6  -1   4    0.80    2.00
  -6  -1   4    1.10    1.50
  -5  -1   4   58.59    4.10
  -5  -1   4   58.09    4.50
  -5  -1   4   77.39    6.60
  -5  -1   4   61.79    5.20
   4   1  -4    1.90    1.00
  -4  -1   4    3.40    1.40
  -4  -1   4    3.00    1.60
  -4  -1   4    3.70    1.20
  -4  -1   4    1.80    1.00
  -4  -1   4    4.80    1.60
   3   1  -4    7.30    1.40
  -3  -1   4    6.20    1.60
  -3  -1   4    7.70    1.50
  -3  -1   4    8.20    1.60
  -3  -1   4    7.10    1.60
  -3  -1   4    5.40    1.20
  -3  -1   4   10.20    1.80
   2   1  -4  156.48    5.50
   2   1  -4  157.68    5.20
  -2  -1   4  151.98    4.80
  -2  -1   4  151.88    5.70
  -2  -1   4  147.59    6.10
  -2  -1   4  147.59    7.00
  -2  -1   4  148.99    5.70
  -2  -1   4  152.68    6.10
  -2  -1   4  163.98    5.90
   1   1  -4   45.10    2.60
   1   1  -4   50.59    2.70
   1   1  -4   52.29    2.80
  -1  -1   4   53.79    3.80
  -1  -1   4   49.10    1.80
  -1  -1   4   49.99    2.80
  -1  -1   4   49.60    2.90
  -1  -1   4   48.40    2.30
  -1  -1   4   46.70    3.10
  -1  -1   4   56.29    3.20
   0   1  -4   29.50    2.20
   0   1  -4   27.80    2.10
   0   1  -4   30.40    2.20
   0  -1   4   29.40    1.30
   0  -1   4   26.90    2.10
   0  -1   4   27.30    2.30
   0  -1   4   26.50    3.00
   0  -1   4   26.10    2.40
   0  -1   4   32.40    2.30
  -1   1  -4  925.11   23.60
  -1   1  -4  914.11   22.80
  -1   1  -4  970.00   25.40
  -1   1  -4  887.21   22.80
   1  -1   4  921.21   22.90
   1  -1   4  899.91   22.90
   1  -1   4  847.22   23.90
   1  -1   4  904.11   23.30
   1  -1   4  909.41   21.40
   1  -1   4  890.71   24.30
  -2   1  -4   61.99    3.70
  -2   1  -4   59.59    2.30
  -2   1  -4   63.29    4.20
  -2   1  -4   60.19    3.80
  -2   1  -4   67.29    3.30
   2  -1   4   56.89    4.20
   2  -1   4   64.29    3.70
   2  -1   4   54.69    3.40
   2  -1   4   62.09    4.10
   2  -1   4   59.59    4.30
   2  -1   4   61.59    3.10
   2  -1   4   63.09    3.80
  -3   1  -4  112.19    5.50
  -3   1  -4  118.69    4.50
  -3   1  -4  121.09    6.80
  -3   1  -4  109.39    5.70
  -3   1  -4  116.89    5.20
   3  -1   4  114.09    5.80
   3  -1   4  111.99    5.70
   3  -1   4  110.09    4.30
   3  -1   4  103.99    5.70
   3  -1   4  119.89    5.70
   3  -1   4  117.99    6.50
   3  -1   4  122.79    5.60
   3  -1   4  117.89    5.10
  -4   1  -4  127.39    6.30
  -4   1  -4  120.49    5.30
  -4   1  -4  128.29    6.50
  -4   1  -4  128.69    7.50
  -4   1  -4  123.59    6.60
  -4   1  -4  114.49    5.80
   4  -1   4  112.49    5.80
   4  -1   4  122.49    6.90
   4  -1   4  118.89    5.10
   4  -1   4  115.49    6.10
   4  -1   4  117.49    5.80
   4  -1   4  121.29    5.80
   4  -1   4  122.09    6.30
  -5   1  -4    6.20    1.90
  -5   1  -4    7.00    1.90
  -5   1  -4    8.10    2.90
  -5   1  -4    9.60    2.90
  -5   1  -4    7.80    2.00
  -5   1  -4    8.20    1.90
   5  -1   4    7.40    2.00
   5  -1   4    6.40    2.00
   5  -1   4    8.70    1.80
   5  -1   4    5.50    1.50
   5  -1   4    6.20    1.70
  -6   1  -4    1.20    2.90
  -6   1  -4    0.20    1.10
  -6   1  -4   -0.50    1.30
  -6   1  -4   -0.80    1.00
  -6   1  -4    0.20    1.00
   6  -1   4    0.70    1.10
   6  -1   4    1.20    1.00
   6  -1   4   -0.30    1.00
   6  -1   4    1.20    1.10
  -7   1  -4   -0.60    1.40
  -7   1  -4   -1.10    1.40
  -7   1  -4   -0.10    1.30
   7  -1   4   -0.20    0.80
   7  -1   4    0.80    1.00
  -8   1  -4    8.30    3.10
  -8   1  -4   14.80    3.70
  -8   1  -4    9.50    3.30
   8  -1   4    7.80    2.50
  -9   1  -4   31.80    5.50
  -9   1  -4   23.50    4.50
  -6   0   4   35.00    3.70
  -6   0   4   31.80    4.90
  -6   0   4   25.60    3.50
   5   0  -4  100.59    5.80
  -5   0   4   97.09    6.60
  -5   0   4  101.79    5.00
  -5   0   4  100.29    5.80
  -5   0   4   99.29    5.50
  -5   0   4  102.59    6.80
   4   0  -4   17.00    2.40
  -4   0   4   21.20    2.50
  -4   0   4   16.00    2.30
  -4   0   4   17.10    2.50
  -4   0   4   23.00    2.40
  -4   0   4   17.50    3.00
   3   0  -4   16.20    1.20
   3   0  -4   14.10    1.40
  -3   0   4   16.60    1.80
  -3   0   4   16.10    1.80
  -3   0   4   17.30    2.10
  -3   0   4   17.30    2.10
  -3   0   4   14.20    2.00
  -3   0   4   13.80    2.30
   2   0  -4    0.00    0.30
   2   0  -4    0.60    0.40
  -2   0   4    0.70    0.50
  -2   0   4    0.30    0.50
  -2   0   4    0.10    0.50
  -2   0   4   -0.30    0.40
  -2   0   4    0.30    0.70
  -2   0   4    0.40    0.50
   1   0  -4  166.78    5.00
   1   0  -4  182.98    4.50
   1   0  -4  171.58    5.30
  -1   0   4  165.68    5.40
  -1   0   4  167.28    5.30
  -1   0   4  167.28    5.30
  -1   0   4  167.08    5.60
  -1   0   4  159.78    6.80
  -1   0   4  167.88    5.50
  -1   0   4  155.48    5.60
   0   0  -4   15.20    1.30
   0   0  -4   13.60    1.30
   0   0  -4   14.80    2.00
   0   0  -4   16.40    1.60
   0   0  -4   16.70    1.60
   0   0   4   17.90    1.50
   0   0   4   15.60    1.60
   0   0   4   12.70    1.70
   0   0   4   15.60    1.70
   0   0   4   13.70    1.00
   0   0   4   14.00    2.00
  -1   0  -4   16.40    2.00
  -1   0  -4   12.90    2.00
  -1   0  -4   13.50    1.70
  -1   0  -4   17.80    1.80
  -1   0  -4   13.90    1.70
   1   0   4   11.40    1.90
   1   0   4   16.10    2.20
   1   0   4   13.60    1.50
   1   0   4   13.60    1.70
   1   0   4   16.20    2.60
   1   0   4   14.50    1.70
   1   0   4   14.90    1.90
  -2   0  -4  567.54   16.60
  -2   0  -4  555.24   15.20
  -2   0  -4  585.54   16.30
  -2   0  -4  564.84   13.70
  -2   0  -4  555.64   15.50
  -2   0  -4  553.54   15.20
   2   0   4  566.44   14.90
   2   0   4  548.45   16.10
   2   0   4  570.54   17.10
   2   0   4  561.14   16.60
   2   0   4  558.14   13.60
   2   0   4  574.04   15.40
   2   0   4  575.14   15.70
   2   0   4  548.25   15.20
  -3   0  -4   47.60    3.30
  -3   0  -4   49.50    4.00
  -3   0  -4   51.19    2.80
  -3   0  -4   51.69    4.10
  -3   0  -4   45.80    3.30
  -3   0  -4   50.59    3.30
   3   0   4   49.80    3.20
   3   0   4   50.29    2.60
   3   0   4   45.80    3.60
   3   0   4   47.50    3.50
   3   0   4   56.19    3.50
   3   0   4   50.19    3.50
   3   0   4   52.89    3.90
   3   0   4   43.70    3.10
  -4   0  -4    2.00    1.00
  -4   0  -4    2.10    1.50
  -4   0  -4    2.30    1.10
  -4   0  -4    3.30    1.50
  -4   0  -4    2.00    1.00
  -4   0  -4    2.00    1.10
   4   0   4    2.00    1.10
   4   0   4    1.10    0.80
   4   0   4    0.80    0.90
   4   0   4    1.20    0.90
   4   0   4    1.70    1.00
   4   0   4    2.40    0.90
   4   0   4    1.60    0.90
  -5   0  -4   50.49    4.10
  -5   0  -4   55.39    4.50
  -5   0  -4   56.29    4.30
  -5   0  -4   54.89    5.90
  -5   0  -4   51.99    3.80
   5   0   4   41.30    4.20
   5   0   4   57.99    4.10
   5   0   4   54.69    4.40
   5   0   4   58.79    4.00
   5   0   4   51.79    4.00
  -6   0  -4   31.50    3.90
  -6   0  -4   34.80    4.30
  -6   0  -4   31.30    4.30
  -6   0  -4   41.00    4.50
  -6   0  -4   35.90    5.40
   6   0   4   36.70    3.90
   6   0   4   30.30    3.80
   6   0   4   38.40    4.50
   6   0   4   31.40    3.90
  -7   0  -4   45.90    5.30
  -7   0  -4   51.59    5.50
  -7   0  -4   58.89    6.00
   7   0   4   44.40    4.90
   7   0   4   52.99    4.10
  -8   0  -4    4.70    2.70
  -8   0  -4    3.70    1.90
  -8   0  -4    1.00    1.90
   8   0   4    6.90    2.10
  -9   0  -4   12.10    3.90
  -9   0  -4   12.20    3.90
  -9   0  -4    5.10    2.80
  -6   1   4   11.30    2.10
  -6   1   4    9.40    2.30
  -6   1   4    8.10    3.00
   5  -1  -4    1.60    1.30
  -5   1   4    0.80    0.90
  -5   1   4    1.50    1.80
  -5   1   4    0.70    1.10
  -5   1   4    0.00    1.00
  -5   1   4    2.80    1.70
  -4   1   4   42.20    4.50
  -4   1   4   44.00    2.50
  -4   1   4   41.30    2.90
  -4   1   4   36.40    3.80
  -4   1   4   41.20    2.80
  -4   1   4   41.30    2.70
  -3   1   4   32.20    1.90
  -3   1   4   36.10    2.20
  -3   1   4   35.60    3.60
  -3   1   4   34.10    1.90
  -3   1   4   34.50    2.20
  -3   1   4   35.10    2.90
  -2   1   4   29.70    2.50
  -2   1   4   28.70    1.50
  -2   1   4   32.30    1.80
  -2   1   4   29.30    1.60
  -2   1   4   30.00    1.50
  -2   1   4   32.20    2.50
  -1   1   4    4.50    0.80
  -1   1   4    4.80    1.10
  -1   1   4    6.00    1.40
  -1   1   4    5.10    0.80
  -1   1   4    4.30    0.70
  -1   1   4    6.10    1.20
  -1   1   4    5.50    0.70
   0  -1  -4   82.99    2.80
   0   1   4   83.79    4.30
   0   1   4   86.99    3.70
   0   1   4   92.99    3.40
   0   1   4   86.79    3.10
   0   1   4   92.59    3.30
  -1  -1  -4   18.90    1.50
  -1  -1  -4   17.70    1.50
  -1  -1  -4   19.80    1.50
  -1  -1  -4   16.50    1.80
  -1  -1  -4   21.30    2.30
   1   1   4   18.30    1.70
   1   1   4   14.40    1.50
   1   1   4   18.10    1.40
   1   1   4   16.30    2.10
   1   1   4   14.80    2.60
   1   1   4   19.90    1.60
   1   1   4   19.30    2.20
  -2  -1  -4  254.87    8.00
  -2  -1  -4  274.67   10.30
  -2  -1  -4  251.77    8.90
  -2  -1  -4  281.57    9.00
  -2  -1  -4  253.37    7.40
  -2  -1  -4  245.08    8.00
   2   1   4  248.68    8.80
   2   1   4  260.57    8.20
   2   1   4  265.87    8.30
   2   1   4  255.37    7.40
   2   1   4  260.77    8.10
   2   1   4  236.28    8.50
   2   1   4  258.57    9.90
   2   1   4  256.77    8.50
  -3  -1  -4   50.49    4.30
  -3  -1  -4   59.19    4.20
  -3  -1  -4   53.69    3.50
  -3  -1  -4   54.69    4.30
  -3  -1  -4   53.89    3.40
  -3  -1  -4   53.09    3.70
  -3  -1  -4   57.39    3.10
   3   1   4   56.99    3.70
   3   1   4   58.49    3.60
   3   1   4   56.89    3.80
   3   1   4   62.29    3.60
   3   1   4   53.09    3.50
   3   1   4   51.49    2.90
   3   1   4   59.79    3.50
   3   1   4   51.49    3.90
  -4  -1  -4    1.70    1.10
  -4  -1  -4    3.40    1.30
  -4  -1  -4    4.00    1.30
  -4  -1  -4    6.30    1.50
  -4  -1  -4    2.20    1.40
   4   1   4    4.80    1.30
   4   1   4    6.00    1.60
   4   1   4    5.20    1.50
   4   1   4    5.50    1.30
   4   1   4    2.80    1.10
   4   1   4    4.80    1.50
   4   1   4    2.00    0.90
  -5  -1  -4   83.89    5.30
  -5  -1  -4   97.19    5.30
  -5  -1  -4   96.39    5.70
  -5  -1  -4   84.19    5.50
  -5  -1  -4   91.59    6.30
   5   1   4   94.19    5.40
   5   1   4   97.09    5.50
   5   1   4   91.59    5.60
   5   1   4   98.49    5.80
   5   1   4   92.29    5.20
  -6  -1  -4   31.50    4.00
  -6  -1  -4   35.90    4.30
  -6  -1  -4   38.10    5.40
  -6  -1  -4   29.40    3.90
  -6  -1  -4   34.70    4.20
   6   1   4   36.90    4.00
   6   1   4   28.70    3.80
   6   1   4   37.80    4.40
   6   1   4   32.50    3.80
  -7  -1  -4    2.60    1.50
  -7  -1  -4    2.50    1.70
  -7  -1  -4    6.40    2.30
   7   1   4    4.70    1.90
   7   1   4    2.70    1.40
  -8  -1  -4    6.50    2.60
  -8  -1  -4    2.70    2.30
  -8  -1  -4    0.60    1.60
   8   1   4    2.30    1.50
   8   1   4    3.00    1.60
  -9  -1  -4   41.40    6.40
  -9  -1  -4   48.90    6.40
  -9  -1  -4   55.59    7.00
  -6   2   4   -0.70    0.90
  -6   2   4    0.30    1.00
  -6   2   4    1.60    2.00
  -5   2   4   53.79    3.10
  -5   2   4   55.29    5.90
  -5   2   4   57.59    5.10
  -5   2   4   59.79    4.10
  -5   2   4   55.09    3.70
  -4   2   4    0.80    1.10
  -4   2   4    1.50    1.50
  -4   2   4    0.60    0.60
  -4   2   4    0.50    0.50
  -4   2   4    0.70    0.80
  -4   2   4    1.60    0.80
  -3   2   4   86.29    5.20
  -3   2   4   80.69    2.70
  -3   2   4   79.49    3.10
  -3   2   4   91.19    5.10
  -3   2   4   87.29    2.90
  -3   2   4   86.29    3.30
  -2   2   4   39.30    3.10
  -2   2   4   41.40    3.10
  -1   2   4  188.88    7.00
  -1   2   4  197.98    7.10
   0  -2  -4   52.29    1.70
   0   2   4   50.29    2.30
   0   2   4   57.99    2.20
   0   2   4   56.19    2.30
   0   2   4   51.19    2.10
   0   2   4   56.79    3.20
   0   2   4   53.69    4.20
  -1  -2  -4  165.68    5.30
  -1  -2  -4  173.18    5.40
  -1  -2  -4  158.48    5.60
  -1  -2  -4  167.98    5.20
  -1  -2  -4  167.88    5.90
   1   2   4  170.48    5.70
   1   2   4  167.18    5.80
   1   2   4  171.68    5.40
   1   2   4  174.18    5.50
   1   2   4  172.48    7.70
   1   2   4  164.58    6.10
  -2  -2  -4   52.79    3.10
  -2  -2  -4   48.10    2.80
  -2  -2  -4   52.79    3.10
  -2  -2  -4   50.79    3.30
  -2  -2  -4   50.39    2.80
   2   2   4   51.69    3.10
   2   2   4   57.89    3.10
   2   2   4   49.50    2.90
   2   2   4   48.00    3.10
   2   2   4   50.39    3.10
   2   2   4   46.00    3.80
   2   2   4   49.10    2.80
  -3  -2  -4  906.41   24.30
  -3  -2  -4  940.31   24.00
  -3  -2  -4  962.70   24.40
  -3  -2  -4  946.41   25.10
  -3  -2  -4  930.61   23.80
   3   2   4  887.71   23.80
   3   2   4  970.30   24.20
   3   2   4  929.21   25.40
   3   2   4  951.20   23.60
   3   2   4  929.11   24.40
   3   2   4  949.31   23.90
   3   2   4  966.80   24.70
   3   2   4  959.10   24.50
  -4  -2  -4  275.37    9.60
  -4  -2  -4  274.07   10.20
  -4  -2  -4  295.07   11.00
  -4  -2  -4  269.47    9.80
   4   2   4  264.87    9.30
   4   2   4  283.27   10.30
   4   2   4  269.67   10.00
   4   2   4  287.97    9.80
   4   2   4  272.77   10.30
   4   2   4  288.37   10.10
  -5  -2  -4   26.80    3.30
  -5  -2  -4   22.80    3.40
  -5  -2  -4   28.50    4.00
  -5  -2  -4   25.20    3.30
   5   2   4   23.50    3.10
   5   2   4   26.90    3.50
   5   2   4   29.80    3.50
   5   2   4   15.60    2.60
  -6  -2  -4   42.10    5.00
  -6  -2  -4   59.59    4.90
  -6  -2  -4   48.30    5.90
  -6  -2  -4   49.50    5.10
  -6  -2  -4   31.30    3.80
   6   2   4   37.30    4.10
   6   2   4   36.30    4.10
   6   2   4   46.80    5.20
   6   2   4   38.60    4.20
  -7  -2  -4   13.50    3.20
  -7  -2  -4   17.10    3.40
  -7  -2  -4   16.60    3.30
   7   2   4   21.40    3.40
   7   2   4   20.40    3.40
  -8  -2  -4   18.40    4.20
  -8  -2  -4   15.30    3.50
  -8  -2  -4   17.30    3.70
   8   2   4   17.60    3.50
   8   2   4   23.00    4.00
  -9  -2  -4    4.20    2.80
  -9  -2  -4    7.00    3.10
  -9  -2  -4    7.30    2.70
   9   2   4   10.60    3.00
  -6   3   4   13.30    2.30
  -6   3   4   15.70    4.10
  -6   3   4   13.70    2.10
  -5   3   4    1.70    0.80
  -5   3   4   -0.10    0.80
  -5   3   4    2.40    1.40
  -5   3   4    0.30    1.70
  -4   3   4  152.38    8.10
  -4   3   4  137.39    5.30
  -4   3   4  147.99    7.80
  -4   3   4  141.39    4.70
  -4   3   4  157.08    6.30
  -3   3   4   71.99    3.30
  -3   3   4   70.79    4.80
  -3   3   4   60.29    2.70
  -3   3   4   72.09    4.90
  -2   3   4   89.09    5.00
  -1   3   4    6.10    1.70
  -1   3   4    6.60    0.70
  -1   3   4    6.70    1.60
  -1   3   4    7.30    0.80
   0  -3  -4 1337.97   30.20
   0  -3  -4 1377.26   30.30
   0   3   4 1366.16   32.10
   0   3   4 1384.86   31.00
   0   3   4 1328.57   30.80
   0   3   4 1377.26   31.30
   0   3   4 1313.27   31.00
   0   3   4 1340.37   34.90
  -1  -3  -4 1052.19   24.70
  -1  -3  -4 1065.59   28.30
  -1  -3  -4 1025.70   24.90
  -1  -3  -4 1039.00   24.50
  -1  -3  -4 1035.90   24.60
  -1  -3  -4 1050.09   24.60
   1   3   4  970.10   24.90
   1   3   4 1080.99   24.90
   1   3   4 1033.90   24.80
   1   3   4 1016.40   27.80
   1   3   4 1076.69   25.40
   1   3   4 1018.30   25.00
  -2  -3  -4   28.10    2.30
  -2  -3  -4   27.20    3.60
  -2  -3  -4   26.10    2.00
  -2  -3  -4   23.10    2.10
  -2  -3  -4   23.40    2.00
  -2  -3  -4   25.70    2.00
   2   3   4   26.30    2.20
   2   3   4   25.00    2.70
   2   3   4   30.10    3.50
   2   3   4   20.50    2.40
   2   3   4   19.60    2.10
   2   3   4   24.90    1.90
   2   3   4   22.00    2.10
  -3  -3  -4   84.49    4.60
  -3  -3  -4   86.49    4.20
  -3  -3  -4   81.59    4.40
  -3  -3  -4   79.59    4.20
  -3  -3  -4   76.09    4.50
   3   3   4   80.79    3.80
   3   3   4   83.49    4.40
   3   3   4   83.19    4.60
   3   3   4   72.49    4.70
   3   3   4   90.39    4.50
   3   3   4   80.49    4.40
   3   3   4   78.19    4.40
  -4  -3  -4   34.20    3.70
  -4  -3  -4   29.20    3.20
  -4  -3  -4   38.30    3.50
  -4  -3  -4   36.30    3.50
  -4  -3  -4   37.00    4.10
   4   3   4   33.80    3.60
   4   3   4   35.90    3.90
   4   3   4   33.90    3.80
   4   3   4   36.80    3.80
   4   3   4   42.30    4.40
  -5  -3  -4  102.49    7.30
  -5  -3  -4   92.79    5.60
  -5  -3  -4   85.19    5.30
  -5  -3  -4   77.79    5.50
   5   3   4   92.89    5.70
   5   3   4   92.59    5.70
   5   3   4   90.19    5.30
   5   3   4   89.29    5.50
   5   3   4  103.59    6.10
  -6  -3  -4    0.00    1.30
  -6  -3  -4    0.40    1.10
  -6  -3  -4   -0.10    0.90
   6   3   4    0.10    0.90
   6   3   4    0.90    1.20
   6   3   4    0.80    1.10
   6   3   4    1.00    1.10
  -7  -3  -4   35.70    5.20
  -7  -3  -4   34.30    4.40
  -7  -3  -4   34.10    4.90
   7   3   4   36.90    4.60
   7   3   4   30.50    4.30
  -8  -3  -4    5.20    2.20
  -8  -3  -4    6.90    3.10
  -8  -3  -4    8.30    3.10
   8   3   4   10.00    3.00
   8   3   4    6.60    2.40
  -9  -3  -4   50.09    6.70
  -9  -3  -4   41.10    6.00
   9   3   4   56.09    6.90
  -6   4   4   14.20    2.50
  -6   4   4   16.90    4.20
  -5   4   4    7.60    2.30
  -5   4   4    5.20    1.40
  -5   4   4    6.10    1.30
  -5   4   4    8.90    2.90
  -4   4   4   15.30    3.20
  -4   4   4   21.30    2.80
  -4   4   4   15.20    3.10
  -4   4   4   19.90    3.70
  -4   4   4   14.00    1.90
  -4   4   4   17.40    1.70
  -3   4   4  130.59    4.30
  -3   4   4  132.39    7.40
  -3   4   4  136.59    4.30
  -3   4   4  141.09    5.40
  -3   4   4  125.39    4.80
  -3   4   4  141.49    7.40
  -3   4   4  146.19    7.60
  -2   4   4  709.43   16.30
  -2   4   4  636.64   16.60
  -2   4   4  705.63   17.10
  -2   4   4  676.73   16.20
  -2   4   4  708.43   20.80
  -2   4   4  662.73   20.00
  -1   4   4   17.00    1.40
  -1   4   4   17.90    1.30
  -1   4   4   14.80    2.40
  -1   4   4   13.40    2.40
  -1   4   4   14.80    1.20
  -1   4   4   16.50    1.50
   0  -4  -4    2.70    0.60
   0   4   4    1.30    0.60
   0   4   4    3.20    0.80
   0   4   4    3.80    0.90
   0   4   4    2.00    0.70
   0   4   4    2.40    1.30
   0   4   4    3.60    1.00
  -1  -4  -4  177.68    8.30
  -1  -4  -4  184.08    6.20
  -1  -4  -4  181.88    6.00
  -1  -4  -4  177.68    6.00
   1   4   4  172.88    6.40
   1   4   4  184.38    6.70
   1   4   4  173.58    5.50
   1   4   4  187.48    6.30
   1   4   4  186.18    8.00
   1   4   4  169.98    6.10
  -2  -4  -4  307.57   10.00
  -2  -4  -4  319.07    8.70
  -2  -4  -4  311.67    9.80
   2   4   4  299.37   11.10
   2   4   4  310.97   10.40
   2   4   4  330.97   10.10
   2   4   4  306.87    8.50
   2   4   4  302.07   10.10
   2   4   4  310.37    9.90
  -3  -4  -4    1.70    0.80
  -3  -4  -4    2.00    1.10
  -3  -4  -4    4.40    1.30
   3   4   4    3.40    1.30
   3   4   4    5.60    1.50
   3   4   4    2.60    1.00
   3   4   4    1.50    0.90
   3   4   4    2.30    1.20
  -4  -4  -4  331.77   11.60
  -4  -4  -4  321.57   11.70
  -4  -4  -4  307.77   11.00
  -4  -4  -4  317.37   10.30
   4   4   4  326.87   11.50
   4   4   4  318.97   11.60
   4   4   4  303.37   11.60
   4   4   4  306.57   11.40
   4   4   4  294.57   10.90
  -5  -4  -4    3.00    1.70
  -5  -4  -4    3.20    1.40
  -5  -4  -4    1.10    1.30
   5   4   4    2.00    1.10
   5   4   4    1.30    1.10
   5   4   4    0.70    1.30
   5   4   4    3.30    1.50
   5   4   4    2.80    1.40
  -6  -4  -4  343.87   13.40
  -6  -4  -4  323.57   12.90
  -6  -4  -4  329.57   13.70
   6   4   4  331.27   13.20
   6   4   4  344.07   12.90
   6   4   4  337.47   13.00
   6   4   4  333.37   13.30
  -7  -4  -4   65.69    7.00
  -7  -4  -4   41.60    5.60
  -7  -4  -4   45.60    5.50
   7   4   4   52.19    5.80
   7   4   4   50.39    5.70
  -8  -4  -4   73.49    7.70
  -8  -4  -4   60.79    6.40
  -8  -4  -4   82.59    7.40
   8   4   4   86.19    6.60
   8   4   4   87.89    6.90
  -9  -4  -4   -1.10    2.50
  -9  -4  -4   -1.30    1.50
   9   4   4    0.30    1.70
  -5   5   4   23.40    4.60
  -5   5   4   16.50    2.50
  -5   5   4   21.10    2.30
  -4   5   4   37.90    7.30
  -4   5   4   35.40    3.60
  -4   5   4   29.90    2.30
  -4   5   4   30.50    4.60
  -4   5   4   32.30    2.90
  -3   5   4    0.00    1.30
  -3   5   4    0.80    0.80
  -3   5   4    0.00    0.80
  -3   5   4   -1.00    1.10
  -3   5   4    0.20    0.70
  -2   5   4  146.59    5.10
  -2   5   4  150.18    7.60
  -2   5   4  137.99    7.10
  -2   5   4  152.48    5.80
  -2   5   4  136.19    5.40
  -2   5   4  135.59    5.00
   1  -5  -4  204.88    5.90
   1  -5  -4  212.88    6.00
  -1   5   4  209.98    8.70
  -1   5   4  221.68    7.40
  -1   5   4  212.68    6.80
  -1   5   4  200.28    7.10
  -1   5   4  204.98    6.70
   0  -5  -4    7.10    1.20
   0  -5  -4   10.70    1.40
   0  -5  -4    7.40    2.00
   0   5   4    7.90    1.00
   0   5   4    7.90    1.40
   0   5   4    5.40    1.70
   0   5   4    7.90    1.60
   0   5   4    7.20    1.30
   0   5   4    7.20    1.50
  -1  -5  -4  120.39    5.00
  -1  -5  -4  118.99    5.10
   1   5   4  131.19    5.40
   1   5   4  114.09    5.40
   1   5   4  105.19    4.90
   1   5   4  111.39    6.00
   1   5   4  117.79    5.60
  -2  -5  -4   51.19    2.00
  -2  -5  -4   55.29    3.50
  -2  -5  -4   57.39    3.70
   2   5   4   57.39    3.70
   2   5   4   53.79    3.70
   2   5   4   47.80    3.40
   2   5   4   54.49    3.90
   2   5   4   49.90    4.00
  -3  -5  -4  358.06   10.30
  -3  -5  -4  352.16   12.00
  -3  -5  -4  376.96   12.60
   3   5   4  382.66   12.40
   3   5   4  364.86   12.10
   3   5   4  358.96   12.60
   3   5   4  370.46   12.90
   3   5   4  356.46   12.80
  -4  -5  -4  132.89    7.20
  -4  -5  -4  132.59    6.80
  -4  -5  -4  139.49    5.80
  -4  -5  -4  129.09    7.00
   4   5   4  140.89    7.30
   4   5   4  130.59    7.10
   4   5   4  142.89    7.10
   4   5   4  136.29    6.90
   4   5   4  140.49    7.40
  -5  -5  -4  109.79    6.60
  -5  -5  -4  112.79    6.90
  -5  -5  -4  125.79    7.40
   5   5   4  128.79    7.00
   5   5   4  115.39    7.00
   5   5   4  112.29    6.80
   5   5   4  120.79    7.10
   5   5   4  110.99    6.60
  -6  -5  -4   65.79    5.50
  -6  -5  -4   71.39    6.00
  -6  -5  -4   70.09    5.80
   6   5   4   75.99    5.80
   6   5   4   69.09    5.40
   6   5   4   80.69    6.20
  -7  -5  -4   84.09    7.10
  -7  -5  -4   89.59    7.10
  -7  -5  -4   82.19    6.50
   7   5   4   84.89    6.40
   7   5   4   78.89    6.50
  -8  -5  -4    0.70    2.10
  -8  -5  -4    0.30    1.50
   8   5   4    3.80    2.00
   8   5   4   -0.20    1.40
  -5   6   4   49.60    4.10
  -5   6   4   48.90    3.50
  -5   6   4   48.50    6.40
  -4   6   4   31.30    3.00
  -4   6   4   34.90    5.30
  -4   6   4   30.90    3.40
  -3   6   4   12.60    1.80
  -3   6   4   14.80    3.10
  -3   6   4    8.70    2.00
  -3   6   4   11.90    2.10
  -2   6   4  108.09    5.70
  -2   6   4  100.39    5.10
  -2   6   4  104.39    4.70
  -2   6   4  100.89    6.60
  -2   6   4  110.39    5.50
   1  -6  -4    0.40    0.50
  -1   6   4    2.40    1.20
  -1   6   4    1.60    1.20
  -1   6   4    3.20    0.90
  -1   6   4    3.00    1.50
  -1   6   4    1.80    1.00
  -1   6   4    2.10    1.00
  -1   6   4    4.30    1.00
  -1   6   4    1.90    1.00
   0  -6  -4   25.50    2.80
   0  -6  -4   25.60    2.50
   0   6   4   15.80    2.30
   0   6   4   24.80    3.10
   0   6   4   22.70    2.80
   0   6   4   25.70    3.10
   0   6   4   19.50    2.40
  -1  -6  -4   12.90    2.20
  -1  -6  -4   16.40    2.20
   1   6   4   15.80    2.50
   1   6   4   11.50    2.20
   1   6   4   13.60    2.20
   1   6   4   14.30    2.10
   1   6   4   14.60    2.50
  -2  -6  -4  198.88    8.40
  -2  -6  -4  213.68    8.20
   2   6   4  207.48    8.90
   2   6   4  212.78    9.00
   2   6   4  195.08    8.60
   2   6   4  201.58    8.20
   2   6   4  213.68    8.60
  -3  -6  -4  163.68    7.40
  -3  -6  -4  165.28    7.90
  -3  -6  -4  172.18    5.30
   3   6   4  173.38    8.40
   3   6   4  165.28    8.10
   3   6   4  163.58    7.70
   3   6   4  161.28    7.90
  -4  -6  -4   52.39    3.30
  -4  -6  -4   48.10    4.90
  -4  -6  -4   57.49    4.80
   4   6   4   54.49    4.60
   4   6   4   59.59    5.00
   4   6   4   59.79    4.60
   4   6   4   49.30    4.60
  -5  -6  -4   43.20    5.30
  -5  -6  -4   47.00    5.20
  -5  -6  -4   54.49    5.90
   5   6   4   64.29    6.70
   5   6   4   39.10    4.90
   5   6   4   54.49    4.80
   5   6   4   55.39    5.80
  -6  -6  -4  170.28    9.70
  -6  -6  -4  190.18   10.30
  -6  -6  -4  184.38    9.70
   6   6   4  172.28    9.90
   6   6   4  183.48    9.80
   6   6   4  192.58    9.70
  -7  -6  -4  122.59    8.50
  -7  -6  -4  126.79    8.40
   7   6   4  130.79    8.30
   7   6   4  126.39    8.50
  -8  -6  -4   46.00    6.00
  -8  -6  -4   62.69    7.40
   8   6   4   68.79    7.70
  -4   7   4   -0.10    1.30
  -4   7   4    0.50    1.10
  -4   7   4    1.40    2.20
  -3   7   4   44.10    3.80
  -3   7   4   38.00    3.30
  -2   7   4   20.30    2.60
  -2   7   4   24.20    4.60
  -2   7   4   18.30    2.80
  -2   7   4   16.20    2.80
  -1   7   4  117.39    5.70
  -1   7   4  118.59    6.30
  -1   7   4  105.69    5.90
  -1   7   4  116.89    5.80
  -1   7   4  117.69    4.50
  -1   7   4  119.89    7.30
   0  -7  -4  127.69    6.30
   0  -7  -4  134.59    5.90
   0   7   4  132.19    6.80
   0   7   4  125.59    6.30
   0   7   4  145.59    7.60
   0   7   4  119.49    6.10
   0   7   4  131.39    6.90
   0   7   4  135.69    6.80
  -1  -7  -4    2.40    1.30
  -1  -7  -4    0.00    0.80
   1   7   4    0.80    1.10
   1   7   4    0.80    1.10
   1   7   4    1.00    1.00
   1   7   4   -0.60    0.80
   1   7   4    1.50    1.30
  -2  -7  -4   41.20    3.50
  -2  -7  -4   43.50    3.90
   2   7   4   40.70    4.40
   2   7   4   35.40    4.00
   2   7   4   44.40    4.90
   2   7   4   46.40    5.20
  -3  -7  -4  132.99    7.20
  -3  -7  -4  128.59    6.80
   3   7   4  136.69    7.30
   3   7   4  114.09    7.10
   3   7   4  114.79    6.70
   3   7   4  120.09   10.10
  -4  -7  -4  333.17   17.60
  -4  -7  -4  303.17   12.20
   4   7   4  315.77   12.80
   4   7   4  312.67   12.50
   4   7   4  304.27   12.90
  -5  -7  -4   29.40    4.30
   5   7   4   33.10    4.80
   5   7   4   26.10    4.30
   5   7   4   22.00    3.90
  -6  -7  -4   73.99    7.80
  -6  -7  -4   80.69    6.40
   6   7   4   77.89    6.30
   6   7   4   70.29    6.50
   6   7   4   81.29    6.60
  -7  -7  -4   -1.40    1.30
  -7  -7  -4   -1.60    2.00
   7   7   4    0.60    1.40
   7   7   4   -0.10    1.60
  -4   8   4   53.29    5.60
  -4   8   4   64.99    7.60
  -4   8   4   54.79    4.50
  -3   8   4   14.80    2.70
  -3   8   4   16.30    2.90
  -2   8   4    0.50    1.40
  -2   8   4    2.60    1.30
  -1   8   4    2.30    1.40
  -1   8   4    4.10    1.60
  -1   8   4    1.40    1.40
   0   8   4   10.30    2.40
   0   8   4    9.40    2.10
   0   8   4    9.30    2.30
  -1  -8  -4  129.89    6.60
   1   8   4  133.69    7.00
   1   8   4  122.39    7.30
   1   8   4  119.39    6.50
  -2  -8  -4   42.20    4.40
   2   8   4   47.60    5.60
   2   8   4   54.59    5.40
   2   8   4   38.20    4.60
  -3  -8  -4    3.50    1.80
   3   8   4    3.40    1.80
   3   8   4    8.40    2.50
   3   8   4    7.80    2.40
  -4  -8  -4    2.30    1.60
   4   8   4    4.70    2.10
   4   8   4    2.90    2.00
   4   8   4    7.90    2.50
  -5  -8  -4    3.70    2.10
   5   8   4    2.70    1.80
   5   8   4    1.80    1.80
   5   8   4    1.70    1.60
  -6  -8  -4   -0.60    1.40
   6   8   4    0.60    1.60
   6   8   4    1.60    1.70
  -7  -8  -4    4.50    2.20
   7   8   4    4.20    2.70
  -3   9   4   25.50    3.90
  -3   9   4   15.70    3.20
  -2   9   4    0.10    1.20
  -2   9   4   -0.20    1.50
  -1   9   4    5.80    2.10
  -1   9   4    5.80    2.10
   0   9   4    6.30    2.20
   0   9   4    6.30    2.30
   1   9   4   30.60    4.70
   1   9   4   20.60    3.70
   1   9   4   32.30    3.90
  -2  -9  -4   12.40    2.80
   2   9   4    6.00    1.80
   2   9   4   15.30    3.40
   2   9   4    5.60    2.40
  -3  -9  -4   24.90    3.90
   3   9   4   32.90    4.90
   3   9   4   29.60    4.40
   3   9   4   29.10    4.70
  -4  -9  -4   17.20    3.50
   4   9   4   19.10    3.80
   4   9   4   21.80    4.30
   4   9   4   16.90    3.50
  -5  -9  -4    6.10    2.50
   5   9   4    8.50    3.00
   5   9   4    9.00    2.90
   5   9   4   13.80    3.90
  -6  -9  -4   15.50    3.70
   6   9   4   12.20    3.50
  -1  10   4    0.50    1.80
  -1  10   4    0.20    1.80
   0  10   4    1.70    1.80
   0  10   4    2.80    2.10
   1  10   4   17.40    3.70
   1  10   4   17.70    3.80
   2  10   4   -0.10    1.90
   2  10   4    1.70    2.10
   2  10   4    0.30    1.50
   3  10   4   15.10    3.80
   3  10   4   17.30    4.10
   3  10   4   12.80    3.00
  -4 -10  -4    0.80    1.80
   4  10   4    4.00    2.80
   4  10   4    3.50    2.10
   4  10   4    5.30    2.60
  -5 -10  -4    3.70    2.50
   5  10   4    7.50    3.30
   0   8  -5    1.40    2.20
   0  -8   5    2.90    2.20
   0  -8   5    6.50    2.90
  -1   8  -5    7.60    3.00
   1  -8   5    8.70    3.00
   1  -8   5   11.00    3.40
  -2   8  -5    1.10    2.40
   2  -8   5   -0.80    1.50
   2  -8   5   -0.30    1.70
  -2  -7   5   11.50    3.20
  -2  -7   5    5.40    2.80
  -2  -7   5    3.10    2.60
   1   7  -5   36.00    5.00
  -1  -7   5   28.70    5.60
  -1  -7   5   39.30    5.70
  -1  -7   5   38.70    5.40
   0   7  -5   33.60    5.20
   0  -7   5   29.90    5.00
   0  -7   5   20.00    4.80
   0  -7   5   26.00    4.70
  -1   7  -5   21.10    4.10
   1  -7   5   35.30    5.10
   1  -7   5   44.20    7.20
   1  -7   5   34.00    5.30
  -2   7  -5    1.30    1.90
   2  -7   5   -0.70    1.60
   2  -7   5   -0.50    1.20
  -3   7  -5    7.00    2.80
   3  -7   5    3.60    2.30
   3  -7   5    6.10    2.50
  -4   7  -5    9.00    3.30
   4  -7   5   17.20    3.90
   4  -7   5    9.50    3.10
  -3  -6   5   -0.70    1.80
  -3  -6   5   -0.10    1.20
  -3  -6   5   -0.20    1.50
  -2  -6   5   51.29    6.40
  -2  -6   5   65.29    6.80
  -2  -6   5   66.09    8.00
   1   6  -5    3.70    1.90
  -1  -6   5    4.20    2.30
  -1  -6   5    4.30    1.80
  -1  -6   5    2.10    1.80
   0   6  -5    1.20    1.60
   0  -6   5    2.30    2.10
   0  -6   5    0.00    1.30
   0  -6   5    0.40    1.60
  -1   6  -5   38.50    4.90
   1  -6   5   57.69    7.70
   1  -6   5   51.99    5.90
   1  -6   5   51.69    6.10
  -2   6  -5   93.39    7.00
   2  -6   5  109.29    7.60
   2  -6   5  100.69    7.00
   2  -6   5  107.69    9.00
  -3   6  -5   19.00    3.50
   3  -6   5   29.40    4.50
   3  -6   5   31.20    4.50
  -4   6  -5   23.30    4.40
   4  -6   5   19.00    3.80
   4  -6   5   22.50    4.10
  -5   6  -5   17.20    4.30
   5  -6   5   14.70    3.60
   5  -6   5   13.90    3.60
  -6   6  -5   13.00    3.90
   6  -6   5   25.20    4.90
   6  -6   5   19.80    4.10
  -4  -5   5   -0.90    1.50
  -4  -5   5   -0.10    1.70
  -4  -5   5    0.10    1.20
  -3  -5   5   16.40    3.90
  -3  -5   5   17.00    3.80
  -3  -5   5   16.70    3.30
   2   5  -5   73.29    5.50
  -2  -5   5   62.09    6.90
  -2  -5   5   56.39    5.80
  -2  -5   5   71.29    7.20
   1   5  -5   95.69    6.30
  -1  -5   5   99.59    6.40
  -1  -5   5   96.59    7.20
  -1  -5   5  102.79    7.60
   0   5  -5    2.60    1.50
   0  -5   5    1.00    1.20
   0  -5   5    4.10    2.10
   0  -5   5    1.60    1.60
  -1   5  -5  162.98    8.60
   1  -5   5  181.08    9.50
   1  -5   5  162.98    8.50
   1  -5   5  173.28   10.30
  -2   5  -5    0.40    1.40
  -2   5  -5    1.10    1.30
  -2   5  -5    0.50    0.80
  -2   5  -5    0.20    0.80
   2  -5   5    1.10    1.80
   2  -5   5   -0.50    0.90
   2  -5   5   -0.10    1.20
  -3   5  -5  161.18    9.20
  -3   5  -5  159.38    7.20
  -3   5  -5  170.48    9.10
  -3   5  -5  160.58    6.30
   3  -5   5  160.18    8.70
   3  -5   5  174.28    9.20
   3  -5   5  140.69   10.00
   3  -5   5  152.28    7.00
   3  -5   5  180.88    9.00
  -4   5  -5    2.00    1.40
  -4   5  -5    2.20    1.50
  -4   5  -5    1.90    1.70
  -4   5  -5    2.80    2.00
   4  -5   5    2.70    2.80
   4  -5   5    2.00    1.40
   4  -5   5    1.80    1.50
   4  -5   5    1.90    1.20
  -5   5  -5    6.40    2.50
  -5   5  -5    2.10    2.10
  -5   5  -5    6.10    2.00
  -5   5  -5    5.80    3.20
   5  -5   5    5.00    2.10
   5  -5   5    5.10    2.10
  -6   5  -5    1.60    2.40
  -6   5  -5    0.10    1.90
  -6   5  -5   -1.30    1.70
   6  -5   5    0.60    1.60
   6  -5   5   -0.30    1.40
  -7   5  -5   10.90    3.50
   7  -5   5    7.40    3.00
  -5  -4   5    3.90    2.10
  -5  -4   5    9.80    2.70
  -5  -4   5    4.60    2.60
  -4  -4   5   73.69    5.60
  -4  -4   5   72.29    7.60
  -4  -4   5   54.19    6.30
  -3  -4   5    7.40    2.50
  -3  -4   5    6.00    2.10
  -3  -4   5    6.50    2.40
  -3  -4   5    4.80    2.30
   2   4  -5   14.80    2.70
  -2  -4   5   17.70    3.00
  -2  -4   5   13.80    3.10
  -2  -4   5   14.80    3.20
   1   4  -5   13.10    2.70
  -1  -4   5   10.40    2.70
  -1  -4   5    9.70    2.30
  -1  -4   5   15.20    3.10
   0   4  -5   16.10    2.90
   0   4  -5   15.40    3.00
   0  -4   5   23.10    3.40
   0  -4   5   15.60    3.40
   0  -4   5   12.40    2.80
   0  -4   5   17.70    4.00
  -1   4  -5   49.50    4.30
  -1   4  -5   48.10    2.00
  -1   4  -5   41.00    4.30
  -1   4  -5   48.10    2.30
   1  -4   5   41.50    4.90
   1  -4   5   50.49    4.20
   1  -4   5   49.60    5.40
   1  -4   5   39.50    5.40
  -2   4  -5  203.98    9.60
  -2   4  -5  205.08    7.20
  -2   4  -5  203.88    6.10
  -2   4  -5  195.28    9.20
   2  -4   5  207.68   11.20
   2  -4   5  201.98    7.00
   2  -4   5  200.38    9.70
   2  -4   5  199.58    9.20
   2  -4   5  191.28    9.60
  -3   4  -5    1.70    1.30
  -3   4  -5    1.50    1.40
  -3   4  -5    2.20    1.10
  -3   4  -5    1.70    1.00
   3  -4   5    1.60    1.10
   3  -4   5    2.20    1.10
   3  -4   5    1.80    1.40
   3  -4   5    4.30    1.90
   3  -4   5   -0.50    1.20
  -4   4  -5   90.89    4.80
  -4   4  -5   85.39    6.30
  -4   4  -5   93.19    5.70
  -4   4  -5   90.79    6.80
   4  -4   5   90.69    7.60
   4  -4   5   88.09    6.30
   4  -4   5   94.79    5.80
   4  -4   5  103.09    5.70
   4  -4   5   93.49    6.30
  -5   4  -5   -0.20    1.70
  -5   4  -5   -0.70    1.30
  -5   4  -5    1.10    1.30
  -5   4  -5    0.10    1.40
   5  -4   5   -0.40    0.80
   5  -4   5    0.50    1.10
   5  -4   5   -0.10    1.10
  -6   4  -5  162.58   10.20
  -6   4  -5  143.79    7.80
  -6   4  -5  147.69    9.20
   6  -4   5  148.99    8.80
   6  -4   5  149.49    8.70
  -7   4  -5   49.30    5.60
  -7   4  -5   43.80    6.20
  -7   4  -5   37.00    5.20
   7  -4   5   48.40    6.00
  -5  -3   5   31.60    6.30
  -5  -3   5   26.60    4.30
  -5  -3   5   22.50    4.50
  -5  -3   5   17.30    3.20
  -4  -3   5   21.40    3.30
  -4  -3   5   26.90    3.70
  -4  -3   5   23.50    4.40
  -4  -3   5   23.10    3.80
  -3  -3   5    1.90    1.20
  -3  -3   5    0.60    1.20
  -3  -3   5   -0.70    1.00
  -3  -3   5    1.00    1.50
   2   3  -5  150.18    6.90
  -2  -3   5  149.79    7.90
  -2  -3   5  143.49    8.20
  -2  -3   5  146.59    5.80
  -2  -3   5  147.69    7.00
   1   3  -5    0.30    0.60
   1   3  -5   -0.40    0.80
   1   3  -5    1.70    1.00
  -1  -3   5    0.00    0.90
  -1  -3   5    0.60    1.00
  -1  -3   5    0.70    1.20
  -1  -3   5    0.60    0.80
  -1  -3   5    2.40    1.50
   0   3  -5   58.79    4.20
   0   3  -5   65.69    4.50
   0  -3   5   64.19    5.20
   0  -3   5   68.59    4.70
   0  -3   5   72.39    5.00
   0  -3   5   67.39    4.50
   0  -3   5   69.49    5.30
  -1   3  -5   74.49    5.00
  -1   3  -5   69.39    4.70
   1  -3   5   69.19    4.60
   1  -3   5   69.39    5.50
   1  -3   5   71.69    5.00
   1  -3   5   75.89    2.80
   1  -3   5   74.19    5.40
  -2   3  -5   37.90    1.70
  -2   3  -5   43.00    4.70
  -2   3  -5   40.60    4.20
  -2   3  -5   36.50    2.50
   2  -3   5   46.00    5.70
   2  -3   5   40.80    4.40
   2  -3   5   37.20    2.50
   2  -3   5   41.10    4.20
   2  -3   5   41.50    4.70
  -3   3  -5  268.17   11.20
  -3   3  -5  272.47    9.50
  -3   3  -5  278.67    8.10
  -3   3  -5  273.47   10.90
   3  -3   5  263.97    9.30
   3  -3   5  276.77   12.60
   3  -3   5  259.87   10.60
   3  -3   5  260.07   11.20
   3  -3   5  289.37   11.40
   3  -3   5  268.97   11.30
  -4   3  -5  294.77   12.00
  -4   3  -5  288.77   10.90
  -4   3  -5  294.57   12.40
  -4   3  -5  297.57    9.60
   4  -3   5  279.17   11.50
   4  -3   5  304.67   13.80
   4  -3   5  293.27   11.30
   4  -3   5  292.87   10.60
   4  -3   5  286.37   11.80
  -5   3  -5   -0.50    0.80
  -5   3  -5    0.60    1.40
  -5   3  -5    0.30    1.40
  -5   3  -5    0.00    1.20
   5  -3   5   -0.30    1.20
   5  -3   5    1.40    1.10
   5  -3   5   -0.30    0.80
   5  -3   5   -0.10    0.90
   5  -3   5   -0.10    1.00
  -6   3  -5   27.60    3.80
  -6   3  -5   21.60    3.70
  -6   3  -5   25.00    4.30
   6  -3   5   32.80    4.70
   6  -3   5   28.50    4.10
  -7   3  -5   42.20    5.30
  -7   3  -5   54.09    7.00
  -7   3  -5   63.69    6.30
   7  -3   5   72.59    7.40
  -8   3  -5   17.10    4.60
  -8   3  -5   17.60    4.30
  -8   3  -5   25.20    4.70
   8  -3   5   16.00    3.50
  -5  -2   5   82.49    5.30
  -5  -2   5   81.89    6.20
  -5  -2   5   78.79    7.90
  -5  -2   5   88.19    6.20
  -4  -2   5  163.18    8.20
  -4  -2   5  171.88    9.50
  -4  -2   5  180.78    8.20
  -4  -2   5  176.68    7.70
  -3  -2   5  207.48   10.10
  -3  -2   5  221.38    9.60
  -3  -2   5  212.08    8.30
  -3  -2   5  203.28    9.00
  -3  -2   5  216.68    8.20
   2   2  -5    0.70    0.90
   2   2  -5    1.70    0.90
  -2  -2   5    0.40    1.20
  -2  -2   5    0.20    0.90
  -2  -2   5    1.30    0.90
  -2  -2   5    0.20    0.70
  -2  -2   5    1.30    0.90
  -2  -2   5    0.30    0.80
   1   2  -5   32.00    2.80
   1   2  -5   32.30    2.70
  -1  -2   5   35.90    3.80
  -1  -2   5   29.20    3.10
  -1  -2   5   31.90    3.80
  -1  -2   5   33.30    4.00
  -1  -2   5   33.00    1.90
  -1  -2   5   31.50    3.30
   0   2  -5   33.80    3.40
   0   2  -5   29.30    2.70
   0  -2   5   32.00    4.00
   0  -2   5   33.10    3.10
   0  -2   5   37.70    3.80
   0  -2   5   29.90    3.10
   0  -2   5   27.70    3.60
  -1   2  -5  190.48    7.60
   1  -2   5  193.38    7.90
   1  -2   5  187.08    8.60
   1  -2   5  172.98    8.50
   1  -2   5  184.48    5.50
   1  -2   5  186.68    7.60
   1  -2   5  183.68    8.00
  -2   2  -5    7.20    1.80
  -2   2  -5    7.50    1.30
  -2   2  -5    6.60    1.80
   2  -2   5    7.50    1.30
   2  -2   5    7.40    1.70
   2  -2   5    7.90    2.00
   2  -2   5    4.30    1.60
   2  -2   5    8.50    2.40
   2  -2   5    5.00    1.80
  -3   2  -5    1.80    0.90
  -3   2  -5    0.70    1.00
  -3   2  -5    1.20    0.70
  -3   2  -5    0.00    0.70
   3  -2   5    1.40    1.20
   3  -2   5    1.30    1.00
   3  -2   5    1.10    0.90
   3  -2   5    0.90    1.10
   3  -2   5    2.00    1.30
   3  -2   5    0.30    0.70
  -4   2  -5  128.09    7.20
  -4   2  -5  131.99    6.40
  -4   2  -5  129.89    5.40
  -4   2  -5  125.29    6.90
   4  -2   5  123.29    6.10
   4  -2   5  137.69    8.20
   4  -2   5  128.19    6.70
   4  -2   5  106.39    6.50
   4  -2   5  123.19    6.80
   4  -2   5  128.09    7.20
  -5   2  -5  261.77    9.70
  -5   2  -5  266.87   11.80
  -5   2  -5  266.67   11.40
  -5   2  -5  276.07   11.10
   5  -2   5  279.27   11.20
   5  -2   5  283.87   12.70
   5  -2   5  270.77   10.30
   5  -2   5  275.97   10.80
   5  -2   5  261.27   11.20
  -6   2  -5   17.40    3.50
  -6   2  -5   17.90    3.60
  -6   2  -5   14.10    3.00
  -6   2  -5   17.30    3.00
   6  -2   5   17.50    2.70
   6  -2   5   12.70    2.70
   6  -2   5   16.60    3.50
   6  -2   5   11.20    2.50
  -7   2  -5   10.00    2.90
  -7   2  -5   13.10    3.50
  -7   2  -5   11.10    3.10
   7  -2   5   13.80    3.20
  -8   2  -5   18.10    4.00
  -8   2  -5   25.20    5.10
  -8   2  -5   30.10    4.90
   8  -2   5   29.40    4.90
  -6  -1   5   -0.40    1.10
  -6  -1   5    1.40    2.20
  -6  -1   5   -0.50    1.30
  -5  -1   5  193.18    8.90
  -5  -1   5  197.48    8.10
  -5  -1   5  213.38    9.90
  -4  -1   5  104.09    5.90
  -4  -1   5  110.89    7.40
  -4  -1   5  109.09    5.30
  -4  -1   5  113.19    6.40
  -3  -1   5  154.08    7.00
  -3  -1   5  166.48    7.10
  -3  -1   5  168.98    5.80
  -3  -1   5  160.48    8.50
  -3  -1   5  163.38    6.50
  -3  -1   5  165.88    7.10
   2   1  -5   65.09    3.30
  -2  -1   5   53.49    3.30
  -2  -1   5   58.29    3.90
  -2  -1   5   69.59    3.80
  -2  -1   5   64.19    3.60
  -2  -1   5   68.19    4.00
  -2  -1   5   54.39    4.50
  -2  -1   5   60.49    2.60
   1   1  -5   42.20    2.60
   1   1  -5   37.50    2.60
  -1  -1   5   42.20    2.80
  -1  -1   5   40.20    3.20
  -1  -1   5   39.40    4.20
  -1  -1   5   42.70    3.10
  -1  -1   5   44.20    3.00
  -1  -1   5   42.50    1.70
  -1  -1   5   40.10    2.20
   0   1  -5    5.10    1.20
   0   1  -5    4.30    1.10
   0  -1   5    5.10    1.50
   0  -1   5    4.00    1.30
   0  -1   5    2.00    1.10
   0  -1   5    3.60    1.10
   0  -1   5    3.20    0.60
   0  -1   5    5.60    1.30
  -1   1  -5  496.35   14.50
  -1   1  -5  522.55   14.80
   1  -1   5  520.15   16.40
   1  -1   5  529.85   15.30
   1  -1   5  520.45   14.90
   1  -1   5  508.85   14.70
   1  -1   5  484.65   16.00
   1  -1   5  512.45   13.00
  -2   1  -5  306.57   10.70
  -2   1  -5  317.17   10.60
   2  -1   5  319.97   11.70
   2  -1   5  315.97   12.50
   2  -1   5  341.97   10.90
   2  -1   5  317.27    9.40
   2  -1   5  324.37   11.10
   2  -1   5  326.67   12.20
   2  -1   5  309.57   10.60
  -3   1  -5   14.70    2.10
  -3   1  -5   18.90    2.90
  -3   1  -5   17.50    1.50
  -3   1  -5   19.40    2.80
   3  -1   5   16.30    2.70
   3  -1   5   13.20    2.60
   3  -1   5   17.00    2.20
   3  -1   5   19.00    2.70
   3  -1   5   17.00    2.90
   3  -1   5   20.10    2.90
  -4   1  -5  125.39    6.60
  -4   1  -5  136.19    7.00
  -4   1  -5  123.89    6.20
  -4   1  -5  134.49    5.40
   4  -1   5  136.19    7.00
   4  -1   5  130.79    6.20
   4  -1   5  128.39    5.30
   4  -1   5  131.49    7.00
   4  -1   5  125.39    6.50
   4  -1   5  141.49    7.90
   4  -1   5  131.79    7.00
  -5   1  -5    5.50    1.70
  -5   1  -5    4.00    1.90
  -5   1  -5    7.50    1.90
  -5   1  -5    6.70    2.00
   5  -1   5    5.60    2.00
   5  -1   5    8.10    1.90
   5  -1   5    8.90    2.10
   5  -1   5    8.00    2.10
   5  -1   5    3.20    1.30
  -6   1  -5  148.79    8.40
  -6   1  -5  168.68    9.20
  -6   1  -5  154.38    8.30
  -6   1  -5  151.88    7.60
   6  -1   5  147.39    8.00
   6  -1   5  159.68    7.50
   6  -1   5  160.48    8.20
   6  -1   5  166.68    9.10
  -7   1  -5    9.20    3.10
  -7   1  -5    7.60    2.40
  -7   1  -5    8.90    2.50
   7  -1   5    7.80    1.90
   7  -1   5    8.10    2.30
  -8   1  -5    2.10    2.00
  -8   1  -5    2.80    2.10
  -8   1  -5   -0.30    1.90
   8  -1   5    2.40    1.80
  -6   0   5  104.29    7.90
  -6   0   5   95.79    5.20
  -6   0   5   87.19    5.80
  -5   0   5    1.30    1.00
  -5   0   5    1.60    1.00
  -5   0   5    2.10    1.90
  -4   0   5  238.28    9.90
  -4   0   5  238.38    8.70
  -4   0   5  223.38    8.60
  -4   0   5  245.78    8.00
  -4   0   5  237.38    8.90
  -3   0   5    2.60    1.00
  -3   0   5    4.50    1.10
  -3   0   5    4.40    1.10
  -3   0   5    2.30    1.00
  -3   0   5    3.10    1.10
  -3   0   5    3.10    1.70
  -3   0   5    3.50    1.50
   2   0  -5  115.89    3.70
   2   0  -5  107.59    3.60
  -2   0   5  111.89    4.50
  -2   0   5  117.39    4.90
  -2   0   5  110.79    4.50
  -2   0   5  111.39    4.80
  -2   0   5  108.89    4.40
  -2   0   5  105.89    6.20
  -2   0   5  108.09    4.90
   1   0  -5  297.97    8.10
  -1   0   5  296.87    8.40
  -1   0   5  293.47   10.90
  -1   0   5  282.87    8.60
  -1   0   5  295.37    9.10
  -1   0   5  303.47    8.70
  -1   0   5  291.97    8.50
  -1   0   5  276.37    9.20
   0   0  -5   13.60    1.50
   0   0  -5    8.80    1.30
   0   0  -5   10.20    1.40
   0   0   5    6.60    1.40
   0   0   5   11.60    1.60
   0   0   5   10.10    1.50
   0   0   5    8.60    1.90
   0   0   5    8.50    0.90
   0   0   5    8.30    1.40
  -1   0  -5    7.60    1.40
  -1   0  -5    8.20    1.50
   1   0   5   10.60    1.70
   1   0   5    8.70    1.50
   1   0   5    9.20    1.30
   1   0   5    7.30    1.40
   1   0   5    7.50    1.80
   1   0   5    8.60    2.20
   1   0   5    8.20    1.90
  -2   0  -5    2.20    0.80
  -2   0  -5    1.10    0.70
   2   0   5    1.40    0.80
   2   0   5    1.30    0.90
   2   0   5    1.40    1.10
   2   0   5    1.00    0.70
   2   0   5    1.10    0.40
   2   0   5    2.20    1.00
   2   0   5    0.50    1.00
   2   0   5    1.60    1.00
  -3   0  -5    3.10    0.90
  -3   0  -5    2.50    1.00
  -3   0  -5    0.90    0.90
   3   0   5    2.30    1.00
   3   0   5    3.00    1.00
   3   0   5    2.40    1.10
   3   0   5    2.20    0.70
   3   0   5    2.10    1.00
   3   0   5    2.50    1.20
   3   0   5    2.00    1.00
   3   0   5    0.50    0.60
  -4   0  -5   43.10    3.50
  -4   0  -5   41.30    3.50
  -4   0  -5   42.70    3.80
  -4   0  -5   42.10    2.90
   4   0   5   45.40    2.90
   4   0   5   47.10    3.50
   4   0   5   43.20    3.50
   4   0   5   49.30    3.90
   4   0   5   42.30    3.70
   4   0   5   44.50    4.90
   4   0   5   44.90    4.60
  -5   0  -5    3.70    1.60
  -5   0  -5    6.80    1.80
  -5   0  -5    2.60    1.30
  -5   0  -5    6.50    2.00
   5   0   5    6.10    1.90
   5   0   5    4.50    1.80
   5   0   5    7.90    2.00
   5   0   5    8.10    2.10
   5   0   5    8.40    2.40
   5   0   5    6.80    1.80
  -6   0  -5   15.20    2.80
  -6   0  -5   14.40    3.00
  -6   0  -5   12.70    2.80
  -6   0  -5   16.80    2.90
   6   0   5   22.00    3.80
   6   0   5   14.70    2.60
   6   0   5   15.00    2.90
   6   0   5   18.80    3.20
  -7   0  -5    9.50    2.60
  -7   0  -5    6.10    2.10
  -7   0  -5    8.50    2.90
   7   0   5    7.20    2.00
   7   0   5    9.60    2.40
  -8   0  -5   10.40    3.20
  -8   0  -5   11.50    3.00
  -8   0  -5    8.40    3.00
   8   0   5    8.60    2.40
   8   0   5    9.50    2.50
  -9   0  -5   19.30    4.70
  -9   0  -5   12.50    3.80
  -9   0  -5   13.00    3.70
   9   0   5   12.30    3.30
  -6   1   5    8.70    2.10
  -6   1   5    7.80    3.20
  -5   1   5   12.30    1.80
  -5   1   5   19.60    4.40
  -5   1   5   17.80    3.60
  -5   1   5   12.00    2.20
  -4   1   5    0.40    0.70
  -4   1   5    0.70    1.20
  -4   1   5   -0.60    0.50
  -4   1   5    1.00    1.40
  -4   1   5    1.00    0.80
  -3   1   5    0.70    0.70
  -3   1   5    0.90    0.70
  -3   1   5    0.20    0.90
  -3   1   5    0.70    1.00
  -3   1   5    0.30    0.50
  -2   1   5    2.70    0.60
  -2   1   5    2.90    0.60
  -2   1   5    3.10    1.00
  -2   1   5    3.50    0.90
  -2   1   5    2.90    1.30
  -2   1   5    0.90    0.90
  -2   1   5    2.70    0.70
  -1   1   5   86.49    3.20
  -1   1   5   75.99    4.70
  -1   1   5   85.19    3.40
  -1   1   5   73.19    3.40
  -1   1   5   85.39    4.00
  -1   1   5   82.99    3.10
  -1   1   5   86.39    4.00
   0  -1  -5    0.60    0.40
   0  -1  -5    0.30    0.30
   0   1   5    0.20    0.70
   0   1   5    0.10    0.40
   0   1   5    0.30    0.60
   0   1   5    1.20    0.60
   0   1   5    0.70    0.50
  -1  -1  -5  268.17    7.70
  -1  -1  -5  274.47   12.10
  -1  -1  -5  239.78    7.60
  -1  -1  -5  259.77    7.70
   1   1   5  246.68    9.20
   1   1   5  250.27   10.80
   1   1   5  257.27    7.20
   1   1   5  240.38    8.80
   1   1   5  265.37    8.10
   1   1   5  253.87    8.20
   1   1   5  245.88    7.80
  -2  -1  -5   81.79    4.00
  -2  -1  -5   72.19    3.70
   2   1   5   70.59    3.90
   2   1   5   79.79    4.60
   2   1   5   74.29    5.30
   2   1   5   74.79    3.90
   2   1   5   77.59    3.20
   2   1   5   72.99    4.40
   2   1   5   72.29    3.80
   2   1   5   74.79    4.10
  -3  -1  -5  357.86   11.30
  -3  -1  -5  357.06   11.60
  -3  -1  -5  350.16   10.20
   3   1   5  365.26   11.90
   3   1   5  354.66   11.30
   3   1   5  348.67   12.20
   3   1   5  358.46   10.20
   3   1   5  341.87   11.80
   3   1   5  389.76   11.80
   3   1   5  347.37   11.30
   3   1   5  356.16   13.20
  -4  -1  -5   48.10    3.70
  -4  -1  -5   49.00    3.90
  -4  -1  -5   49.60    3.30
   4   1   5   47.80    4.10
   4   1   5   51.99    3.70
   4   1   5   47.80    3.10
   4   1   5   55.59    3.80
   4   1   5   50.59    3.80
   4   1   5   49.40    3.90
   4   1   5   48.10    4.00
  -5  -1  -5    2.10    1.20
  -5  -1  -5    2.60    1.30
  -5  -1  -5    3.40    1.50
  -5  -1  -5    1.20    1.00
   5   1   5   -0.30    0.80
   5   1   5    0.20    0.70
   5   1   5    2.00    1.20
   5   1   5    1.00    0.90
   5   1   5    1.20    1.10
   5   1   5    1.20    1.00
  -6  -1  -5   91.29    6.10
  -6  -1  -5   81.69    6.10
  -6  -1  -5   84.89    5.80
  -6  -1  -5   92.89    5.80
   6   1   5  105.49    6.30
   6   1   5   91.29    6.20
   6   1   5   87.79    5.70
   6   1   5   88.19    5.70
  -7  -1  -5    4.90    2.30
  -7  -1  -5    2.30    1.70
  -7  -1  -5   12.40    2.90
   7   1   5    3.90    1.70
   7   1   5    3.40    1.60
  -8  -1  -5    6.90    2.70
  -8  -1  -5    8.20    2.90
  -8  -1  -5    7.20    2.60
   8   1   5   10.10    2.70
   8   1   5    6.70    2.40
  -9  -1  -5    2.90    2.60
  -9  -1  -5    5.30    3.20
  -9  -1  -5    0.10    2.00
   9   1   5    4.10    2.20
   9   1   5    4.60    2.40
  -6   2   5   24.00    4.60
  -6   2   5   19.20    2.70
  -5   2   5   20.90    2.80
  -5   2   5   22.00    3.80
  -5   2   5   19.60    2.80
  -5   2   5   23.80    4.30
  -5   2   5   16.90    2.20
  -4   2   5   64.69    4.90
  -4   2   5   52.59    3.00
  -4   2   5   66.69    5.30
  -4   2   5   57.39    3.20
  -3   2   5   12.70    1.30
  -3   2   5   13.50    2.60
  -3   2   5   11.40    2.10
  -3   2   5   12.40    1.30
  -2   2   5  120.79    5.80
  -2   2   5  114.49    6.10
  -2   2   5  119.69    5.80
  -1   2   5   80.49    3.00
  -1   2   5   87.39    2.90
  -1   2   5   85.59    4.40
  -1   2   5   89.79    4.80
   0   2   5  506.25   13.70
   0   2   5  528.45   13.00
   0   2   5  515.15   17.80
   0   2   5  545.35   13.20
   0   2   5  519.95   15.40
   0   2   5  560.54   13.60
  -1  -2  -5  392.46   10.50
  -1  -2  -5  396.96   11.70
  -1  -2  -5  399.06   10.40
  -1  -2  -5  392.36   10.50
   1   2   5  392.46   14.40
   1   2   5  382.06   12.10
   1   2   5  389.16   10.70
   1   2   5  411.06   11.00
   1   2   5  364.46   11.30
   1   2   5  403.26   11.20
  -2  -2  -5   28.40    2.30
  -2  -2  -5   27.40    2.20
  -2  -2  -5   35.40    2.80
   2   2   5   31.00    2.30
   2   2   5   30.30    2.60
   2   2   5   29.10    2.50
   2   2   5   33.00    4.10
   2   2   5   31.70    2.40
   2   2   5   34.40    3.30
   2   2   5   29.00    2.20
  -3  -2  -5   -0.10    0.60
  -3  -2  -5    0.40    0.90
  -3  -2  -5    0.10    0.60
  -3  -2  -5    0.70    0.80
   3   2   5    1.80    0.80
   3   2   5    1.80    0.90
   3   2   5    0.30    0.60
   3   2   5    0.50    0.80
   3   2   5    1.70    0.90
   3   2   5    0.80    1.00
   3   2   5    1.20    0.80
   3   2   5    0.30    0.70
  -4  -2  -5    1.60    1.10
  -4  -2  -5    1.90    1.10
  -4  -2  -5    3.40    1.20
   4   2   5    0.20    0.80
   4   2   5    3.50    1.40
   4   2   5    2.50    1.10
   4   2   5    2.80    1.30
   4   2   5    3.20    1.10
   4   2   5    2.90    1.20
  -5  -2  -5    0.80    1.20
  -5  -2  -5   -0.10    0.70
  -5  -2  -5    0.90    1.10
   5   2   5    0.70    1.10
   5   2   5   -0.70    0.70
   5   2   5    0.80    0.90
   5   2   5   -0.20    0.70
   5   2   5    0.40    1.00
  -6  -2  -5   18.50    3.20
  -6  -2  -5   14.80    3.10
  -6  -2  -5   10.10    2.40
   6   2   5   18.20    3.20
   6   2   5   14.50    2.70
   6   2   5   14.70    2.90
  -7  -2  -5  106.59    7.10
  -7  -2  -5  112.19    7.70
  -7  -2  -5  100.29    6.90
   7   2   5  107.99    7.30
   7   2   5  108.99    7.00
   7   2   5  111.29    6.90
  -8  -2  -5    6.00    2.90
  -8  -2  -5   16.20    3.70
  -8  -2  -5   15.60    3.80
   8   2   5   15.30    3.10
   8   2   5   12.00    2.90
  -9  -2  -5   18.00    4.50
  -9  -2  -5   23.50    4.60
   9   2   5   24.10    4.40
   9   2   5   26.80    4.90
  -6   3   5    0.40    1.10
  -6   3   5    4.00    3.00
  -5   3   5   23.60    4.30
  -5   3   5   23.10    2.50
  -5   3   5   25.00    3.10
  -4   3   5   14.90    2.00
  -4   3   5   11.60    2.60
  -4   3   5   11.10    1.40
  -4   3   5    8.80    2.70
  -3   3   5   40.20    4.30
  -3   3   5   51.89    4.50
  -2   3   5  139.29    6.70
  -2   3   5  142.69    6.80
  -2   3   5  142.59    8.20
  -1   3   5    2.40    1.10
  -1   3   5    3.60    1.20
  -1   3   5    4.30    1.70
   0   3   5    0.80    1.30
   0   3   5    1.00    0.40
   0   3   5    0.40    0.40
   0   3   5    1.30    0.80
   0   3   5    1.60    0.60
  -1  -3  -5  273.37    7.90
  -1  -3  -5  279.07    8.60
  -1  -3  -5  289.07    7.80
  -1  -3  -5  274.67    7.90
   1   3   5  270.57    8.20
   1   3   5  281.67    9.20
   1   3   5  274.17    8.60
   1   3   5  291.17   11.60
   1   3   5  275.07    8.50
   1   3   5  281.77    8.30
  -2  -3  -5   48.30    3.10
  -2  -3  -5   50.29    3.00
  -2  -3  -5   48.20    3.10
   2   3   5   54.99    3.40
   2   3   5   54.29    4.40
   2   3   5   52.59    3.40
   2   3   5   55.99    3.20
   2   3   5   45.40    3.10
  -3  -3  -5  225.48    8.20
  -3  -3  -5  222.18    8.10
   3   3   5  222.48    8.40
   3   3   5  224.88    7.90
   3   3   5  211.38    9.60
   3   3   5  228.18    8.70
   3   3   5  222.28    8.30
  -4  -3  -5  141.89    6.60
  -4  -3  -5  143.59    7.10
  -4  -3  -5  146.59    6.60
   4   3   5  133.59    6.70
   4   3   5  142.89    7.10
   4   3   5  135.99    6.50
   4   3   5  149.88    7.60
   4   3   5  146.19    7.00
   4   3   5  146.09    6.20
  -5  -3  -5   15.50    2.70
  -5  -3  -5   19.60    3.30
  -5  -3  -5   17.60    3.10
   5   3   5   21.10    3.20
   5   3   5   13.60    2.80
   5   3   5   18.20    3.20
   5   3   5   25.20    3.90
   5   3   5   14.80    2.40
  -6  -3  -5  185.88    9.00
  -6  -3  -5  193.08    9.80
  -6  -3  -5  192.48    9.20
   6   3   5  183.18    9.30
   6   3   5  191.18    9.00
   6   3   5  185.88    9.10
   6   3   5  225.68   11.40
  -7  -3  -5    2.00    1.80
  -7  -3  -5    0.80    1.80
  -7  -3  -5    1.00    1.40
   7   3   5    0.50    1.20
   7   3   5   -0.70    1.00
   7   3   5    1.30    1.40
  -8  -3  -5   99.79    8.20
  -8  -3  -5   82.29    6.80
  -8  -3  -5  113.79    8.00
   8   3   5   93.69    7.00
   8   3   5   95.39    7.00
  -9  -3  -5    1.00    2.60
  -9  -3  -5    2.80    2.20
   9   3   5    0.50    1.60
   9   3   5    0.80    1.90
  -5   4   5   16.10    2.60
  -5   4   5   19.50    4.30
  -5   4   5   17.20    2.20
  -4   4   5   13.40    1.90
  -4   4   5   12.70    1.50
  -4   4   5   16.10    3.70
  -4   4   5    5.90    2.40
  -3   4   5   -0.10    1.80
  -3   4   5    0.50    1.30
  -3   4   5    2.20    0.60
  -3   4   5    1.30    1.50
  -2   4   5  139.09    4.20
  -2   4   5  149.19    8.40
  -2   4   5  161.88    7.70
  -1   4   5   57.79    4.90
  -1   4   5   59.09    3.60
  -1   4   5   54.29    2.40
  -1   4   5   57.29    2.60
  -1   4   5   53.69    2.10
  -1   4   5   54.49    2.10
  -1   4   5   52.49    4.00
   0   4   5   34.40    2.20
   0   4   5   37.50    2.10
   0   4   5   35.30    4.40
   0   4   5   35.00    2.60
   0   4   5   34.60    2.30
   0   4   5   33.70    2.00
  -1  -4  -5  221.78    6.70
  -1  -4  -5  222.38    6.80
  -1  -4  -5  233.28    7.30
   1   4   5  211.78    7.40
   1   4   5  196.68    9.40
   1   4   5  220.48    7.40
   1   4   5  217.78    7.20
   1   4   5  228.78    7.30
   1   4   5  222.28    7.70
  -2  -4  -5    7.00    1.50
  -2  -4  -5    5.60    1.30
  -2  -4  -5    2.80    0.90
   2   4   5    7.00    1.60
   2   4   5    5.80    1.30
   2   4   5    5.20    1.30
   2   4   5    5.30    1.20
   2   4   5    1.80    1.40
   2   4   5    4.40    1.00
  -3  -4  -5    0.90    0.90
  -3  -4  -5    2.00    1.00
  -3  -4  -5    0.60    0.80
   3   4   5    2.40    1.20
   3   4   5    2.20    1.00
   3   4   5    1.30    1.00
   3   4   5    1.80    0.80
   3   4   5    1.40    1.00
   3   4   5    1.40    1.10
  -4  -4  -5    3.50    1.50
  -4  -4  -5    0.40    0.90
  -4  -4  -5    0.70    1.10
  -4  -4  -5    2.20    1.10
   4   4   5    3.10    1.40
   4   4   5    2.00    1.10
   4   4   5    2.50    1.20
   4   4   5    2.10    1.20
   4   4   5    2.00    1.10
  -5  -4  -5  164.58    8.00
  -5  -4  -5  161.48    8.40
  -5  -4  -5  162.08    8.00
   5   4   5  170.88    8.00
   5   4   5  169.58    8.60
   5   4   5  178.88    8.80
   5   4   5  170.78    8.40
   5   4   5  161.58    8.20
  -6  -4  -5   21.90    3.90
  -6  -4  -5   12.30    3.00
  -6  -4  -5   14.00    2.90
   6   4   5   18.40    3.40
   6   4   5   15.40    3.20
   6   4   5   13.40    3.00
  -7  -4  -5   66.69    7.00
  -7  -4  -5   54.19    5.80
  -7  -4  -5   72.89    6.50
   7   4   5   72.79    5.70
   7   4   5   66.59    6.80
   7   4   5   64.29    5.70
  -8  -4  -5   11.40    3.30
  -8  -4  -5    8.20    2.60
   8   4   5    7.40    2.60
   8   4   5    6.30    2.50
  -9  -4  -5   64.49    8.00
  -9  -4  -5   47.40    6.30
   9   4   5   62.49    7.50
   9   4   5   62.59    7.10
  -5   5   5   24.70    2.70
  -5   5   5   35.30    5.60
  -4   5   5   37.10    5.40
  -4   5   5   41.10    3.10
  -4   5   5   37.40    2.70
  -3   5   5   72.09    5.90
  -3   5   5   86.89    6.40
  -3   5   5   75.89    3.70
  -3   5   5   74.49    3.50
  -2   5   5    2.10    1.60
  -2   5   5    2.90    0.90
  -2   5   5    4.00    0.80
  -2   5   5    7.90    2.20
  -2   5   5    2.80    0.70
  -2   5   5    3.80    1.00
  -1   5   5    5.50    1.20
  -1   5   5    9.50    2.50
  -1   5   5    7.30    1.10
  -1   5   5    8.10    1.20
  -1   5   5    7.00    2.00
  -1   5   5    6.90    1.30
  -1   5   5    7.60    1.50
   0  -5  -5   22.20    1.50
   0  -5  -5   19.30    1.50
   0   5   5   21.20    2.20
   0   5   5   21.80    3.30
   0   5   5   24.40    2.10
   0   5   5   23.40    1.90
   0   5   5   24.00    2.60
   0   5   5   22.90    2.20
  -1  -5  -5  394.36   11.20
  -1  -5  -5  392.26   11.20
   1   5   5  376.86   11.90
   1   5   5  384.96   11.60
   1   5   5  395.26   12.30
   1   5   5  393.56   10.70
   1   5   5  402.76   11.70
   1   5   5  394.86   14.20
  -2  -5  -5  253.87    8.70
  -2  -5  -5  256.57    9.00
  -2  -5  -5  251.67    7.20
   2   5   5  264.97    9.50
   2   5   5  242.68    8.80
   2   5   5  261.37    9.20
   2   5   5  254.47    7.30
   2   5   5  252.27    9.60
   2   5   5  263.57   10.80
  -3  -5  -5    2.10    0.90
  -3  -5  -5    2.50    1.20
  -3  -5  -5    1.60    1.00
   3   5   5    0.80    0.80
   3   5   5    4.70    1.60
   3   5   5    2.20    1.10
   3   5   5    3.90    1.60
   3   5   5    2.00    1.10
  -4  -5  -5   89.19    5.70
  -4  -5  -5   85.69    4.60
  -4  -5  -5   87.09    5.30
   4   5   5   80.79    5.80
   4   5   5   85.79    5.60
   4   5   5   82.19    5.60
   4   5   5   90.39    5.40
  -5  -5  -5    7.40    2.00
  -5  -5  -5    8.60    2.40
  -5  -5  -5   11.70    2.70
   5   5   5   17.60    3.20
   5   5   5   15.20    2.90
   5   5   5    9.20    2.40
   5   5   5   11.90    2.90
   5   5   5   14.10    2.80
  -6  -5  -5  460.85   16.50
  -6  -5  -5  451.35   17.20
  -6  -5  -5  475.15   16.90
   6   5   5  467.75   17.20
   6   5   5  438.66   16.70
   6   5   5  472.75   16.60
  -7  -5  -5   56.39    6.10
  -7  -5  -5   68.39    7.10
   7   5   5   61.09    6.30
   7   5   5   71.49    6.10
  -8  -5  -5   33.20    5.70
  -8  -5  -5   19.30    4.10
   8   5   5   27.00    4.80
   8   5   5   28.90    5.10
  -4   6   5   56.09    3.80
  -4   6   5   66.79    7.20
  -3   6   5   16.60    2.40
  -3   6   5   13.40    1.60
  -3   6   5   12.40    2.00
  -2   6   5  269.07    8.20
  -2   6   5  282.47   11.40
  -2   6   5  278.57    9.20
  -2   6   5  255.47    8.90
  -1   6   5  348.87   10.50
  -1   6   5  367.76   13.40
  -1   6   5  372.36   13.90
  -1   6   5  367.26   11.50
  -1   6   5  354.06   11.20
  -1   6   5  356.06   10.60
   0   6   5    1.00    0.80
   0   6   5    4.10    1.30
   0   6   5    4.30    1.80
   0   6   5    4.60    1.00
   0   6   5    4.10    1.20
   0   6   5    4.90    1.60
  -1  -6  -5  110.29    4.90
  -1  -6  -5  106.19    5.00
   1   6   5  118.89    5.50
   1   6   5   99.19    5.40
   1   6   5  111.89    5.40
   1   6   5  117.49    6.70
   1   6   5  115.79    5.90
  -2  -6  -5   12.70    2.20
  -2  -6  -5   10.50    1.90
   2   6   5   10.10    2.20
   2   6   5    9.70    1.90
   2   6   5   11.20    2.50
   2   6   5   10.90    2.30
   2   6   5    8.10    1.80
  -3  -6  -5  518.15   16.50
  -3  -6  -5  520.05   13.20
  -3  -6  -5  530.45   16.10
   3   6   5  516.25   16.40
   3   6   5  519.05   16.90
   3   6   5  508.65   17.40
   3   6   5  537.45   17.40
  -4  -6  -5  389.16   14.20
  -4  -6  -5  422.86   15.10
  -4  -6  -5  431.06   12.60
   4   6   5  427.16   15.50
   4   6   5  444.36   15.80
   4   6   5  417.36   14.60
   4   6   5  432.46   15.40
  -5  -6  -5   10.20    3.40
  -5  -6  -5    7.40    2.30
   5   6   5   12.20    2.90
   5   6   5    6.50    2.20
   5   6   5    9.10    2.60
  -6  -6  -5   21.80    3.90
  -6  -6  -5   23.00    4.10
   6   6   5   27.50    4.40
   6   6   5   22.70    3.80
   6   6   5   24.60    4.10
  -7  -6  -5    8.00    2.60
  -7  -6  -5    7.50    2.80
   7   6   5    9.60    2.90
   7   6   5   10.20    3.10
  -8  -6  -5   62.29    7.50
  -8  -6  -5   49.40    6.20
   8   6   5   57.99    7.30
   8   6   5   46.40    5.90
  -4   7   5  135.39    6.70
  -4   7   5  159.78   10.10
  -3   7   5   15.00    2.10
  -3   7   5   13.80    2.50
  -2   7   5   19.50    4.80
  -2   7   5   14.50    2.10
  -2   7   5   15.20    2.50
  -2   7   5   14.20    3.20
  -1   7   5    1.70    1.10
  -1   7   5    0.30    0.90
  -1   7   5    0.80    1.20
  -1   7   5   -0.10    1.10
   0   7   5  140.79    7.00
   0   7   5  158.98    7.70
   0   7   5  144.49    6.60
   0   7   5  164.18    7.50
  -1  -7  -5  134.99    6.00
   1   7   5  146.69    7.30
   1   7   5  128.39    6.80
   1   7   5  127.99    7.10
   1   7   5  126.39    6.30
  -2  -7  -5   16.30    2.60
   2   7   5   14.00    2.70
   2   7   5   17.10    3.10
   2   7   5   17.60    3.00
   2   7   5   17.50    3.00
   2   7   5   16.80    3.20
  -3  -7  -5    2.20    1.10
   3   7   5    3.60    1.60
   3   7   5    2.60    1.60
   3   7   5    0.60    1.30
  -4  -7  -5   31.20    3.90
   4   7   5   32.60    4.40
   4   7   5   39.90    5.20
   4   7   5   40.30    4.80
  -5  -7  -5   12.10    2.70
   5   7   5   15.40    3.20
   5   7   5   17.30    3.50
   5   7   5   15.40    3.50
  -6  -7  -5    2.70    1.70
   6   7   5    4.10    2.10
   6   7   5    6.90    2.60
   6   7   5    6.40    2.30
  -7  -7  -5    9.40    3.20
  -7  -7  -5   10.30    2.80
   7   7   5   11.20    3.10
   7   7   5   10.50    3.30
   8   7   5   -2.10    1.50
   8   7   5    0.10    2.10
  -3   8   5    6.60    2.00
  -3   8   5    2.50    1.40
  -2   8   5    6.30    1.80
  -2   8   5    3.10    1.70
  -1   8   5    3.80    1.70
  -1   8   5    8.00    1.90
   0   8   5   11.30    2.30
   0   8   5   11.20    2.50
   0   8   5    9.20    2.30
   1   8   5  104.99    6.30
   1   8   5   84.19    5.50
   1   8   5   88.69    5.90
  -2  -8  -5    1.00    1.30
   2   8   5    2.40    1.50
   2   8   5    1.60    1.50
   2   8   5    1.60    1.30
  -3  -8  -5   42.20    4.70
   3   8   5   55.69    6.20
   3   8   5   51.39    5.60
   3   8   5   45.30    5.30
  -4  -8  -5   41.30    5.00
   4   8   5   46.60    5.90
   4   8   5   35.50    4.50
   4   8   5   39.60    5.20
  -5  -8  -5   -0.30    1.10
   5   8   5   -0.90    1.10
   5   8   5   -2.80    1.10
   5   8   5    0.60    1.50
  -6  -8  -5   11.80    3.00
   6   8   5    7.60    2.40
   6   8   5    3.20    2.20
   6   8   5    4.40    2.30
  -7  -8  -5    0.20    1.90
   7   8   5    1.00    1.90
   7   8   5    1.90    2.10
  -2   9   5   12.30    2.60
  -2   9   5   17.50    3.30
  -1   9   5    8.80    2.30
  -1   9   5   15.20    3.20
   0   9   5   41.90    5.10
   0   9   5   44.80    4.80
   1   9   5   24.30    4.00
   1   9   5   18.10    3.20
   1   9   5   16.60    3.50
   2   9   5   -0.50    1.40
   2   9   5   -0.80    1.20
   2   9   5   -0.20    1.30
  -3  -9  -5    9.90    2.90
   3   9   5    5.70    2.30
   3   9   5    7.20    2.60
   3   9   5   10.10    2.80
  -4  -9  -5    7.10    2.50
   4   9   5    8.70    2.80
   4   9   5    5.70    2.80
   4   9   5    4.00    2.20
  -5  -9  -5   29.60    4.50
   5   9   5   30.10    5.10
   5   9   5   20.20    4.40
   5   9   5   31.00    5.10
  -6  -9  -5    8.80    2.90
   6   9   5    8.90    3.10
   6   9   5    6.00    2.60
  -1  10   5    3.40    1.90
  -1  10   5    1.40    1.90
   0  10   5   -0.50    1.60
   0  10   5    1.60    1.90
   1  10   5   66.49    5.80
   1  10   5   80.49    6.80
   2  10   5    6.10    2.50
   2  10   5    7.60    3.00
   2  10   5    9.10    2.60
   3  10   5   -1.30    1.40
   3  10   5    2.50    2.30
   3  10   5   -0.80    1.40
   4  10   5   -0.80    1.50
   4  10   5    0.00    2.10
   4  10   5    1.20    2.00
  -5 -10  -5    2.40    2.40
   5  10   5    6.10    2.50
   5  10   5    1.10    2.00
   5  10   5    4.10    2.80
   0   7  -6   32.70    6.40
   0  -7   6   37.00    5.50
   0  -7   6   40.10    7.00
   0  -7   6   33.10    5.50
  -1   7  -6    7.20    2.80
   1  -7   6   12.20    3.60
   1  -7   6   11.20    3.10
  -2   7  -6   19.50    4.40
   2  -7   6   22.30    4.70
   2  -7   6   12.40    3.40
  -3   7  -6   17.30    4.00
   3  -7   6   16.90    4.20
   3  -7   6   15.70    3.80
  -2  -6   6    4.40    2.70
  -2  -6   6    2.10    1.80
  -2  -6   6    1.80    2.20
  -1  -6   6   42.90    6.10
  -1  -6   6   43.70    5.50
  -1  -6   6   47.10    7.00
   0   6  -6   12.10    3.40
   0  -6   6    4.70    2.50
   0  -6   6    8.10    2.80
   0  -6   6    5.20    2.70
  -1   6  -6   71.39    7.50
   1  -6   6   63.69    7.30
   1  -6   6   65.59    8.50
   1  -6   6   69.69    6.00
  -2   6  -6    0.20    1.60
   2  -6   6   -2.90    1.80
   2  -6   6   -1.80    1.30
   2  -6   6    0.00    1.30
  -3   6  -6    4.10    2.40
   3  -6   6    5.70    2.50
   3  -6   6    3.10    1.90
  -4   6  -6   19.20    4.30
   4  -6   6   19.60    4.10
   4  -6   6   14.20    3.40
  -5   6  -6   67.89    7.70
   5  -6   6   73.09    8.30
   5  -6   6   64.99    7.20
  -3  -5   6   -0.90    2.00
  -3  -5   6    0.40    1.90
  -3  -5   6    1.80    1.80
  -2  -5   6   27.30    4.30
  -2  -5   6   28.30    5.00
  -2  -5   6   27.70    4.80
  -1  -5   6   -0.60    0.90
  -1  -5   6    1.60    2.10
  -1  -5   6   -0.20    1.50
   0   5  -6   14.20    3.20
   0  -5   6   10.30    3.10
   0  -5   6   10.20    2.70
   0  -5   6    7.60    3.10
  -1   5  -6   48.30    5.60
   1  -5   6   34.40    5.30
   1  -5   6   50.59    5.80
   1  -5   6   34.90    5.90
  -2   5  -6    1.60    1.60
   2  -5   6    0.30    1.30
   2  -5   6    1.20    2.30
   2  -5   6    3.50    1.70
  -3   5  -6   48.40    5.90
   3  -5   6   65.59    5.60
   3  -5   6   61.59    6.90
   3  -5   6   57.59    7.70
   3  -5   6   67.79    7.20
  -4   5  -6   21.90    3.90
   4  -5   6   17.20    3.50
   4  -5   6   22.20    4.20
  -5   5  -6   19.70    3.90
   5  -5   6   17.00    3.70
   5  -5   6   12.70    3.30
  -6   5  -6  118.19    9.10
   6  -5   6  114.59    8.40
   6  -5   6  122.99    8.60
  -4  -4   6    3.90    1.90
  -4  -4   6    1.70    2.10
  -4  -4   6    3.60    2.10
  -3  -4   6    2.10    1.60
  -3  -4   6    1.50    1.90
  -3  -4   6    2.90    1.90
  -2  -4   6   25.10    4.40
  -2  -4   6   22.90    3.50
  -2  -4   6   26.90    4.80
   1   4  -6  102.59    6.50
  -1  -4   6  107.89    7.70
  -1  -4   6  108.39    6.60
  -1  -4   6   96.29    7.40
   0   4  -6   80.19    5.60
   0  -4   6   82.99    6.50
   0  -4   6   65.89    6.20
   0  -4   6   75.99    5.50
  -1   4  -6   31.50    4.10
   1  -4   6   35.30    4.20
   1  -4   6   26.00    4.20
   1  -4   6   32.70    5.40
  -2   4  -6    1.60    1.40
   2  -4   6    3.30    2.10
   2  -4   6    2.30    1.30
   2  -4   6   -0.40    1.10
  -3   4  -6    6.10    1.60
  -3   4  -6    7.70    2.20
   3  -4   6    3.50    1.80
   3  -4   6   12.20    3.00
   3  -4   6    8.70    2.40
   3  -4   6    8.70    1.80
   3  -4   6   13.90    3.90
  -4   4  -6  127.29    6.70
  -4   4  -6  139.29    8.40
   4  -4   6  132.79    8.00
   4  -4   6  118.19    7.90
   4  -4   6  132.79    7.90
   4  -4   6  133.89    6.70
   4  -4   6  136.19    9.80
  -5   4  -6   16.20    3.20
  -5   4  -6    7.30    2.50
   5  -4   6   11.80    3.10
   5  -4   6   13.70    3.00
  -6   4  -6    1.50    1.90
   6  -4   6   -0.70    1.20
   6  -4   6   -0.10    1.50
  -7   4  -6   24.40    4.80
   7  -4   6   28.30    4.80
  -4  -3   6   11.70    3.00
  -4  -3   6   15.10    2.90
  -4  -3   6   20.40    4.50
  -3  -3   6   -0.90    0.70
  -3  -3   6   -0.10    1.40
  -3  -3   6   -0.20    1.30
  -2  -3   6   55.19    4.30
  -2  -3   6   56.29    6.20
  -2  -3   6   53.99    6.20
   1   3  -6  174.58    7.80
  -1  -3   6  167.88    7.90
  -1  -3   6  163.18    9.30
  -1  -3   6  184.58    9.50
   0   3  -6    3.70    1.40
   0  -3   6    1.10    1.40
   0  -3   6    0.80    1.40
   0  -3   6    2.80    1.40
  -1   3  -6  213.78    9.30
   1  -3   6  241.08   14.60
   1  -3   6  214.88    9.30
   1  -3   6  215.08   10.50
   1  -3   6  224.98   11.10
  -2   3  -6   43.40    4.50
  -2   3  -6   46.80    4.30
   2  -3   6   54.79    3.00
   2  -3   6   55.29    6.70
   2  -3   6   49.60    5.90
   2  -3   6   50.39    5.50
   2  -3   6   58.49    7.20
   2  -3   6   49.70    5.00
  -3   3  -6   10.10    2.60
  -3   3  -6   12.00    2.10
  -3   3  -6   13.80    1.30
  -3   3  -6   13.00    2.80
   3  -3   6    7.00    2.50
   3  -3   6   16.10    3.30
   3  -3   6   13.10    2.50
   3  -3   6   11.60    2.00
   3  -3   6   14.10    3.20
  -4   3  -6  109.49    6.00
  -4   3  -6  108.79    4.70
  -4   3  -6   99.79    7.00
  -4   3  -6   98.29    6.70
   4  -3   6  113.49    7.20
   4  -3   6   97.29    5.60
   4  -3   6  114.19    8.30
   4  -3   6  103.19    7.00
   4  -3   6  104.59    6.70
  -5   3  -6    6.50    1.70
  -5   3  -6   13.20    3.50
  -5   3  -6   12.60    3.10
  -5   3  -6    7.30    2.10
   5  -3   6    6.60    2.10
   5  -3   6    7.50    2.80
   5  -3   6    8.10    2.50
   5  -3   6    5.30    2.10
   5  -3   6    7.80    2.10
  -6   3  -6   36.80    4.20
  -6   3  -6   21.20    4.10
   6  -3   6   31.20    4.70
   6  -3   6   36.50    4.90
  -7   3  -6    9.70    3.00
  -7   3  -6    8.30    3.10
   7  -3   6    8.40    2.70
  -5  -2   6   -0.70    1.10
  -5  -2   6    0.30    1.30
  -5  -2   6    0.30    1.90
  -4  -2   6   21.00    3.60
  -4  -2   6   24.60    4.50
  -4  -2   6   20.90    3.20
  -3  -2   6   56.79    6.50
  -3  -2   6   60.09    4.80
  -3  -2   6   68.69    7.00
  -3  -2   6   53.19    4.00
  -2  -2   6  188.38    9.90
  -2  -2   6  177.58    8.70
  -2  -2   6  185.48    6.60
  -2  -2   6  188.58    7.80
   1   2  -6  379.66   12.00
  -1  -2   6  382.66   12.50
  -1  -2   6  378.06    9.50
  -1  -2   6  353.66   13.50
  -1  -2   6  348.77   14.40
  -1  -2   6  378.86   13.20
   0   2  -6  241.28    9.10
   0   2  -6  242.98    9.10
   0  -2   6  249.38   10.00
   0  -2   6  248.78   10.80
   0  -2   6  229.78   10.80
   0  -2   6  251.17    9.60
   0  -2   6  243.28    9.30
  -1   2  -6  203.68    8.40
  -1   2  -6  201.38    8.30
   1  -2   6  203.88    8.40
   1  -2   6  192.38    5.70
   1  -2   6  183.58    9.40
   1  -2   6  210.88    8.60
   1  -2   6  194.18    9.80
   1  -2   6  202.18    9.00
  -2   2  -6    6.60    1.80
  -2   2  -6    8.30    1.90
   2  -2   6   13.60    2.70
   2  -2   6   14.70    3.10
   2  -2   6    9.10    2.00
   2  -2   6   11.00    2.90
   2  -2   6    9.20    1.40
   2  -2   6   13.80    2.90
  -3   2  -6  195.28    5.60
  -3   2  -6  199.78    9.00
  -3   2  -6  201.08    7.80
  -3   2  -6  200.28    9.30
   3  -2   6  217.78    9.80
   3  -2   6  203.78   10.30
   3  -2   6  210.98    7.70
   3  -2   6  195.28    9.70
   3  -2   6  188.38    8.70
   3  -2   6  221.88   10.90
  -4   2  -6   41.30    2.70
  -4   2  -6   44.40    5.20
  -4   2  -6   35.90    4.30
  -4   2  -6   46.80    3.80
   4  -2   6   35.70    5.30
   4  -2   6   46.10    5.00
   4  -2   6   35.60    4.50
   4  -2   6   47.70    5.30
   4  -2   6   46.40    3.70
   4  -2   6   45.00    5.20
  -5   2  -6   48.30    4.90
  -5   2  -6   48.00    5.50
  -5   2  -6   42.90    5.10
  -5   2  -6   43.60    3.40
   5  -2   6   55.49    5.60
   5  -2   6   50.59    5.50
   5  -2   6   42.10    4.40
   5  -2   6   63.49    7.30
   5  -2   6   48.50    5.30
  -6   2  -6    1.80    1.50
  -6   2  -6    2.60    1.60
  -6   2  -6    0.90    1.70
   6  -2   6    0.30    1.30
   6  -2   6    2.70    1.50
   6  -2   6    3.40    2.10
   6  -2   6    5.00    2.10
  -7   2  -6    5.00    2.30
  -7   2  -6    1.00    1.90
   7  -2   6    0.70    1.40
  -8   2  -6   37.00    5.80
  -8   2  -6   41.20    5.50
   8  -2   6   46.40    6.20
  -5  -1   6   42.90    4.70
  -5  -1   6   35.60    5.60
  -5  -1   6   46.10    3.70
  -4  -1   6  185.78    7.50
  -4  -1   6  170.78    8.30
  -4  -1   6  183.08    8.40
  -4  -1   6  185.48   10.40
  -3  -1   6    3.50    1.50
  -3  -1   6    6.00    1.70
  -3  -1   6    6.00    2.40
  -3  -1   6    9.30    1.90
  -2  -1   6  227.08    8.70
  -2  -1   6  218.38    7.50
  -2  -1   6  208.08    8.80
  -2  -1   6  206.58   10.20
  -2  -1   6  205.48    7.80
  -2  -1   6  220.08    6.20
   1   1  -6    0.20    0.70
  -1  -1   6   -0.20    0.60
  -1  -1   6    1.90    1.10
  -1  -1   6    0.40    0.60
  -1  -1   6    0.90    0.40
  -1  -1   6    0.20    1.10
  -1  -1   6    0.10    0.70
  -1  -1   6    1.20    0.90
   0   1  -6  138.29    5.80
   0   1  -6  131.09    5.70
   0  -1   6  138.79    6.50
   0  -1   6  145.89    7.80
   0  -1   6  137.79    4.20
   0  -1   6  131.19    5.90
   0  -1   6  139.49    4.30
   0  -1   6  142.19    6.20
   0  -1   6  128.79    6.90
  -1   1  -6  126.39    5.80
  -1   1  -6  120.49    5.70
   1  -1   6  114.49    6.90
   1  -1   6  120.79    5.70
   1  -1   6  121.19    5.80
   1  -1   6  129.99    7.20
   1  -1   6  118.19    6.10
   1  -1   6  117.09    4.40
  -2   1  -6   53.79    4.00
  -2   1  -6   54.29    3.90
   2  -1   6   53.49    3.10
   2  -1   6   63.29    5.00
   2  -1   6   49.30    5.70
   2  -1   6   61.09    4.30
   2  -1   6   60.99    4.10
   2  -1   6   63.19    4.20
   2  -1   6   47.20    4.40
  -3   1  -6    8.70    1.10
  -3   1  -6    9.40    2.20
  -3   1  -6    6.10    1.60
   3  -1   6   11.20    1.90
   3  -1   6   10.90    2.60
   3  -1   6    6.10    1.60
   3  -1   6   10.30    2.30
   3  -1   6    9.80    2.30
   3  -1   6    8.30    2.40
  -4   1  -6  265.27   10.00
  -4   1  -6  259.17   10.80
  -4   1  -6  251.17   10.40
  -4   1  -6  253.77    8.10
   4  -1   6  244.18   10.80
   4  -1   6  255.87   10.30
   4  -1   6  276.37    9.80
   4  -1   6  257.07   11.50
   4  -1   6  251.37   11.70
   4  -1   6  261.77   11.00
  -5   1  -6    0.70    1.30
  -5   1  -6    0.10    1.00
  -5   1  -6    2.00    1.40
  -5   1  -6    1.50    1.10
   5  -1   6    1.00    1.00
   5  -1   6    0.00    1.00
   5  -1   6   -0.60    1.00
   5  -1   6    0.20    0.90
   5  -1   6    1.20    1.30
  -6   1  -6   -1.30    1.60
  -6   1  -6    1.10    1.50
  -6   1  -6    0.20    1.20
  -6   1  -6    2.00    1.60
   6  -1   6   -0.40    0.80
   6  -1   6    0.90    1.50
   6  -1   6    1.60    1.30
   6  -1   6    0.80    1.00
  -7   1  -6    0.10    1.60
  -7   1  -6    1.70    2.10
  -7   1  -6    2.00    1.70
   7  -1   6   -0.30    1.20
   7  -1   6    1.10    1.40
  -8   1  -6   -0.90    1.70
  -8   1  -6   -1.40    2.00
   8  -1   6    0.00    1.40
  -5   0   6    2.50    2.40
  -5   0   6    6.10    1.90
  -5   0   6    6.90    1.60
  -5   0   6    4.30    2.40
  -4   0   6    4.80    1.30
  -4   0   6    3.00    1.90
  -4   0   6    4.40    1.50
  -4   0   6    8.60    2.60
  -3   0   6   42.30    2.80
  -3   0   6   41.10    3.30
  -3   0   6   44.60    3.70
  -3   0   6   38.20    4.80
  -3   0   6   48.40    3.50
  -2   0   6    1.50    0.80
  -2   0   6    0.10    1.20
  -2   0   6    1.90    1.00
  -2   0   6    3.40    1.30
  -2   0   6    2.50    1.10
  -2   0   6    3.60    1.10
   1   0  -6   16.10    1.70
  -1   0   6   16.00    2.10
  -1   0   6   19.50    2.00
  -1   0   6   15.30    1.70
  -1   0   6   20.00    2.20
  -1   0   6   16.10    2.90
  -1   0   6   13.70    2.20
  -1   0   6   18.40    2.30
   0   0  -6    0.30    0.60
   0   0  -6   -0.20    0.50
   0   0   6    0.20    0.60
   0   0   6   -0.10    0.60
   0   0   6    0.80    0.80
   0   0   6    0.20    0.40
   0   0   6    0.00    0.90
   0   0   6   -0.10    0.50
  -1   0  -6  272.67    8.90
  -1   0  -6  275.17    9.00
   1   0   6  285.07   12.60
   1   0   6  268.17    8.50
   1   0   6  277.47   11.00
   1   0   6  273.87    9.70
   1   0   6  281.27    9.30
   1   0   6  259.07   10.40
   1   0   6  290.37    9.40
  -2   0  -6  218.98    8.20
  -2   0  -6  230.28    8.50
   2   0   6  216.18    9.60
   2   0   6  217.48    9.60
   2   0   6  231.48    8.60
   2   0   6  224.48    8.30
   2   0   6  218.38   10.80
   2   0   6  225.78    7.80
   2   0   6  224.58    8.80
  -3   0  -6  257.67    7.50
  -3   0  -6  260.07   10.00
  -3   0  -6  260.57    9.70
   3   0   6  261.27    7.40
   3   0   6  263.77   11.70
   3   0   6  254.97   10.70
   3   0   6  256.87    9.10
   3   0   6  260.37    9.70
   3   0   6  253.67   11.00
   3   0   6  273.37   10.40
   3   0   6  278.17   10.10
  -4   0  -6    1.10    0.90
  -4   0  -6    2.20    1.00
  -4   0  -6   -0.10    1.10
   4   0   6    0.10    0.90
   4   0   6    0.60    0.70
   4   0   6    0.60    1.00
   4   0   6    1.10    1.00
   4   0   6    1.90    1.00
   4   0   6    1.00    1.20
   4   0   6    0.70    1.00
  -5   0  -6   91.29    5.90
  -5   0  -6   92.19    5.90
  -5   0  -6   93.59    5.00
  -5   0  -6   94.09    6.30
   5   0   6   90.99    6.20
   5   0   6   90.49    6.40
   5   0   6   90.29    6.00
   5   0   6   89.89    5.70
   5   0   6   84.79    5.40
   5   0   6   79.49    5.80
  -6   0  -6   14.60    2.90
  -6   0  -6   17.60    3.40
  -6   0  -6   15.10    2.70
  -6   0  -6    9.30    2.70
   6   0   6   10.80    2.70
   6   0   6   14.60    2.90
   6   0   6   15.40    2.80
   6   0   6   16.40    3.10
  -7   0  -6    8.00    2.40
  -7   0  -6    7.20    2.90
  -7   0  -6    4.70    2.30
   7   0   6    3.20    1.70
   7   0   6    4.70    2.00
  -8   0  -6    4.70    2.60
  -8   0  -6    1.90    1.80
   8   0   6    5.60    2.10
   8   0   6    0.10    1.40
  -5   1   6   22.60    4.20
  -5   1   6   17.10    2.50
  -4   1   6   95.09    3.80
  -4   1   6  101.79    7.30
  -4   1   6  109.19    6.70
  -4   1   6   94.09    4.70
  -4   1   6   93.69    4.60
  -3   1   6   16.70    2.50
  -3   1   6   16.80    2.00
  -3   1   6   16.20    2.90
  -3   1   6   14.10    1.50
  -3   1   6   13.20    3.00
  -3   1   6   17.00    2.10
  -2   1   6  142.79    6.00
  -2   1   6  131.39    7.30
  -2   1   6  125.89    5.20
  -2   1   6  133.89    4.50
  -2   1   6  137.99    6.20
  -2   1   6  135.39    5.10
  -2   1   6  134.49    4.50
  -1   1   6   40.50    2.80
  -1   1   6   42.10    2.40
  -1   1   6   43.90    2.70
  -1   1   6   42.30    2.90
  -1   1   6   43.20    4.70
  -1   1   6   45.60    2.40
  -1   1   6   45.40    2.90
   0  -1  -6   92.49    3.40
   0  -1  -6   88.09    3.40
   0   1   6   94.19    4.80
   0   1   6   90.59    4.00
   0   1   6   90.79    4.20
   0   1   6   93.39    3.80
   0   1   6   86.49    6.70
   0   1   6   94.09    5.70
   0   1   6   85.89    3.80
  -1  -1  -6  169.48    6.00
  -1  -1  -6  176.88    5.90
   1   1   6  177.18    6.80
   1   1   6  170.68    5.40
   1   1   6  169.48    6.30
   1   1   6  183.98    6.60
   1   1   6  161.48    7.20
   1   1   6  168.08    7.90
   1   1   6  153.58    9.10
  -2  -1  -6  189.58    7.10
  -2  -1  -6  201.28    7.30
   2   1   6  177.28    8.10
   2   1   6  196.88    8.60
   2   1   6  196.28    9.90
   2   1   6  195.48    7.30
   2   1   6  207.78    7.90
   2   1   6  198.28    7.50
   2   1   6  189.48    7.30
   2   1   6  193.68    5.90
  -3  -1  -6   38.90    3.10
   3   1   6   41.10    3.20
   3   1   6   42.30    3.40
   3   1   6   41.10    2.50
   3   1   6   30.90    3.70
   3   1   6   33.90    3.90
   3   1   6   37.20    3.10
   3   1   6   46.50    3.70
   3   1   6   36.70    4.90
  -4  -1  -6   63.79    3.80
  -4  -1  -6   62.89    4.60
  -4  -1  -6   65.89    4.50
   4   1   6   59.39    4.20
   4   1   6   67.09    4.80
   4   1   6   73.59    5.20
   4   1   6   69.89    4.50
   4   1   6   73.89    5.60
   4   1   6   61.59    3.50
   4   1   6   64.99    4.60
  -5  -1  -6    9.30    2.20
  -5  -1  -6    9.90    2.10
  -5  -1  -6   12.70    2.80
   5   1   6   13.60    2.70
   5   1   6   12.10    2.60
   5   1   6   12.30    2.50
   5   1   6   10.50    2.60
   5   1   6   10.50    2.20
   5   1   6   10.90    2.40
  -6  -1  -6   29.30    4.00
  -6  -1  -6   33.10    4.00
  -6  -1  -6   33.60    4.60
   6   1   6   34.10    4.50
   6   1   6   27.80    3.60
   6   1   6   30.60    4.20
   6   1   6   32.60    4.10
  -7  -1  -6   83.69    6.90
  -7  -1  -6   85.89    6.50
  -7  -1  -6   85.89    6.10
   7   1   6   88.79    6.30
   7   1   6  100.79    6.70
  -8  -1  -6    1.60    2.10
  -8  -1  -6    3.00    2.00
   8   1   6    5.80    2.20
   8   1   6    6.60    2.20
  -9  -1  -6   43.50    6.20
  -9  -1  -6   31.80    5.50
   9   1   6   33.60    5.40
   9   1   6   32.50    4.70
  -5   2   6   59.59    3.60
  -5   2   6   75.19    7.50
  -4   2   6    0.00    0.60
  -4   2   6    0.30    0.90
  -4   2   6    3.30    1.80
  -4   2   6    0.20    1.50
  -3   2   6   72.69    4.90
  -3   2   6   64.39    2.90
  -3   2   6   63.99    5.20
  -3   2   6   78.59    5.40
  -3   2   6   78.29    3.10
  -2   2   6   39.10    4.40
  -2   2   6   39.60    2.00
  -2   2   6   31.30    1.90
  -2   2   6   35.70    3.80
  -2   2   6   32.30    3.50
  -1   2   6   49.30    5.80
  -1   2   6   42.50    3.20
  -1   2   6   44.20    1.90
  -1   2   6   50.59    2.00
  -1   2   6   44.90    2.60
  -1   2   6   49.70    3.50
  -1   2   6   46.60    4.60
  -1   2   6   46.50    2.40
   0   2   6   33.50    3.80
   0   2   6   37.70    2.40
   0   2   6   32.50    2.50
   0   2   6   40.90    5.40
   0   2   6   38.90    2.10
   0   2   6   33.50    2.10
  -1  -2  -6  355.26    9.90
  -1  -2  -6  372.46    9.60
   1   2   6  347.37   12.10
   1   2   6  330.07   14.20
   1   2   6  368.76   10.90
   1   2   6  328.17   11.00
   1   2   6  342.27   10.10
   1   2   6  373.76   10.50
  -2  -2  -6  101.09    4.60
  -2  -2  -6  101.89    4.60
   2   2   6  109.39    5.00
   2   2   6   98.99    5.20
   2   2   6   97.89    5.50
   2   2   6   90.29    6.50
   2   2   6  100.19    5.10
   2   2   6  100.39    4.40
   2   2   6  104.29    4.70
  -3  -2  -6   21.80    2.70
  -3  -2  -6   27.30    3.10
   3   2   6   27.50    3.40
   3   2   6   22.40    2.70
   3   2   6   32.30    3.50
   3   2   6   24.90    3.00
   3   2   6   23.10    3.80
   3   2   6   32.50    3.70
   3   2   6   25.60    3.30
   3   2   6   24.10    2.60
  -4  -2  -6  146.39    6.90
  -4  -2  -6  138.59    7.00
  -4  -2  -6  150.68    6.50
   4   2   6  155.08    8.50
   4   2   6  148.49    7.40
   4   2   6  144.29    6.80
   4   2   6  162.58    7.30
   4   2   6  159.28    7.60
   4   2   6  143.79    7.00
  -5  -2  -6   35.40    4.40
  -5  -2  -6   25.90    3.30
  -5  -2  -6   33.20    3.80
   5   2   6   38.40    4.60
   5   2   6   44.00    5.00
   5   2   6   26.20    3.40
   5   2   6   28.60    4.10
   5   2   6   37.60    4.30
   5   2   6   30.60    3.80
  -6  -2  -6   23.50    3.50
  -6  -2  -6   33.20    4.30
  -6  -2  -6   30.30    4.30
   6   2   6   27.00    3.60
   6   2   6   35.90    4.60
   6   2   6   36.10    4.70
  -7  -2  -6   -2.50    1.20
  -7  -2  -6    2.10    1.60
  -7  -2  -6    7.40    2.40
   7   2   6    3.80    1.80
   7   2   6    1.70    1.40
  -8  -2  -6   21.40    4.10
  -8  -2  -6   23.70    4.20
   8   2   6   23.60    4.10
   8   2   6   24.70    4.20
  -9  -2  -6   -1.60    2.20
  -9  -2  -6   -1.50    1.80
   9   2   6   -1.60    1.30
   9   2   6    0.00    1.50
  -5   3   6   10.40    2.00
  -5   3   6   10.60    3.50
  -5   3   6    6.60    1.30
  -4   3   6   25.50    4.00
  -4   3   6   33.00    5.00
  -3   3   6   26.50    3.90
  -3   3   6   20.90    3.50
  -3   3   6   24.60    3.60
  -2   3   6  127.09    6.80
  -2   3   6  124.89    6.60
  -2   3   6  120.89    8.40
  -2   3   6  123.09    6.50
  -1   3   6  321.57   11.50
  -1   3   6  308.17   11.20
  -1   3   6  346.77   14.60
   0   3   6   71.79    3.20
   0   3   6   66.69    2.70
   0   3   6   71.59    2.90
   0   3   6   62.79    4.30
   0   3   6   61.59    3.00
   0   3   6   55.99    6.10
  -1  -3  -6   17.40    2.00
   1   3   6    7.70    1.70
   1   3   6   12.60    1.80
   1   3   6   15.30    2.10
   1   3   6   14.30    1.80
   1   3   6   13.20    3.00
  -2  -3  -6    7.40    1.50
  -2  -3  -6    8.80    1.50
  -2  -3  -6   11.30    2.40
   2   3   6    9.30    1.80
   2   3   6    5.10    1.40
   2   3   6    6.90    1.70
   2   3   6    7.90    1.60
   2   3   6    6.70    1.40
   2   3   6    7.90    2.30
   2   3   6    9.50    1.70
  -3  -3  -6   55.69    3.60
  -3  -3  -6   49.90    3.60
   3   3   6   52.99    3.90
   3   3   6   44.90    4.90
   3   3   6   51.19    3.80
   3   3   6   45.00    3.50
   3   3   6   44.90    3.30
   3   3   6   46.70    3.50
  -4  -3  -6    1.10    1.10
  -4  -3  -6   -0.40    0.90
  -4  -3  -6    1.10    1.10
   4   3   6   -0.30    0.80
   4   3   6    1.10    1.00
   4   3   6    1.20    1.10
   4   3   6    1.30    0.90
   4   3   6    1.30    0.90
  -5  -3  -6   41.50    4.80
  -5  -3  -6   36.20    4.00
  -5  -3  -6   49.00    4.10
   5   3   6   36.10    4.30
   5   3   6   44.40    3.70
   5   3   6   37.40    4.40
   5   3   6   38.90    4.80
   5   3   6   39.70    4.80
  -6  -3  -6   -0.40    1.50
  -6  -3  -6    0.30    1.40
  -6  -3  -6   -0.90    0.90
   6   3   6   -1.20    0.90
   6   3   6    0.00    1.10
   6   3   6   -0.70    0.80
  -7  -3  -6   36.30    5.00
  -7  -3  -6   25.20    3.90
   7   3   6   34.20    5.10
   7   3   6   30.80    4.50
   7   3   6   27.10    4.30
  -8  -3  -6    0.70    1.40
  -8  -3  -6    0.70    2.10
   8   3   6    1.10    1.50
   8   3   6    0.80    1.60
  -9  -3  -6   38.50    5.70
  -9  -3  -6   44.50    6.70
   9   3   6   46.10    6.50
   9   3   6   46.40    6.00
  -5   4   6    2.00    2.60
  -4   4   6   46.00    6.50
  -4   4   6   43.90    5.50
  -3   4   6   19.90    4.30
  -3   4   6   10.00    2.50
  -3   4   6   22.40    3.80
  -3   4   6   18.20    3.40
  -2   4   6   72.59    7.50
  -2   4   6   75.89    5.40
  -2   4   6   62.39    4.60
  -1   4   6   84.49    5.40
  -1   4   6   83.39    6.80
  -1   4   6   80.59    4.80
  -1   4   6   85.09    3.10
  -1   4   6   74.59    2.90
   0   4   6   16.60    1.90
   0   4   6   15.00    1.50
   0   4   6   12.70    1.50
   0   4   6   12.00    3.00
   0   4   6   14.00    1.50
   0   4   6   12.70    2.10
   1   4   6  443.26   16.60
   1   4   6  449.16   12.40
   1   4   6  435.56   13.30
   1   4   6  439.16   12.60
   1   4   6  448.36   12.80
   1   4   6  426.06   12.20
  -2  -4  -6    1.00    0.80
  -2  -4  -6    2.60    1.00
  -2  -4  -6    2.00    0.90
   2   4   6    1.70    1.00
   2   4   6    1.40    0.90
   2   4   6    1.30    0.80
   2   4   6    3.60    1.80
   2   4   6    1.50    0.90
   2   4   6    1.40    0.90
  -3  -4  -6    1.70    1.00
  -3  -4  -6    4.00    1.30
  -3  -4  -6    3.70    1.40
   3   4   6    4.10    1.20
   3   4   6    2.60    1.10
   3   4   6    5.30    1.50
   3   4   6    3.70    1.20
   3   4   6    3.10    1.60
   3   4   6    2.50    1.20
  -4  -4  -6    8.40    2.00
  -4  -4  -6   18.10    2.70
   4   4   6   15.60    3.10
   4   4   6   16.60    2.80
   4   4   6   11.10    2.30
   4   4   6   20.20    2.60
   4   4   6   19.90    3.30
   4   4   6   13.20    2.30
  -5  -4  -6   48.80    5.00
  -5  -4  -6   49.00    5.10
  -5  -4  -6   49.80    4.60
   5   4   6   51.19    5.20
   5   4   6   42.90    4.70
   5   4   6   47.50    5.60
   5   4   6   44.40    5.10
   5   4   6   51.39    4.60
  -6  -4  -6  147.89    9.00
  -6  -4  -6  139.19    7.80
  -6  -4  -6  137.79    7.80
   6   4   6  156.08    8.70
   6   4   6  133.39    8.00
   6   4   6  137.29    7.80
  -7  -4  -6    0.90    2.30
  -7  -4  -6   -0.20    1.20
   7   4   6    1.10    1.40
   7   4   6    1.10    1.50
   7   4   6   -0.70    1.00
  -8  -4  -6   27.60    4.50
  -8  -4  -6   47.10    6.40
   8   4   6   47.90    6.10
   8   4   6   37.10    5.00
   9   4   6   -1.00    1.70
   9   4   6    0.90    1.90
  -4   5   6   -1.00    1.80
  -3   5   6   32.30    4.90
  -3   5   6   31.30    5.10
  -2   5   6  116.89    6.20
  -2   5   6  123.69    8.20
  -2   5   6  111.69    4.10
  -2   5   6  114.79    7.10
  -1   5   6  318.37   13.50
  -1   5   6  310.47    8.00
  -1   5   6  289.27    7.80
  -1   5   6  306.07    8.90
  -1   5   6  286.77    8.60
  -1   5   6  296.07   10.50
  -1   5   6  320.77   12.20
   0   5   6  177.98    5.90
   0   5   6  176.08    5.90
   0   5   6  167.38    6.90
   0   5   6  161.18    6.20
   0   5   6  181.98    6.60
   0   5   6  178.48    9.60
  -1  -5  -6    3.50    0.90
   1   5   6    7.90    1.50
   1   5   6   12.00    2.80
   1   5   6    9.40    1.70
   1   5   6    7.80    1.50
   1   5   6    8.20    1.50
   1   5   6    8.90    1.80
  -2  -5  -6  120.79    5.30
  -2  -5  -6  118.19    5.30
  -2  -5  -6  120.89    4.80
   2   5   6  119.59    5.60
   2   5   6  112.39    5.70
   2   5   6  113.99    4.90
   2   5   6  102.39    7.00
   2   5   6  119.89    5.60
   2   5   6  123.29    6.10
  -3  -5  -6  284.47    9.20
  -3  -5  -6  284.67   10.10
  -3  -5  -6  276.77   10.30
   3   5   6  295.97   10.60
   3   5   6  282.37   10.80
   3   5   6  287.57   12.30
   3   5   6  268.57   10.50
   3   5   6  291.37    9.00
   3   5   6  270.67   10.10
  -4  -5  -6    5.50    1.70
  -4  -5  -6    7.60    1.90
   4   5   6    7.90    2.30
   4   5   6   11.00    2.40
   4   5   6    6.30    1.80
   4   5   6   10.80    2.50
  -5  -5  -6  122.49    6.90
   5   5   6  128.59    7.50
   5   5   6  141.19    8.30
   5   5   6  120.79    7.00
  -6  -5  -6    4.90    2.30
  -6  -5  -6   10.90    2.80
   6   5   6   10.10    2.70
   6   5   6    4.40    2.00
   6   5   6    6.00    2.20
  -7  -5  -6   85.19    6.70
  -7  -5  -6   85.89    7.00
   7   5   6   91.29    7.10
   7   5   6   91.99    6.70
   7   5   6   82.59    6.90
  -8  -5  -6   13.10    3.80
  -8  -5  -6   13.30    3.50
   8   5   6    9.30    3.00
   8   5   6    8.40    2.70
  -4   6   6   16.60    2.00
  -4   6   6   14.50    4.10
  -4   6   6   12.50    1.70
  -3   6   6   24.40    2.40
  -3   6   6   21.90    2.00
  -3   6   6   19.40    3.30
  -3   6   6   16.10    3.90
  -2   6   6   87.69    4.10
  -2   6   6  108.29    7.50
  -2   6   6   98.29    4.50
  -2   6   6  101.89    5.60
  -1   6   6   24.70    2.70
  -1   6   6   25.80    4.20
  -1   6   6   19.60    2.30
  -1   6   6   28.00    6.20
  -1   6   6   24.60    2.80
  -1   6   6   23.80    2.20
   0   6   6  105.39    4.70
   0   6   6  113.09    5.50
   0   6   6  112.69    5.00
   0   6   6  122.19    7.60
   0   6   6  101.49    5.10
  -1  -6  -6    8.20    1.50
   1   6   6   10.20    2.20
   1   6   6    8.20    2.10
   1   6   6    7.20    2.50
   1   6   6    7.00    1.60
   1   6   6    7.90    1.30
   1   6   6    8.20    1.90
  -2  -6  -6   44.30    3.40
  -2  -6  -6   46.70    3.30
   2   6   6   53.39    4.10
   2   6   6   46.90    2.40
   2   6   6   44.10    3.60
   2   6   6   49.50    4.10
   2   6   6   48.30    5.20
   2   6   6   46.90    3.60
  -3  -6  -6    3.90    1.30
   3   6   6    4.00    1.70
   3   6   6    3.60    1.60
   3   6   6    1.70    1.40
   3   6   6    5.90    1.80
   3   6   6    2.40    1.40
  -4  -6  -6  202.48    9.20
   4   6   6  211.58    9.40
   4   6   6  214.98   10.50
   4   6   6  222.38   10.00
  -5  -6  -6    2.50    1.50
   5   6   6   -0.70    1.10
   5   6   6   -0.40    0.90
   5   6   6    0.50    1.20
  -6  -6  -6   52.59    5.70
  -6  -6  -6   45.00    5.80
   6   6   6   56.09    6.10
   6   6   6   51.89    5.50
   6   6   6   63.79    6.90
  -7  -6  -6   21.70    3.90
  -7  -6  -6   27.40    4.90
   7   6   6   21.50    4.60
   7   6   6   25.60    4.40
   7   6   6   28.10    4.70
  -8  -6  -6    0.50    1.80
  -8  -6  -6    4.90    3.10
   8   6   6    0.90    1.80
   8   6   6    2.90    2.10
  -3   7   6    0.70    1.10
  -2   7   6    2.10    1.20
  -2   7   6    2.00    1.90
  -2   7   6    2.30    1.00
  -1   7   6    4.50    2.20
  -1   7   6    1.60    1.00
  -1   7   6    2.60    1.40
  -1   7   6    3.30    1.30
   0   7   6   -0.30    1.40
   0   7   6    1.40    1.10
   0   7   6    0.80    1.00
   0   7   6    1.50    1.40
   1   7   6   34.00    4.50
   1   7   6   27.70    3.20
   1   7   6   24.20    3.30
   1   7   6   33.20    5.00
  -2  -7  -6   11.30    2.20
   2   7   6   15.40    2.60
   2   7   6   17.80    3.40
   2   7   6   17.90    3.20
  -3  -7  -6  173.68    7.90
   3   7   6  161.18    9.00
   3   7   6  165.48    8.70
   3   7   6  161.98    8.10
  -4  -7  -6   14.70    2.90
   4   7   6   17.40    3.30
   4   7   6   14.20    3.10
   4   7   6   13.00    3.10
  -5  -7  -6   12.70    2.90
   5   7   6    8.40    2.60
   5   7   6   19.60    3.90
   5   7   6   11.50    2.70
  -6  -7  -6   32.50    4.80
   6   7   6   32.90    5.10
   6   7   6   22.40    3.70
   6   7   6   39.30    5.80
  -7  -7  -6   35.20    5.40
   7   7   6   25.50    4.50
   7   7   6   23.10    4.20
  -3   8   6    8.00    2.10
  -2   8   6    3.90    1.40
  -2   8   6    1.30    1.20
  -1   8   6    5.10    1.60
  -1   8   6    7.00    1.90
   0   8   6    5.40    1.70
   0   8   6   10.80    2.50
   0   8   6    9.30    2.50
   1   8   6   36.00    4.10
   1   8   6   37.00    4.70
   1   8   6   28.40    4.00
   2   8   6   28.70    4.10
   2   8   6   22.90    3.50
   2   8   6   27.40    4.20
   3   8   6    6.80    2.40
   3   8   6    4.90    2.20
   3   8   6    4.50    1.90
  -4  -8  -6  265.77   11.50
   4   8   6  283.37   12.80
   4   8   6  274.07   12.00
   4   8   6  262.77   12.50
  -5  -8  -6   23.20    3.90
   5   8   6   15.80    3.40
   5   8   6   21.40    4.10
   5   8   6   24.00    4.60
  -6  -8  -6   -1.00    1.40
   6   8   6   -0.30    1.60
   6   8   6   -1.40    1.50
   6   8   6    0.50    1.80
  -7  -8  -6    0.50    1.90
   7   8   6    1.70    2.10
   7   8   6    4.20    2.60
  -2   9   6    9.00    2.50
  -1   9   6   -0.20    1.30
  -1   9   6    1.30    1.40
   0   9   6    1.50    1.50
   0   9   6    1.60    1.40
   1   9   6   71.49    5.80
   1   9   6   61.09    5.00
   1   9   6   66.29    5.50
   2   9   6   70.69    6.20
   2   9   6   78.69    6.20
   2   9   6   83.19    5.90
   3   9   6   15.80    3.40
   3   9   6   28.40    4.50
   3   9   6   15.60    3.70
   4   9   6   -0.30    1.40
   4   9   6    1.20    1.80
   4   9   6    1.70    2.00
  -5  -9  -6   17.50    4.20
   5   9   6   20.70    4.40
   5   9   6   21.70    4.20
   5   9   6   26.80    5.20
  -6  -9  -6    4.00    2.30
   6   9   6    4.50    2.90
   6   9   6    1.40    2.20
   6   9   6    5.90    2.90
   0  10   6    6.90    2.40
   0  10   6    5.30    2.50
   1  10   6    6.60    2.50
   1  10   6    5.60    2.40
   2  10   6   19.80    4.20
   2  10   6   23.60    4.10
   2  10   6   16.30    3.50
   3  10   6   13.80    4.00
   3  10   6   10.40    2.80
   3  10   6    4.60    2.30
   4  10   6    4.40    2.60
   4  10   6    7.90    2.90
   4  10   6   10.30    3.20
   0  -6   7   28.60    5.90
   0  -6   7   23.00    4.50
   0  -6   7   22.90    5.00
   1  -6   7    0.30    2.00
   1  -6   7    0.50    1.80
   1  -6   7    7.30    3.80
  -2   6  -7   33.10    5.10
   2  -6   7   36.20    6.40
   2  -6   7   40.00    7.20
   2  -6   7   28.60    5.40
   2  -6   7   44.50    5.80
  -3   6  -7    3.90    2.60
   3  -6   7    4.40    2.80
   3  -6   7    4.10    2.20
  -4   6  -7   14.80    4.30
   4  -6   7   16.40    4.20
   4  -6   7   11.30    3.60
  -2  -5   7   10.70    3.70
  -2  -5   7    5.90    2.90
  -2  -5   7   11.20    3.10
  -1  -5   7   42.50    5.40
  -1  -5   7   42.90    6.40
  -1  -5   7   46.60    6.90
   0  -5   7   -0.10    1.70
   0  -5   7    1.00    1.50
   0  -5   7    0.50    1.80
  -1   5  -7   31.30    4.90
   1  -5   7   30.80    5.30
   1  -5   7   30.40    6.00
   1  -5   7   39.90    5.30
  -2   5  -7   -1.70    1.50
   2  -5   7    0.40    1.20
   2  -5   7    1.00    2.00
   2  -5   7    0.40    1.80
   2  -5   7    0.90    1.70
  -3   5  -7    0.90    1.70
   3  -5   7    0.30    2.00
   3  -5   7   -0.60    1.20
   3  -5   7    1.70    2.40
   3  -5   7    0.40    1.70
  -4   5  -7   22.30    4.60
   4  -5   7   16.30    3.90
   4  -5   7   21.60    4.30
  -5   5  -7   22.20    4.70
   5  -5   7   27.80    5.00
   5  -5   7   36.50    5.70
  -2  -4   7    6.60    2.20
  -2  -4   7   17.10    3.80
  -2  -4   7   14.00    4.00
  -1  -4   7    3.00    2.40
  -1  -4   7    2.60    2.10
  -1  -4   7    3.80    1.70
   0  -4   7   -0.10    1.60
   0  -4   7    0.20    1.20
   0  -4   7   -1.20    1.20
  -1   4  -7   20.50    3.70
   1  -4   7   12.20    3.30
   1  -4   7   22.00    3.80
   1  -4   7   15.20    4.00
  -2   4  -7   38.50    4.80
   2  -4   7   29.80    5.40
   2  -4   7   42.10    5.20
   2  -4   7   42.30    5.90
   2  -4   7   46.10    6.50
  -3   4  -7   81.59    6.50
   3  -4   7   92.19    8.20
   3  -4   7   76.89    8.00
   3  -4   7   76.69    8.10
   3  -4   7   76.99    6.20
  -4   4  -7    3.50    2.20
   4  -4   7    0.10    1.90
   4  -4   7    1.20    2.20
   4  -4   7    0.90    1.50
   4  -4   7    2.50    1.70
  -5   4  -7   15.60    3.60
   5  -4   7   17.00    3.80
   5  -4   7   18.30    3.90
  -6   4  -7    1.70    2.20
   6  -4   7   -0.20    1.40
   6  -4   7    0.70    1.70
  -3  -3   7    1.10    1.50
  -3  -3   7    5.40    3.20
  -3  -3   7    0.20    1.50
  -2  -3   7   81.99    5.70
  -2  -3   7   78.39    8.30
  -2  -3   7   84.39    6.70
  -1  -3   7   19.10    3.30
  -1  -3   7   18.50    4.00
  -1  -3   7   20.40    4.10
   0  -3   7    6.80    2.60
   0  -3   7   13.60    2.70
   0  -3   7    8.10    2.70
  -1   3  -7   47.00    4.80
   1  -3   7   47.60    6.50
   1  -3   7   45.50    6.00
   1  -3   7   43.30    4.90
  -2   3  -7   54.69    4.70
   2  -3   7   63.49    6.90
   2  -3   7   52.09    5.50
   2  -3   7   52.19    6.70
   2  -3   7   57.79    7.20
  -3   3  -7  110.19    7.10
   3  -3   7  109.99    7.80
   3  -3   7   97.49    6.60
   3  -3   7  104.29    8.40
   3  -3   7  101.79    8.00
   3  -3   7  123.09    8.00
  -4   3  -7   26.70    3.40
  -4   3  -7   25.20    3.90
   4  -3   7   33.40    3.70
   4  -3   7   14.80    3.20
   4  -3   7   27.30    4.30
   4  -3   7   32.40    5.80
   4  -3   7   25.30    4.50
  -5   3  -7   26.50    3.90
  -5   3  -7   32.20    4.70
   5  -3   7   20.30    3.60
   5  -3   7   25.00    5.10
   5  -3   7   31.50    4.60
   5  -3   7   32.10    5.00
   5  -3   7   30.30    3.90
  -6   3  -7    2.80    2.10
   6  -3   7    9.00    2.80
   6  -3   7    4.00    2.00
  -7   3  -7   65.09    7.80
   7  -3   7   77.39    8.20
   7  -3   7   66.39    7.40
  -4  -2   7   37.80    4.20
  -4  -2   7   37.70    6.00
  -4  -2   7   27.60    4.30
  -3  -2   7   31.30    3.80
  -3  -2   7   34.80    5.60
  -3  -2   7   20.10    3.70
  -2  -2   7    8.50    2.50
  -2  -2   7    9.60    2.10
  -2  -2   7    9.80    3.00
  -1  -2   7   48.10    6.00
  -1  -2   7   67.19    4.50
  -1  -2   7   55.09    5.00
   0   2  -7   64.09    5.20
   0  -2   7   56.19    6.10
   0  -2   7   67.09    5.60
   0  -2   7   54.89    4.30
  -1   2  -7    0.90    1.10
   1  -2   7    1.10    1.30
   1  -2   7   -1.30    1.00
   1  -2   7    0.60    0.90
  -2   2  -7  115.49    6.50
   2  -2   7  110.09    7.50
   2  -2   7  107.89    6.40
   2  -2   7  109.89    8.20
   2  -2   7  109.89    4.60
   2  -2   7  115.29    8.00
  -3   2  -7    1.30    1.30
   3  -2   7    1.20    1.40
   3  -2   7    0.10    1.30
   3  -2   7    0.50    1.00
   3  -2   7    0.30    0.80
   3  -2   7    0.80    1.00
  -4   2  -7  176.78    9.00
   4  -2   7  169.38    9.50
   4  -2   7  181.88   10.70
   4  -2   7  167.58    9.80
   4  -2   7  177.28    7.70
   4  -2   7  173.78    8.90
  -5   2  -7   37.70    4.40
  -5   2  -7   43.60    5.40
   5  -2   7   36.00    5.00
   5  -2   7   35.80    5.00
   5  -2   7   37.30    4.30
   5  -2   7   42.30    5.40
   5  -2   7   42.40    6.20
  -6   2  -7   58.09    6.50
   6  -2   7   52.19    7.60
   6  -2   7   58.39    6.50
   6  -2   7   37.40    5.20
   6  -2   7   50.69    5.70
  -7   2  -7    1.90    1.90
   7  -2   7   -1.00    1.30
   7  -2   7    0.00    1.60
  -4  -1   7   29.60    3.30
  -4  -1   7   24.60    5.00
  -4  -1   7   23.50    3.60
  -3  -1   7   46.10    5.00
  -3  -1   7   53.19    6.80
  -3  -1   7   52.59    3.80
  -2  -1   7   25.80    4.50
  -2  -1   7   35.10    3.00
  -2  -1   7   32.90    4.10
  -1  -1   7   33.70    4.30
  -1  -1   7   41.70    4.90
  -1  -1   7   23.70    4.10
  -1  -1   7   36.90    3.10
   0   1  -7    3.60    1.30
   0  -1   7    3.80    0.70
   0  -1   7    4.70    1.90
   0  -1   7    6.60    2.40
   0  -1   7    4.70    1.70
   0  -1   7    3.80    0.70
   0  -1   7    4.40    1.40
  -1   1  -7   57.89    4.10
   1  -1   7   64.39    4.40
   1  -1   7   64.99    4.60
   1  -1   7   61.19    3.00
   1  -1   7   67.89    5.50
   1  -1   7   67.29    5.70
   1  -1   7   66.99    4.80
   1  -1   7   68.29    7.60
  -2   1  -7   14.00    2.60
  -2   1  -7   12.30    2.70
   2  -1   7    9.00    2.70
   2  -1   7   12.60    1.80
   2  -1   7   13.10    3.40
   2  -1   7    9.60    2.20
   2  -1   7   11.40    2.30
   2  -1   7   12.70    3.00
   2  -1   7   13.20    3.10
  -3   1  -7   36.80    4.10
   3  -1   7   39.30    5.50
   3  -1   7   39.10    5.00
   3  -1   7   29.80    4.80
   3  -1   7   38.20    5.30
   3  -1   7   43.20    4.50
   3  -1   7   43.50    3.20
  -4   1  -7    1.90    0.90
  -4   1  -7    3.00    1.50
   4  -1   7    6.50    2.40
   4  -1   7    5.00    1.50
   4  -1   7    1.40    1.30
   4  -1   7    2.50    1.80
   4  -1   7    2.30    1.40
  -5   1  -7   97.59    6.60
  -5   1  -7   92.99    4.70
   5  -1   7   82.79    5.50
   5  -1   7   83.79    6.00
   5  -1   7   89.19    6.80
   5  -1   7   98.09    7.50
   5  -1   7   83.59    6.40
  -6   1  -7    3.00    1.50
  -6   1  -7    2.80    1.90
   6  -1   7   -0.70    1.30
   6  -1   7    2.30    1.50
   6  -1   7    0.20    1.40
   6  -1   7    1.30    1.40
  -7   1  -7   58.89    5.10
  -7   1  -7   49.20    5.80
   7  -1   7   62.69    6.60
   7  -1   7   63.99    5.50
   7  -1   7   76.89    7.80
  -8   1  -7    0.20    1.90
  -8   1  -7   -0.10    2.10
   8  -1   7    1.40    1.90
  -4   0   7   38.50    5.70
  -4   0   7   29.10    3.60
  -3   0   7    9.90    2.30
  -3   0   7   11.00    3.30
  -3   0   7    7.50    1.50
  -2   0   7   36.80    3.10
  -2   0   7   38.10    2.70
  -2   0   7   37.80    3.20
  -2   0   7   35.50    4.90
  -2   0   7   37.30    3.40
  -1   0   7   50.69    3.30
  -1   0   7   48.60    3.60
  -1   0   7   53.59    3.00
  -1   0   7   55.29    5.90
  -1   0   7   50.29    2.90
  -1   0   7   45.70    3.90
   0   0  -7  131.59    5.40
   0   0   7  159.18    7.40
   0   0   7  135.59    8.00
   0   0   7  136.39    5.20
   0   0   7  136.79    7.20
   0   0   7  137.99    6.50
   0   0   7  132.89    5.90
  -1   0  -7    1.70    1.00
  -1   0  -7    3.00    1.20
   1   0   7    3.30    1.30
   1   0   7    3.20    1.50
   1   0   7    3.60    2.10
   1   0   7    5.10    1.50
   1   0   7    2.90    1.20
   1   0   7    0.60    1.30
   1   0   7    2.60    1.00
  -2   0  -7  185.58    7.60
  -2   0  -7  181.28    7.40
   2   0   7  179.08    6.90
   2   0   7  180.48   10.40
   2   0   7  168.48    8.90
   2   0   7  178.28    8.10
   2   0   7  173.38    7.50
   2   0   7  167.68    8.90
   2   0   7  188.78    7.90
  -3   0  -7    7.90    1.90
  -3   0  -7    2.50    1.40
   3   0   7    5.40    2.00
   3   0   7    7.10    1.70
   3   0   7    5.70    1.80
   3   0   7    3.50    2.00
   3   0   7    4.10    0.80
   3   0   7    4.90    1.60
   3   0   7    6.40    2.10
  -4   0  -7  464.55   12.80
  -4   0  -7  487.45   16.20
  -4   0  -7  461.65   15.50
   4   0   7  442.26   16.30
   4   0   7  472.05   12.70
   4   0   7  441.46   14.70
   4   0   7  496.25   17.20
   4   0   7  458.85   15.50
   4   0   7  463.25   17.30
   4   0   7  451.15   17.70
  -5   0  -7   50.99    3.60
  -5   0  -7   61.49    8.20
  -5   0  -7   47.30    5.10
   5   0   7   55.29    6.00
   5   0   7   56.79    6.10
   5   0   7   52.19    4.30
   5   0   7   55.29    5.80
   5   0   7   41.30    4.50
  -6   0  -7   88.59    6.50
  -6   0  -7   82.59    5.20
   6   0   7   78.89    6.20
   6   0   7   83.39    6.80
   6   0   7   85.19    6.40
   6   0   7   86.89    6.20
  -7   0  -7   52.39    6.10
  -7   0  -7   53.39    5.60
   7   0   7   46.60    5.40
   7   0   7   41.50    5.00
   7   0   7   41.50    5.20
  -8   0  -7    6.30    2.60
  -8   0  -7    3.20    2.20
   8   0   7    5.60    2.20
   8   0   7    3.70    2.10
  -4   1   7   19.40    2.60
  -4   1   7   26.40    4.10
  -4   1   7   23.60    4.70
  -3   1   7  124.49    5.70
  -3   1   7  128.69    8.30
  -3   1   7  135.39    7.00
  -3   1   7  140.89    4.70
  -3   1   7  147.89    5.90
  -2   1   7    1.20    0.70
  -2   1   7    1.40    1.00
  -2   1   7    1.40    1.30
  -2   1   7    1.40    1.00
  -2   1   7    3.20    1.20
  -2   1   7   -0.50    1.30
  -1   1   7  163.38    7.10
  -1   1   7  170.58    5.90
  -1   1   7  167.98    8.90
  -1   1   7  169.48    6.40
  -1   1   7  173.78    6.70
  -1   1   7  167.18    6.50
   0  -1  -7    0.50    0.50
   0   1   7    0.20    0.90
   0   1   7    0.20    0.70
   0   1   7    0.30    0.70
   0   1   7    0.50    1.20
   0   1   7   -0.20    1.40
   0   1   7    0.70    0.60
   0   1   7    0.00    0.50
  -1  -1  -7  734.63   17.70
  -1  -1  -7  668.93   17.70
   1   1   7  676.43   21.10
   1   1   7  631.54   19.80
   1   1   7  693.23   18.50
   1   1   7  662.73   16.50
   1   1   7  677.33   19.00
   1   1   7  697.73   24.10
   1   1   7  637.84   18.10
  -2  -1  -7  354.46   11.30
  -2  -1  -7  361.96   11.30
   2   1   7  361.06   15.60
   2   1   7  346.77    9.40
   2   1   7  346.67   13.00
   2   1   7  357.66   11.60
   2   1   7  355.66   13.50
   2   1   7  360.86   12.30
   2   1   7  365.86   11.90
   2   1   7  365.06   11.70
  -3  -1  -7  137.69    6.60
  -3  -1  -7  129.59    6.30
   3   1   7  137.79    6.70
   3   1   7  133.19    8.60
   3   1   7  126.99    6.30
   3   1   7  133.29    7.50
   3   1   7  133.39    4.80
   3   1   7  134.29    6.30
   3   1   7  143.39    7.10
   3   1   7  121.99    7.20
  -4  -1  -7   38.90    4.30
  -4  -1  -7   31.20    3.60
  -4  -1  -7   32.00    2.60
   4   1   7   35.40    2.70
   4   1   7   29.00    4.20
   4   1   7   36.10    4.00
   4   1   7   35.90    4.30
   4   1   7   39.30    5.30
   4   1   7   37.60    4.60
   4   1   7   33.80    3.80
  -5  -1  -7   22.30    3.30
  -5  -1  -7   29.00    4.00
  -5  -1  -7   31.40    3.60
   5   1   7   34.40    4.10
   5   1   7   30.50    4.70
   5   1   7   34.50    4.90
   5   1   7   23.40    3.40
   5   1   7   29.00    3.90
  -6  -1  -7   34.30    4.10
  -6  -1  -7   31.50    4.60
   6   1   7   29.00    4.40
   6   1   7   42.70    5.20
   6   1   7   26.40    4.00
   6   1   7   27.20    4.30
  -7  -1  -7   21.40    3.80
  -7  -1  -7   15.60    3.30
   7   1   7   15.50    3.30
   7   1   7   15.60    3.50
   7   1   7   20.80    3.80
  -8  -1  -7   47.50    6.40
  -8  -1  -7   44.10    5.70
   8   1   7   42.90    5.70
   8   1   7   42.40    5.30
  -4   2   7   14.70    3.70
  -4   2   7   15.70    1.90
  -4   2   7   11.20    3.00
  -4   2   7   20.00    2.10
  -3   2   7    5.80    2.30
  -3   2   7    6.30    2.30
  -2   2   7  160.58    6.00
  -2   2   7  200.88    8.20
  -2   2   7  179.98    7.90
  -2   2   7  186.08    9.40
  -2   2   7  179.68    5.80
  -1   2   7  235.78   10.50
  -1   2   7  232.58    6.50
  -1   2   7  235.58    8.70
  -1   2   7  225.48    8.80
  -1   2   7  232.68   12.60
  -1   2   7  240.58    7.50
  -1   2   7  245.18    6.60
  -1   2   7  217.68    7.70
   0   2   7    6.90    2.70
   0   2   7   11.00    1.70
   0   2   7   11.90    2.60
   0   2   7   13.10    1.70
   0   2   7   11.80    1.50
   0   2   7   11.10    2.00
   1   2   7   90.59    4.70
   1   2   7   87.99    4.20
   1   2   7  105.79    6.20
   1   2   7   99.39    4.60
   1   2   7   90.99    7.30
   1   2   7   78.69    4.80
   1   2   7   94.19    4.30
  -2  -2  -7  251.17    8.50
  -2  -2  -7  236.08    8.30
   2   2   7  238.48    9.70
   2   2   7  250.97    8.00
   2   2   7  238.18   10.20
   2   2   7  262.67   12.60
   2   2   7  255.07    9.00
   2   2   7  248.38    9.40
   2   2   7  255.57    8.80
  -3  -2  -7   82.19    4.80
  -3  -2  -7   70.99    4.30
   3   2   7   70.19    4.70
   3   2   7   76.09    6.40
   3   2   7   73.39    3.80
   3   2   7   70.99    4.90
   3   2   7   73.59    5.30
   3   2   7   72.09    5.00
   3   2   7   75.79    4.80
   3   2   7   68.09    4.30
  -4  -2  -7   90.59    5.40
   4   2   7   96.09    6.00
   4   2   7  100.39    5.80
   4   2   7   86.59    5.60
   4   2   7   92.49    6.90
   4   2   7   81.09    5.70
   4   2   7   95.29    5.50
  -5  -2  -7    0.00    1.20
  -5  -2  -7    2.30    1.40
  -5  -2  -7   -0.60    0.80
   5   2   7    0.40    1.00
   5   2   7    0.00    1.00
   5   2   7    0.60    1.30
   5   2   7    0.00    0.70
   5   2   7    1.10    1.20
  -6  -2  -7    6.90    2.20
  -6  -2  -7    6.40    2.10
   6   2   7    9.00    2.70
   6   2   7    5.10    1.90
   6   2   7    2.90    1.60
   6   2   7    5.70    1.90
  -7  -2  -7   73.09    7.30
  -7  -2  -7   64.09    5.40
   7   2   7   66.19    6.00
   7   2   7   66.59    6.70
   7   2   7   64.09    5.60
  -8  -2  -7   16.00    3.70
  -8  -2  -7   24.50    4.50
   8   2   7   14.50    3.30
  -4   3   7   18.60    4.10
  -4   3   7   21.50    4.10
  -3   3   7   -0.90    1.30
  -3   3   7   -1.20    1.20
  -3   3   7    1.50    2.70
  -3   3   7    1.50    1.70
  -2   3   7    7.70    2.40
  -2   3   7    5.20    2.90
  -2   3   7    6.50    2.10
  -2   3   7   11.80    2.50
  -1   3   7   26.70    3.60
  -1   3   7   23.30    1.70
  -1   3   7   28.40    3.60
  -1   3   7   27.50    1.80
  -1   3   7   30.00    5.20
   0   3   7  173.08    6.20
   0   3   7  178.28    8.40
   0   3   7  159.28    6.10
   0   3   7  185.38    5.70
   0   3   7  183.48   10.80
  -1  -3  -7   65.69    2.90
   1   3   7   56.79    3.20
   1   3   7   58.69    4.50
   1   3   7   53.59    3.50
   1   3   7   60.79    3.70
   1   3   7   55.59    6.40
   1   3   7   60.79    3.40
  -2  -3  -7  302.67    9.50
  -2  -3  -7  310.57    9.60
   2   3   7  297.07   11.30
   2   3   7  317.87   10.30
   2   3   7  325.07   10.50
   2   3   7  292.77    9.80
   2   3   7  291.27   10.40
   2   3   7  286.87   13.70
   2   3   7  305.17   10.60
  -3  -3  -7   96.09    5.30
  -3  -3  -7  100.19    5.10
   3   3   7  111.79    5.70
   3   3   7   95.79    7.20
   3   3   7   96.99    5.60
   3   3   7   94.79    5.10
   3   3   7  102.99    5.90
   3   3   7   90.09    5.50
  -4  -3  -7    1.70    1.30
  -4  -3  -7    0.40    1.00
   4   3   7   -0.60    0.70
   4   3   7    1.20    1.10
   4   3   7   -0.20    0.90
   4   3   7    1.50    1.00
   4   3   7    0.80    1.10
   4   3   7   -0.70    1.10
  -5  -3  -7    3.00    1.80
  -5  -3  -7    2.10    1.40
   5   3   7    2.20    1.60
   5   3   7    2.60    1.40
   5   3   7    3.60    1.50
   5   3   7    4.90    1.90
  -6  -3  -7   -1.20    1.00
  -6  -3  -7    0.10    1.40
   6   3   7    0.30    1.20
   6   3   7   -1.80    0.90
   6   3   7   -0.40    0.80
  -7  -3  -7   -1.40    1.50
  -7  -3  -7   -0.50    1.20
   7   3   7    2.40    1.80
   7   3   7    1.10    1.40
   7   3   7    2.10    1.80
  -8  -3  -7   11.40    3.20
  -8  -3  -7   13.90    3.80
   8   3   7   21.80    4.40
   8   3   7   15.30    3.70
  -4   4   7    6.50    2.60
  -4   4   7    6.60    3.20
  -4   4   7    5.10    3.80
  -3   4   7    3.50    3.20
  -3   4   7    3.30    2.10
  -3   4   7    2.70    1.90
  -2   4   7   -0.90    1.90
  -2   4   7   -1.00    1.10
  -2   4   7   -0.20    1.20
  -2   4   7    0.90    1.50
  -1   4   7   40.50    6.10
  -1   4   7   39.80    2.10
  -1   4   7   37.10    4.40
  -1   4   7   41.90    4.60
   0   4   7   39.10    2.20
   0   4   7   45.60    6.20
   0   4   7   44.10    2.70
   0   4   7   41.70    2.30
   0   4   7   36.40    4.00
   0   4   7   38.50    2.50
  -1  -4  -7   73.79    3.00
   1   4   7   74.49    4.80
   1   4   7   64.49    3.50
   1   4   7   76.09    3.80
   1   4   7   68.79    3.80
   1   4   7   75.99    4.20
   1   4   7   66.69    7.00
  -2  -4  -7  135.89    5.60
  -2  -4  -7  140.79    5.50
   2   4   7  132.09    6.60
   2   4   7  137.69    6.00
   2   4   7  147.39    6.60
   2   4   7  126.29    8.60
   2   4   7  131.69    6.10
   2   4   7  150.28    6.20
  -3  -4  -7   89.89    5.10
  -3  -4  -7   95.19    5.00
   3   4   7   89.99    5.20
   3   4   7   86.29    5.00
   3   4   7   86.39    5.20
   3   4   7   86.09    5.40
   3   4   7   87.49    5.10
   3   4   7   86.59    6.80
  -4  -4  -7   75.59    4.90
   4   4   7   75.69    5.20
   4   4   7   79.69    4.90
   4   4   7   88.89    5.90
   4   4   7   82.99    5.20
   4   4   7   77.49    6.30
   4   4   7   74.49    5.50
  -5  -4  -7   24.50    3.50
   5   4   7   24.00    3.40
   5   4   7   29.90    3.50
   5   4   7   32.10    4.50
   5   4   7   24.60    4.20
  -6  -4  -7   24.60    3.80
  -6  -4  -7   18.50    3.50
   6   4   7   26.50    4.30
   6   4   7   22.90    3.90
   6   4   7   26.30    4.10
  -7  -4  -7  188.88   10.10
  -7  -4  -7  218.48   10.60
   7   4   7  199.88   10.30
   7   4   7  194.98   10.70
   7   4   7  190.28   10.70
  -8  -4  -7    7.30    3.10
  -8  -4  -7    6.50    2.40
   8   4   7    1.90    1.60
   8   4   7   -0.60    1.40
  -3   5   7    4.10    2.00
  -3   5   7    6.50    3.60
  -3   5   7    2.50    2.20
  -2   5   7   17.20    4.10
  -2   5   7   33.30    4.30
  -1   5   7    1.00    1.50
  -1   5   7    2.20    0.80
  -1   5   7    2.20    0.80
  -1   5   7    3.60    2.30
  -1   5   7    2.10    1.50
   0   5   7   70.89    3.70
   0   5   7   75.69    3.90
   0   5   7   73.89    7.90
   0   5   7   73.79    3.30
   0   5   7   86.29    5.20
   1   5   7    6.10    1.60
   1   5   7    4.90    2.30
   1   5   7    7.70    1.90
   1   5   7    7.10    1.50
   1   5   7    4.90    1.30
  -2  -5  -7  125.99    5.50
   2   5   7  133.49    6.00
   2   5   7  145.19    8.50
   2   5   7  145.39    6.70
   2   5   7  130.89    6.30
   2   5   7  139.09    6.30
   2   5   7  128.19    8.50
  -3  -5  -7    6.00    1.70
   3   5   7    8.60    1.80
   3   5   7    7.00    2.00
   3   5   7    5.00    1.60
   3   5   7    3.40    1.40
   3   5   7    6.60    2.30
   3   5   7    5.70    1.80
  -4  -5  -7  174.18    7.90
   4   5   7  178.98    7.30
   4   5   7  174.78    8.10
   4   5   7  170.08    8.40
   4   5   7  159.48    9.50
  -5  -5  -7   48.90    5.10
   5   5   7   42.50    5.40
   5   5   7   69.99    5.50
   5   5   7   63.59    5.00
  -6  -5  -7  103.59    7.00
  -6  -5  -7  111.89    7.40
   6   5   7  105.69    7.80
   6   5   7  104.99    7.40
   6   5   7  113.79    7.20
  -7  -5  -7    3.00    2.10
  -7  -5  -7    1.50    1.70
   7   5   7    2.80    2.00
   7   5   7    1.50    2.00
   7   5   7    2.30    1.60
  -8  -5  -7    7.60    3.00
  -8  -5  -7    7.40    2.80
   8   5   7    0.20    1.70
   8   5   7    6.70    2.80
  -3   6   7    1.60    2.30
  -2   6   7    1.70    0.70
  -2   6   7    2.10    1.60
  -2   6   7    4.20    2.80
  -1   6   7    7.60    1.40
  -1   6   7    9.00    2.10
  -1   6   7    6.30    2.70
  -1   6   7   13.70    1.90
   0   6   7    3.20    1.20
   0   6   7    2.20    1.10
   0   6   7    2.30    2.00
   0   6   7    1.30    0.80
   0   6   7    1.70    1.20
   1   6   7    4.40    1.40
   1   6   7    4.30    1.50
   1   6   7    6.80    2.70
   1   6   7    3.80    1.40
   1   6   7    4.20    1.30
   2   6   7    8.30    1.50
   2   6   7    9.50    2.10
   2   6   7    7.00    2.50
   2   6   7   12.20    2.50
   2   6   7   10.90    2.10
  -3  -6  -7    2.80    1.40
   3   6   7    1.80    1.00
   3   6   7    0.90    1.00
   3   6   7    3.80    1.60
   3   6   7    1.60    1.70
  -4  -6  -7    8.40    2.10
   4   6   7    7.00    2.60
   4   6   7    5.00    1.90
   4   6   7    8.80    2.40
  -5  -6  -7   14.50    3.00
   5   6   7   17.20    3.60
   5   6   7   20.40    3.60
   5   6   7   16.50    3.30
  -6  -6  -7   22.10    3.80
   6   6   7   26.00    4.40
   6   6   7   24.20    4.30
   6   6   7   25.80    4.00
  -7  -6  -7  142.19    9.20
  -7  -6  -7  143.59    9.00
   7   6   7  124.69    8.40
   7   6   7  136.49    9.40
   7   6   7  141.69    9.50
  -8  -6  -7    3.70    2.30
  -8  -6  -7   15.00    4.30
   8   6   7   12.20    3.60
   8   6   7   11.40    3.50
  -2   7   7    2.40    1.00
  -2   7   7    0.30    1.30
  -1   7   7   31.60    3.90
  -1   7   7   27.20    4.60
  -1   7   7   29.00    2.70
  -1   7   7   26.70    2.20
   0   7   7   -0.40    1.30
   0   7   7    0.20    0.90
   0   7   7    0.80    1.00
   1   7   7   64.19    4.50
   1   7   7   73.99    6.30
   1   7   7   62.59    4.10
   2   7   7    3.50    2.00
   2   7   7    2.80    1.30
   2   7   7    4.10    1.80
   3   7   7   17.40    3.70
   3   7   7   21.10    3.30
   3   7   7   14.40    3.00
  -4  -7  -7  146.89    7.70
   4   7   7  153.18    8.10
   4   7   7  132.29    8.10
   4   7   7  148.39    9.20
  -5  -7  -7   30.60    4.30
   5   7   7   32.70    4.90
   5   7   7   42.20    5.70
   5   7   7   39.30    4.90
  -6  -7  -7   60.99    6.40
   6   7   7   77.19    6.40
   6   7   7   84.39    7.00
   6   7   7   71.39    7.60
  -7  -7  -7    1.70    1.80
   7   7   7    0.90    1.60
   7   7   7   -0.10    1.70
   7   7   7   -1.10    1.70
  -2   8   7   31.80    3.40
  -1   8   7   44.80    3.20
  -1   8   7   39.70    3.60
   0   8   7   15.80    2.50
   0   8   7   12.50    2.60
   0   8   7   15.10    3.50
   1   8   7   26.60    3.40
   1   8   7   23.60    3.60
   1   8   7   29.90    4.50
   2   8   7   -0.90    1.60
   2   8   7    0.40    1.10
   2   8   7    0.00    1.20
   3   8   7    9.80    2.70
   3   8   7    7.30    2.70
   3   8   7    1.00    1.30
   4   8   7    0.10    1.40
   4   8   7    1.10    1.70
   4   8   7    0.50    1.30
   5   8   7   61.09    7.00
   5   8   7   60.19    7.10
   5   8   7   52.09    6.60
  -6  -8  -7    0.40    1.70
   6   8   7   -0.20    1.60
   6   8   7    1.90    1.90
   6   8   7    2.20    2.30
   7   8   7   31.70    5.40
  -1   9   7   12.40    2.70
  -1   9   7   12.70    2.60
   0   9   7   32.50    3.80
   0   9   7   26.70    3.90
   1   9   7    4.90    2.40
   1   9   7    9.20    2.50
   1   9   7    6.70    2.20
   2   9   7   56.89    5.80
   2   9   7   59.09    6.60
   2   9   7   61.99    5.60
   3   9   7    0.80    1.60
   3   9   7   -0.10    1.60
   3   9   7   -1.30    1.30
   4   9   7   85.29    7.30
   4   9   7   89.49    6.80
   4   9   7   91.19    7.40
   5   9   7   13.60    3.40
   5   9   7   15.90    3.90
   5   9   7   15.20    3.50
   2  10   7   29.20    4.80
   2  10   7   23.50    4.20
   2  10   7   26.20    4.60
   3  10   7   16.20    3.90
   3  10   7   18.40    4.20
   3  10   7   18.40    4.10
   1  -5   8    8.30    2.90
   1  -5   8    2.50    2.60
   1  -5   8    3.60    2.60
   2  -5   8    9.40    4.00
   2  -5   8   15.20    4.50
   2  -5   8   12.10    3.30
   2  -5   8   16.90    4.50
  -3   5  -8    0.50    2.40
   3  -5   8    0.10    2.40
   3  -5   8    0.70    1.60
   3  -5   8    0.00    2.20
   3  -5   8    0.20    2.40
  -4   5  -8   15.60    3.90
   4  -5   8   19.50    4.20
   4  -5   8   14.90    4.10
  -1  -4   8    8.90    2.70
  -1  -4   8    6.20    3.10
  -1  -4   8    5.10    3.10
   0  -4   8    4.90    2.90
   0  -4   8    5.60    2.40
   0  -4   8    0.80    1.90
   1  -4   8    2.30    1.70
   1  -4   8    2.30    2.10
   1  -4   8    1.10    2.10
   2  -4   8    5.20    2.40
   2  -4   8    6.50    3.20
   2  -4   8    7.10    3.20
   2  -4   8    6.90    2.90
  -3   4  -8    3.10    2.10
   3  -4   8    0.20    2.10
   3  -4   8    0.90    1.30
   3  -4   8    0.10    2.20
   3  -4   8    1.10    1.70
  -4   4  -8    2.00    2.10
   4  -4   8    3.10    2.30
   4  -4   8    7.40    3.40
   4  -4   8    4.70    2.80
   4  -4   8    3.80    2.30
  -5   4  -8   63.29    7.10
   5  -4   8   60.79    7.50
   5  -4   8   63.49    7.30
  -2  -3   8   -0.80    1.70
  -2  -3   8    0.00    1.10
  -2  -3   8   -0.30    1.50
  -1  -3   8   35.50    4.40
  -1  -3   8   29.20    5.20
  -1  -3   8   21.80    4.80
   0  -3   8   22.90    3.70
   0  -3   8   13.40    3.70
   0  -3   8   16.80    4.10
   1  -3   8   67.39    8.10
   1  -3   8   75.29    5.80
   1  -3   8   69.59    8.00
  -2   3  -8   51.89    6.70
   2  -3   8   53.99    6.90
   2  -3   8   44.80    7.00
   2  -3   8   45.60    7.10
   2  -3   8   50.89    5.70
  -3   3  -8    2.80    1.90
   3  -3   8    6.10    2.80
   3  -3   8    1.80    1.80
   3  -3   8    7.80    3.40
   3  -3   8    4.00    1.90
  -4   3  -8   51.29    5.90
   4  -3   8   69.19    8.60
   4  -3   8   42.90    6.60
   4  -3   8   56.39    6.10
   4  -3   8   51.39    6.70
  -5   3  -8    7.80    2.80
   5  -3   8    6.70    3.00
   5  -3   8   11.10    3.80
   5  -3   8    6.70    2.60
   5  -3   8    9.80    3.00
  -6   3  -8   22.50    4.20
   6  -3   8   30.00    5.10
   6  -3   8   48.50    6.50
  -2  -2   8   17.60    4.50
  -2  -2   8   18.60    3.80
  -2  -2   8   29.20    3.80
  -1  -2   8   48.00    6.10
  -1  -2   8   52.59    4.40
  -1  -2   8   55.69    7.30
   0  -2   8   -1.20    1.30
   0  -2   8    0.90    1.10
   0  -2   8    2.90    1.70
   1  -2   8    0.50    1.10
   1  -2   8    1.10    1.70
   1  -2   8    3.80    2.10
   1  -2   8    0.20    1.60
  -2   2  -8   -0.90    1.00
   2  -2   8    1.00    1.20
   2  -2   8   -0.40    1.40
   2  -2   8   -1.00    1.80
   2  -2   8    1.80    1.60
  -3   2  -8    3.00    1.80
   3  -2   8    2.40    2.10
   3  -2   8    4.20    2.00
   3  -2   8   10.20    3.40
   3  -2   8    3.10    2.50
  -4   2  -8   -0.70    1.30
   4  -2   8   -0.30    1.50
   4  -2   8   -0.70    1.30
   4  -2   8   -0.30    0.90
   4  -2   8   -0.70    1.40
  -5   2  -8    0.20    1.60
   5  -2   8    0.30    1.70
   5  -2   8    3.70    1.80
   5  -2   8    0.90    1.60
   5  -2   8    0.60    2.00
   5  -2   8    1.10    1.30
  -6   2  -8    7.70    3.00
   6  -2   8   11.50    3.20
   6  -2   8   12.70    3.00
   6  -2   8   11.70    3.20
  -7   2  -8    8.60    3.00
   7  -2   8   22.40    4.30
   7  -2   8   17.00    3.60
  -3  -1   8    9.70    3.50
  -3  -1   8    7.60    1.80
  -3  -1   8    9.30    2.60
  -2  -1   8    8.80    2.70
  -2  -1   8    8.80    2.00
  -2  -1   8    5.90    2.70
  -1  -1   8   50.69    4.00
  -1  -1   8   54.99    5.90
  -1  -1   8   52.89    6.60
   0  -1   8   15.70    3.70
   0  -1   8   20.90    3.90
   0  -1   8   19.50    3.00
   1  -1   8   20.50    3.20
   1  -1   8   14.80    3.90
   1  -1   8   19.70    3.80
   1  -1   8   16.10    3.80
  -2   1  -8   46.50    4.70
   2  -1   8   43.70    6.40
   2  -1   8   48.70    4.10
   2  -1   8   42.60    5.80
   2  -1   8   39.40    5.40
  -3   1  -8   82.39    5.80
   3  -1   8   95.29    6.20
   3  -1   8   90.39    7.10
   3  -1   8  101.19    5.20
   3  -1   8  101.99    7.70
   3  -1   8  100.09    8.20
  -4   1  -8  240.38   10.70
   4  -1   8  260.27   13.40
   4  -1   8  226.68   12.20
   4  -1   8  231.38   11.70
   4  -1   8  235.18    9.50
   4  -1   8  251.77   11.00
  -5   1  -8    1.40    1.60
   5  -1   8   -0.70    1.30
   5  -1   8    0.80    1.30
   5  -1   8    2.30    1.90
   5  -1   8    1.30    1.60
   5  -1   8    2.40    1.90
  -6   1  -8   70.19    7.30
   6  -1   8   54.09    6.40
   6  -1   8   42.40    5.20
   6  -1   8   54.19    7.50
   6  -1   8   51.79    6.30
  -7   1  -8    0.70    1.90
   7  -1   8    1.90    1.80
   7  -1   8    1.70    1.70
   7  -1   8   -0.10    1.60
  -3   0   8   26.40    3.70
  -3   0   8   34.00    5.60
  -2   0   8   14.90    3.70
  -2   0   8   24.60    2.70
  -2   0   8   21.90    3.40
  -1   0   8   19.50    3.30
  -1   0   8   25.10    4.60
  -1   0   8   20.80    2.60
   0   0   8    4.70    2.30
   0   0   8    7.00    1.70
   0   0   8    5.40    2.80
   0   0   8    6.80    2.30
   1   0   8  302.97   13.60
   1   0   8  321.77   15.90
   1   0   8  313.07    9.80
   1   0   8  306.07   10.90
   1   0   8  300.67   12.70
  -2   0  -8   41.10    3.50
   2   0   8   39.70    5.20
   2   0   8   44.70    6.30
   2   0   8   39.50    4.20
   2   0   8   37.20    3.00
   2   0   8   30.10    4.60
  -3   0  -8  171.88    8.00
   3   0   8  157.78    9.30
   3   0   8  178.38    8.30
   3   0   8  186.58   11.10
   3   0   8  171.08    9.70
   3   0   8  167.68    7.30
  -4   0  -8    5.30    1.90
   4   0   8    6.10    2.50
   4   0   8    1.60    1.20
   4   0   8    3.40    1.80
   4   0   8    4.90    2.30
   4   0   8    3.80    1.50
  -5   0  -8  196.08    9.70
   5   0   8  194.98   11.10
   5   0   8  199.98   11.00
   5   0   8  186.78    8.90
   5   0   8  199.78    9.70
   5   0   8  197.38   10.30
  -6   0  -8    5.30    2.30
   6   0   8   12.10    3.20
   6   0   8   12.00    3.50
   6   0   8    6.60    2.40
   6   0   8   16.00    3.60
  -7   0  -8   60.09    6.50
   7   0   8   72.99    6.20
   7   0   8   55.09    6.30
   7   0   8   68.09    7.20
  -8   0  -8    1.00    2.40
   8   0   8    4.20    2.10
   8   0   8    3.50    2.30
  -3   1   8   24.70    4.90
  -3   1   8   36.90    3.30
  -2   1   8   13.30    2.20
  -2   1   8   13.90    2.40
  -2   1   8   10.40    3.10
  -2   1   8   12.10    1.60
  -1   1   8    9.40    3.00
  -1   1   8   10.00    1.60
  -1   1   8    7.00    1.70
  -1   1   8   12.30    2.50
   0   1   8   26.10    3.10
   0   1   8   26.60    3.50
   0   1   8   23.40    4.10
   0   1   8   29.90    3.00
   0   1   8   30.50    3.10
   0   1   8   27.80    5.30
   1   1   8    3.50    1.90
   1   1   8    2.40    1.30
   1   1   8    3.40    1.30
   1   1   8    4.50    1.80
   1   1   8    2.10    2.20
   1   1   8    3.30    1.40
  -2  -1  -8  347.57   11.30
   2   1   8  330.87   13.20
   2   1   8  338.67   13.90
   2   1   8  343.87   12.40
   2   1   8  353.46   11.80
   2   1   8  328.77   11.30
   2   1   8  311.17   15.60
  -3  -1  -8   38.60    4.00
   3   1   8   39.50    4.90
   3   1   8   36.00    3.90
   3   1   8   38.70    6.10
   3   1   8   33.70    3.80
   3   1   8   37.30    5.00
  -4  -1  -8  223.08    9.70
   4   1   8  216.38    9.40
   4   1   8  240.08   11.20
   4   1   8  236.08   10.90
   4   1   8  228.78    9.80
   4   1   8  218.18   12.20
  -5  -1  -8  135.99    7.70
  -5  -1  -8  126.09    5.90
   5   1   8  139.09    8.60
   5   1   8  130.49    8.00
   5   1   8  128.39    8.90
   5   1   8  121.69    7.30
   5   1   8  137.79    7.60
  -6  -1  -8   87.69    6.70
  -6  -1  -8  101.69    5.80
   6   1   8   99.19    7.40
   6   1   8   83.09    7.10
   6   1   8   97.29    6.70
   6   1   8   87.69    6.60
  -7  -1  -8   25.70    3.90
  -7  -1  -8   22.30    4.00
   7   1   8   33.40    5.40
   7   1   8   27.50    4.60
   7   1   8   29.50    4.50
   7   1   8   25.30    4.30
  -8  -1  -8    4.40    2.40
  -8  -1  -8    7.60    2.90
   8   1   8    4.00    2.00
   8   1   8    6.10    2.60
  -3   2   8   16.10    2.00
  -3   2   8   19.30    1.80
  -3   2   8   16.80    3.90
  -2   2   8    5.50    1.40
  -2   2   8    4.60    2.30
  -2   2   8    6.10    1.30
  -2   2   8    6.40    3.50
  -2   2   8    1.50    1.80
  -1   2   8   59.59    2.70
  -1   2   8   62.99    4.10
  -1   2   8   64.19    4.40
  -1   2   8   63.69    7.90
  -1   2   8   65.99    6.90
  -1   2   8   66.39    3.60
  -1   2   8   63.39    4.00
   0   2   8   60.49    8.00
   0   2   8   65.29    3.90
   0   2   8   55.49    3.50
   0   2   8   52.29    3.90
   0   2   8   56.69    6.20
   0   2   8   55.39    3.10
   1   2   8  198.98    8.10
   1   2   8  199.78    7.30
   1   2   8  179.18   11.50
   1   2   8  196.68    9.70
   1   2   8  186.98    8.40
  -2  -2  -8  186.68    7.30
   2   2   8  181.98    9.40
   2   2   8  188.38    8.20
   2   2   8  188.88    8.20
   2   2   8  190.28    7.60
   2   2   8  178.08    8.60
   2   2   8  194.68   11.50
  -3  -2  -8    0.60    0.90
   3   2   8   -0.20    1.30
   3   2   8    0.80    1.10
   3   2   8    0.30    0.90
   3   2   8    1.40    1.50
   3   2   8    1.10    1.10
   3   2   8    1.10    1.90
  -4  -2  -8   80.19    5.20
   4   2   8   72.69    5.00
   4   2   8   73.19    5.70
   4   2   8   91.59    6.20
   4   2   8   81.99    8.40
   4   2   8   90.59    5.80
  -5  -2  -8   44.10    4.80
   5   2   8   42.80    5.10
   5   2   8   42.40    4.60
   5   2   8   51.09    5.70
   5   2   8   41.90    5.80
  -6  -2  -8  107.59    7.20
  -6  -2  -8  116.69    6.60
   6   2   8  111.69    8.10
   6   2   8  108.59    7.10
   6   2   8  122.49    8.00
   6   2   8  123.49    7.60
  -7  -2  -8   24.80    4.10
  -7  -2  -8   46.20    5.40
   7   2   8   30.10    4.90
   7   2   8   40.10    5.30
   7   2   8   50.99    6.10
  -8  -2  -8    1.30    2.20
  -8  -2  -8    2.40    2.10
   8   2   8    0.10    1.80
  -3   3   8   -0.20    1.90
  -3   3   8    1.50    1.90
  -3   3   8    1.70    3.00
  -2   3   8   12.60    4.40
  -2   3   8   13.60    2.90
  -2   3   8   12.00    3.10
  -1   3   8   63.19    3.10
  -1   3   8   55.29    6.00
  -1   3   8   61.59    4.70
  -1   3   8   50.49    2.90
  -1   3   8   63.49    4.60
  -1   3   8   49.99    7.40
   0   3   8   -0.20    1.40
   0   3   8   -0.10    1.90
   0   3   8    0.30    0.70
   0   3   8    0.60    0.90
   1   3   8   14.60    3.90
   1   3   8   19.00    3.40
   1   3   8   22.00    2.40
   1   3   8   19.00    2.60
   1   3   8   16.30    2.50
   2   3   8   45.60    6.30
   2   3   8   50.39    3.90
   2   3   8   58.49    3.70
   2   3   8   52.89    5.40
   2   3   8   53.39    4.10
  -3  -3  -8   82.39    4.80
   3   3   8   81.39    5.60
   3   3   8   89.39    5.10
   3   3   8  104.19    7.20
   3   3   8   86.69    5.50
   3   3   8   77.99    5.80
   3   3   8   70.79    7.70
  -4  -3  -8   14.00    2.80
   4   3   8   11.80    2.40
   4   3   8   14.70    3.40
   4   3   8    7.80    2.20
   4   3   8   15.20    2.90
   4   3   8   12.70    2.70
  -5  -3  -8  158.48    8.20
   5   3   8  156.68    8.70
   5   3   8  157.98    9.80
   5   3   8  157.78    8.30
   5   3   8  164.98    8.20
  -6  -3  -8  142.89    7.60
  -6  -3  -8  115.09    7.60
   6   3   8  130.59    8.30
   6   3   8  131.09    7.70
   6   3   8  132.49    8.90
   6   3   8  140.89    7.90
  -7  -3  -8  190.78   10.50
  -7  -3  -8  210.08   10.20
   7   3   8  226.08   11.60
   7   3   8  187.88   11.00
  -8  -3  -8    5.40    2.70
  -8  -3  -8    3.70    2.70
   8   3   8    2.40    1.90
   8   3   8    1.80    2.30
  -3   4   8    0.60    1.90
  -3   4   8    3.40    3.20
  -3   4   8    4.10    2.20
  -2   4   8   10.80    3.00
  -2   4   8   10.10    2.90
  -2   4   8    8.70    4.00
  -1   4   8  141.89    8.20
  -1   4   8  154.48    8.10
  -1   4   8  156.78   11.10
   0   4   8   28.40    4.00
   0   4   8   29.90    2.50
   0   4   8   25.80    1.80
   0   4   8   26.10    2.10
   0   4   8   30.20    5.70
   1   4   8   12.60    3.70
   1   4   8   12.90    1.80
   1   4   8    7.20    2.30
   1   4   8   12.30    2.10
   2   4   8    2.60    1.50
   2   4   8    5.70    1.70
   2   4   8    2.70    2.10
   2   4   8    4.20    1.40
  -3  -4  -8    9.80    2.10
   3   4   8    7.60    1.90
   3   4   8    5.70    2.40
   3   4   8    9.80    2.30
  -4  -4  -8  311.67   11.30
   4   4   8  298.47   11.50
   4   4   8  297.67   11.90
   4   4   8  313.27   11.70
   4   4   8  287.57   14.10
  -5  -4  -8   90.59    6.00
   5   4   8   92.59    5.90
   5   4   8   92.39    7.50
   5   4   8   94.69    6.30
   5   4   8   98.19    6.60
  -6  -4  -8  115.39    7.20
   6   4   8  121.19    7.00
   6   4   8  111.89    7.20
   6   4   8  103.49    7.40
   6   4   8   95.69    7.60
  -7  -4  -8    3.60    2.20
  -7  -4  -8    4.00    2.00
   7   4   8    3.10    1.80
   7   4   8    4.30    2.30
   7   4   8    0.10    1.70
  -8  -4  -8   48.60    6.30
  -8  -4  -8   58.29    7.00
   8   4   8   40.80    5.70
   8   4   8   50.79    6.70
  -3   5   8   17.90    5.40
  -3   5   8   13.00    3.50
  -3   5   8    8.90    3.00
  -2   5   8    4.70    2.50
  -2   5   8   11.20    4.20
  -2   5   8    5.80    2.40
  -1   5   8    6.10    2.30
  -1   5   8    5.30    3.10
   0   5   8   47.20    6.90
   0   5   8   70.69    3.80
   0   5   8   64.29    5.10
   0   5   8   63.49    2.90
   0   5   8   61.99    3.40
   1   5   8    4.30    1.80
   1   5   8    4.20    1.20
   1   5   8    7.70    1.80
   1   5   8    6.60    1.60
   1   5   8    4.10    2.80
   2   5   8   39.10    6.00
   2   5   8   40.00    3.20
   2   5   8   38.60    4.20
   2   5   8   32.80    4.00
   2   5   8   36.00    3.30
   3   5   8   34.40    3.90
   3   5   8   24.20    3.30
   3   5   8   29.30    3.70
   3   5   8   31.80    5.20
  -4  -5  -8   15.70    2.70
   4   5   8   13.50    2.60
   4   5   8   11.40    2.40
   4   5   8    8.80    3.00
   4   5   8   10.20    2.50
  -5  -5  -8    8.90    2.40
   5   5   8    5.40    2.50
   5   5   8    3.80    1.70
   5   5   8    7.90    2.00
   5   5   8    4.90    2.10
  -6  -5  -8   -0.30    1.20
   6   5   8    1.00    1.60
   6   5   8   -0.40    1.20
   6   5   8   -0.10    1.30
  -7  -5  -8   17.10    3.60
  -7  -5  -8   17.90    3.90
   7   5   8   19.50    4.00
   7   5   8   21.90    4.30
   7   5   8   14.30    3.60
  -8  -5  -8    4.40    2.90
  -8  -5  -8   10.80    3.10
   8   5   8    6.10    2.70
   8   5   8    3.50    2.50
  -2   6   8    2.30    3.20
  -1   6   8   57.59    7.50
  -1   6   8   51.59    2.90
  -1   6   8   57.99    3.10
   0   6   8    5.30    2.90
   0   6   8    6.90    1.20
   0   6   8    9.40    1.80
   0   6   8    6.40    1.60
   1   6   8   93.89    5.20
   1   6   8  104.29    8.30
   1   6   8   96.09    4.70
   1   6   8   94.49    5.60
   2   6   8   -0.40    0.80
   2   6   8    0.50    1.10
   2   6   8    1.80    1.70
   2   6   8   -0.30    0.90
   3   6   8   18.40    2.80
   3   6   8   17.00    2.50
   3   6   8    5.60    2.50
   3   6   8   20.00    3.30
   4   6   8   38.20    4.60
   4   6   8   30.80    5.20
   4   6   8   30.10    3.30
   4   6   8   31.30    4.40
  -5  -6  -8    0.60    1.30
   5   6   8   -0.50    1.20
   5   6   8   -0.50    1.10
   5   6   8    0.60    1.70
  -6  -6  -8    0.30    1.30
   6   6   8   -1.30    1.30
   6   6   8   -1.40    1.10
   6   6   8   -0.60    1.00
  -7  -6  -8    2.60    2.10
   7   6   8    5.10    2.30
   7   6   8    0.40    1.80
   7   6   8    1.70    1.90
  -1   7   8   17.20    4.30
  -1   7   8   19.90    2.40
   0   7   8    3.80    2.70
   0   7   8    3.00    1.40
   0   7   8    3.30    1.20
   1   7   8    6.70    1.70
   1   7   8    9.00    3.20
   1   7   8    8.50    2.00
   2   7   8    1.00    1.10
   2   7   8    1.70    1.30
   2   7   8    0.20    2.00
   3   7   8    5.90    2.80
   3   7   8    6.70    2.20
   3   7   8    2.60    1.70
   4   7   8   60.19    5.00
   4   7   8   54.39    6.50
   4   7   8   60.29    5.50
   5   7   8   23.50    4.70
   5   7   8   28.90    4.20
   5   7   8   32.70    5.00
   6   7   8   11.60    3.60
   6   7   8    6.30    2.60
   6   7   8    9.90    2.80
  -7  -7  -8   11.00    3.80
   7   7   8   14.10    3.80
   7   7   8   20.80    4.50
   7   7   8    9.80    3.50
  -1   8   8   14.80    2.40
   0   8   8   -0.50    1.10
   0   8   8    2.40    2.40
   0   8   8   -0.10    1.10
   1   8   8   20.00    2.90
   1   8   8   17.90    4.20
   1   8   8   19.40    3.30
   2   8   8   62.29    7.20
   2   8   8   66.79    5.30
   2   8   8   64.89    4.90
   3   8   8   14.80    3.10
   3   8   8   13.30    3.10
   3   8   8   16.10    4.10
   4   8   8   83.59    6.30
   4   8   8   87.09    8.80
   4   8   8   78.39    6.70
   5   8   8    1.20    1.80
   5   8   8    5.40    2.10
   5   8   8    0.10    1.70
   6   8   8   47.90    6.40
   6   8   8   50.89    7.00
   6   8   8   42.50    6.30
   1   9   8   27.00    4.90
   1   9   8   34.10    4.10
   1   9   8   32.10    4.40
   2   9   8   -0.30    1.40
   2   9   8    2.70    2.20
   2   9   8   -1.20    1.40
   3   9   8   59.09    7.10
   3   9   8   54.59    6.50
   3   9   8   45.10    5.40
   4   9   8    4.90    2.40
   4   9   8    3.60    2.10
   4   9   8    3.60    2.60
   5   9   8   41.00    6.30
   5   9   8   34.90    5.10
   5   9   8   40.30    6.20
   2  -4   9    7.80    3.50
   2  -4   9   11.80    3.30
   2  -4   9    9.70    4.20
   3  -4   9    2.50    2.10
   3  -4   9    1.70    2.40
   0  -3   9   31.10    6.10
   0  -3   9   47.30    5.60
   0  -3   9   37.10    6.40
   1  -3   9    3.30    2.50
   1  -3   9    1.10    1.50
   1  -3   9   -1.30    2.30
   1  -3   9    2.50    2.40
   2  -3   9    0.30    1.80
   2  -3   9   -2.10    2.40
   2  -3   9   -0.50    1.80
   2  -3   9   -0.10    1.20
   3  -3   9   13.50    4.10
   3  -3   9   10.90    3.70
   3  -3   9   14.20    3.40
   3  -3   9   11.00    4.20
   4  -3   9    2.30    2.20
   4  -3   9   -0.80    2.20
   4  -3   9    1.90    1.90
   4  -3   9    2.30    2.70
  -5   3  -9   21.30    4.30
   5  -3   9   21.10    4.50
   5  -3   9   18.80    4.20
   5  -3   9   19.60    4.80
   5  -3   9   33.40    6.70
  -1  -2   9   69.09    7.80
  -1  -2   9   66.69    8.50
  -1  -2   9   69.59    5.30
   0  -2   9    2.00    2.50
   0  -2   9    4.50    2.40
   0  -2   9    1.40    1.50
   1  -2   9    5.80    2.60
   1  -2   9   13.70    3.90
   1  -2   9   10.80    2.80
   1  -2   9    7.70    3.40
   2  -2   9    1.40    2.50
   2  -2   9    1.00    1.40
   2  -2   9    3.20    2.40
   2  -2   9    0.80    2.00
   3  -2   9    1.00    2.10
   3  -2   9    0.70    1.70
   3  -2   9   -0.60    1.60
   3  -2   9    1.60    1.50
   4  -2   9   22.80    4.80
   4  -2   9   18.00    4.60
   4  -2   9   23.20    4.20
   4  -2   9   22.70    5.20
  -5   2  -9    5.30    2.50
   5  -2   9    1.80    1.50
   5  -2   9    4.50    3.00
   5  -2   9    3.10    2.20
   5  -2   9    2.40    2.40
  -6   2  -9   25.70    5.00
   6  -2   9   30.20    5.00
   6  -2   9   34.30    5.70
   6  -2   9   20.70    4.50
  -1  -1   9   13.80    2.50
  -1  -1   9   15.10    4.10
  -1  -1   9   19.00    4.00
   0  -1   9   32.00    6.40
   0  -1   9   30.40    4.90
   0  -1   9   32.70    4.00
   0  -1   9   32.40    5.80
   1  -1   9    0.90    1.80
   1  -1   9    4.50    1.70
   1  -1   9    0.80    1.90
   1  -1   9    6.40    3.30
   2  -1   9    1.30    1.50
   2  -1   9    1.30    1.80
   2  -1   9    1.00    2.10
   2  -1   9    0.90    1.10
   3  -1   9   27.50    5.20
   3  -1   9   28.90    4.50
   3  -1   9   26.00    4.80
   3  -1   9   29.90    5.80
  -4   1  -9    0.30    1.50
   4  -1   9    0.00    2.00
   4  -1   9    1.30    1.70
   4  -1   9    0.30    1.20
   4  -1   9    1.00    1.80
  -5   1  -9  118.69    8.00
   5  -1   9  122.99    9.50
   5  -1   9  133.49    8.30
   5  -1   9  118.39    8.70
   5  -1   9  128.99    9.80
  -6   1  -9    7.50    2.90
   6  -1   9   13.00    3.40
   6  -1   9    5.10    2.70
   6  -1   9    6.90    2.30
   6  -1   9   14.90    4.30
  -7   1  -9   69.89    7.60
   7  -1   9   93.49    7.60
   7  -1   9   72.49    7.90
   7  -1   9   80.09    8.10
  -2   0   9   12.10    3.90
  -2   0   9    8.50    2.70
  -1   0   9   40.90    3.90
  -1   0   9   31.00    5.70
  -1   0   9   34.80    5.00
   0   0   9   10.10    2.20
   0   0   9   15.10    4.00
   0   0   9   11.20    3.00
   0   0   9    8.70    3.60
   1   0   9   13.30    3.30
   1   0   9   16.40    3.80
   1   0   9   15.90    2.80
   1   0   9   17.00    4.80
   2   0   9   29.60    3.80
   2   0   9   21.20    4.80
   2   0   9   23.20    4.40
   2   0   9   30.30    5.00
   3   0   9    1.80    1.80
   3   0   9    1.90    1.30
   3   0   9   -0.60    1.50
   3   0   9    2.30    2.10
  -4   0  -9  198.88   10.00
   4   0   9  172.68    9.00
   4   0   9  157.48   10.10
   4   0   9  174.78   10.40
   4   0   9  181.18    8.30
   4   0   9  156.78   11.20
  -5   0  -9   17.10    3.40
   5   0   9   15.40    3.60
   5   0   9   18.00    3.40
   5   0   9   21.00    4.70
   5   0   9   17.10    4.10
  -6   0  -9   28.40    4.60
   6   0   9   29.20    5.40
   6   0   9   34.20    4.90
   6   0   9   40.90    6.20
   6   0   9   41.80    5.90
  -7   0  -9    1.10    1.90
   7   0   9    2.40    2.20
   7   0   9    1.60    1.80
   7   0   9    2.70    2.20
  -2   1   9   17.50    3.10
  -2   1   9   11.60    3.90
  -1   1   9   28.10    5.00
  -1   1   9   33.70    6.70
  -1   1   9   28.80    2.80
  -1   1   9   25.20    3.70
   0   1   9   26.70    4.00
   0   1   9   27.00    4.90
   0   1   9   39.40    7.20
   0   1   9   22.10    2.70
   1   1   9   72.79    9.30
   1   1   9   53.09    4.90
   1   1   9   63.89    7.20
   1   1   9   53.99    4.00
   2   1   9   22.00    3.90
   2   1   9   22.00    4.40
   2   1   9   19.20    3.10
   2   1   9   20.60    5.10
   3   1   9   16.90    3.10
   3   1   9   17.30    3.60
   3   1   9   18.60    3.80
   3   1   9   14.80    4.20
   3   1   9   19.50    3.00
  -4  -1  -9    3.90    2.30
   4   1   9    3.80    1.90
   4   1   9    2.50    1.40
   4   1   9    0.50    1.60
   4   1   9    0.80    1.40
   4   1   9    1.70    1.40
  -5  -1  -9  103.79    6.90
   5   1   9  101.39    6.90
   5   1   9   94.09    7.60
   5   1   9   98.99    9.90
   5   1   9   98.49    7.30
  -6  -1  -9   31.20    4.80
   6   1   9   23.70    4.30
   6   1   9   21.90    4.20
   6   1   9   20.70    4.40
   6   1   9   22.30    3.90
  -7  -1  -9    1.20    2.00
   7   1   9   -0.50    1.60
   7   1   9   -0.20    1.40
   7   1   9    3.00    2.30
   7   1   9    1.40    1.70
  -2   2   9   40.70    7.60
  -2   2   9   31.90    3.20
  -2   2   9   38.50    6.00
  -1   2   9    1.30    1.20
  -1   2   9    3.50    2.30
  -1   2   9    3.90    3.10
   0   2   9   10.20    2.30
   0   2   9   10.70    3.10
   0   2   9    9.20    1.60
   0   2   9   14.10    4.40
   1   2   9   28.70    3.10
   1   2   9   24.90    3.60
   1   2   9   25.30    4.50
   1   2   9   23.40    5.20
   2   2   9  162.28    8.50
   2   2   9  158.28    7.70
   2   2   9  158.18   11.20
   2   2   9  153.78    9.20
   2   2   9  154.78    7.10
   3   2   9   26.00    5.30
   3   2   9   36.30    5.20
   3   2   9   23.70    3.40
   3   2   9   31.70    4.50
   3   2   9   39.50    4.50
   4   2   9   21.50    3.90
   4   2   9   24.50    5.20
   4   2   9   26.90    3.90
   4   2   9   26.80    4.30
   4   2   9   22.10    3.50
  -5  -2  -9    1.80    1.50
   5   2   9    4.00    2.10
   5   2   9    5.30    2.00
   5   2   9    6.40    2.30
   5   2   9    4.10    2.40
  -6  -2  -9    0.60    1.50
   6   2   9    2.60    1.90
   6   2   9    2.30    1.50
   6   2   9    2.50    1.90
   6   2   9   -0.60    1.70
  -7  -2  -9  117.49    8.30
   7   2   9  118.99    8.20
   7   2   9  112.09    8.60
   7   2   9  114.39    8.70
   7   2   9  131.19    8.50
  -2   3   9   11.70    3.50
  -2   3   9    9.90    4.80
  -1   3   9  101.09    7.70
  -1   3   9   86.49    4.20
  -1   3   9  100.69   11.50
  -1   3   9   95.69    4.30
   0   3   9    1.60    2.60
   0   3   9    2.60    1.20
   0   3   9    1.10    1.10
   0   3   9    3.20    1.80
   0   3   9    3.10    2.10
   1   3   9   29.50    5.70
   1   3   9   30.60    2.60
   1   3   9   27.90    4.50
   1   3   9   30.00    3.50
   2   3   9    0.30    0.80
   2   3   9    0.40    1.50
   2   3   9    1.70    2.10
   2   3   9   -0.50    0.90
   3   3   9  146.89    7.90
   3   3   9  129.39    7.40
   3   3   9  139.39    6.80
   3   3   9  134.69    8.20
   3   3   9  125.79    9.80
   4   3   9    0.90    1.00
   4   3   9    0.80    1.20
   4   3   9   -0.20    1.30
   4   3   9    0.10    1.60
  -5  -3  -9   -1.60    1.20
   5   3   9   -0.90    1.20
   5   3   9   -0.20    1.50
   5   3   9    1.30    1.50
   5   3   9   -1.10    0.80
  -6  -3  -9   19.40    3.80
   6   3   9   21.20    4.40
   6   3   9   20.40    3.80
   6   3   9   18.00    3.50
  -7  -3  -9   11.10    3.10
  -7  -3  -9   10.20    2.90
   7   3   9   10.70    3.30
   7   3   9   15.00    3.50
   7   3   9   13.90    3.80
   8   3   9  173.48   10.60
  -2   4   9   22.50    6.00
  -2   4   9   27.90    4.80
  -1   4   9    2.40    3.10
  -1   4   9    1.20    2.00
  -1   4   9    1.20    2.60
   0   4   9   61.09    3.80
   0   4   9   59.29    5.80
   0   4   9   62.49    8.50
   0   4   9   70.39    6.90
   1   4   9    5.30    2.00
   1   4   9    2.40    1.00
   1   4   9    3.20    2.80
   2   4   9   88.29    5.40
   2   4   9   87.79    9.30
   2   4   9   92.89    6.60
   2   4   9   98.49    5.20
   3   4   9    3.50    2.20
   3   4   9    3.80    2.00
   3   4   9    4.40    1.70
   4   4   9   20.80    3.20
   4   4   9   15.80    3.10
   4   4   9   16.50    4.00
   5   4   9    2.20    1.90
   5   4   9    1.00    1.10
   5   4   9    0.60    1.30
   5   4   9   -0.50    1.30
  -6  -4  -9   12.80    3.00
   6   4   9    8.70    3.20
   6   4   9   14.20    3.10
   6   4   9   12.50    3.20
   6   4   9   12.40    3.10
  -7  -4  -9   51.49    6.20
   7   4   9   40.80    6.20
   7   4   9   59.89    7.00
   7   4   9   72.29    8.30
  -1   5   9   77.59    9.70
  -1   5   9   87.09    6.90
   0   5   9    9.20    1.60
   0   5   9    6.50    1.60
   0   5   9    3.80    2.20
   0   5   9    6.30    3.60
   1   5   9   53.09    5.70
   1   5   9   58.59    8.00
   1   5   9   52.79    3.30
   1   5   9   51.99    3.80
   2   5   9   10.00    2.60
   2   5   9    7.10    3.30
   2   5   9    4.80    1.60
   2   5   9    5.90    1.50
   3   5   9   45.40    4.80
   3   5   9   48.00    6.90
   3   5   9   45.50    4.60
   3   5   9   45.00    4.20
   4   5   9   11.90    3.70
   4   5   9   12.60    2.80
   4   5   9    7.40    2.00
   4   5   9   10.40    2.60
   5   5   9   -1.10    1.10
   5   5   9    2.10    1.70
   5   5   9    1.00    2.00
   5   5   9    4.70    2.00
   6   5   9   -1.20    1.10
   6   5   9   -0.40    1.40
   6   5   9    0.90    1.70
   6   5   9   -0.20    1.10
   7   5   9   47.30    6.50
   7   5   9   38.20    5.30
   7   5   9   47.90    6.60
  -1   6   9   15.60    4.80
   0   6   9   38.70    6.80
   0   6   9   28.70    2.70
   1   6   9    7.50    1.70
   1   6   9    0.00    2.10
   1   6   9    7.30    1.80
   2   6   9    4.10    1.60
   2   6   9    6.40    1.90
   2   6   9    1.60    2.30
   3   6   9    1.10    1.20
   3   6   9   -1.80    1.80
   3   6   9    0.10    1.00
   4   6   9   18.20    3.40
   4   6   9   16.20    3.00
   4   6   9   24.20    5.00
   5   6   9  108.59    7.20
   5   6   9  110.89    7.60
   5   6   9  102.49    8.60
   6   6   9   -0.70    1.30
   6   6   9   -0.10    1.50
   6   6   9    0.80    1.90
   7   6   9   13.90    3.50
   7   6   9   17.80    4.50
   7   6   9   10.70    3.50
   0   7   9    0.50    1.10
   0   7   9   -0.10    2.60
   1   7   9   30.80    3.80
   1   7   9   32.80    6.00
   1   7   9   29.10    3.20
   2   7   9   -0.70    1.10
   2   7   9    0.70    2.30
   2   7   9    1.10    1.30
   3   7   9    5.90    2.20
   3   7   9    4.50    1.70
   3   7   9    5.90    3.00
   4   7   9    4.00    2.50
   4   7   9    4.10    2.00
   4   7   9    6.40    2.40
   5   7   9    9.80    2.90
   5   7   9    7.60    3.20
   5   7   9    8.90    3.00
   6   7   9   25.10    4.80
   6   7   9   27.90    4.60
   6   7   9   23.80    5.00
   1   8   9    4.20    1.60
   1   8   9    2.70    1.70
   1   8   9   -1.10    2.60
   2   8   9   29.90    5.60
   2   8   9   38.50    4.90
   2   8   9   34.80    4.10
   3   8   9   30.30    4.30
   3   8   9   24.20    5.00
   3   8   9   30.50    4.80
   4   8   9    9.70    3.80
   4   8   9    4.70    2.10
   4   8   9    6.50    2.60
   5   8   9   57.59    6.80
   5   8   9   52.69    7.00
   5   8   9   44.70    6.50
   2  -2  10   21.80    4.10
   2  -2  10   24.20    5.40
   2  -2  10   21.10    5.10
   2  -2  10   15.60    5.30
   3  -2  10   20.30    5.00
   3  -2  10   17.80    3.80
   3  -2  10   11.50    3.90
   3  -2  10   16.60    5.20
   4  -2  10    4.60    2.70
   4  -2  10    4.00    3.00
   4  -2  10    5.30    3.20
   4  -2  10    6.90    2.90
   1  -1  10   -0.90    1.70
   1  -1  10    2.60    2.20
   1  -1  10    0.20    1.30
   1  -1  10    0.50    2.90
   2  -1  10   37.80    7.40
   2  -1  10   40.70    5.00
   2  -1  10   38.40    6.30
   2  -1  10   44.70    6.80
   3  -1  10   -1.10    1.40
   3  -1  10   -1.10    1.80
   3  -1  10    0.20    1.80
   3  -1  10   -1.00    1.20
   4  -1  10   16.60    5.20
   4  -1  10   14.60    4.30
   4  -1  10   23.30    4.40
   4  -1  10   14.70    4.10
   5  -1  10   -0.20    2.40
   5  -1  10   -0.90    1.70
   5  -1  10   -0.40    1.80
   5  -1  10   -0.80    1.30
   0   0  10    2.80    1.50
   0   0  10    2.90    2.00
   0   0  10    9.90    3.70
   0   0  10    1.70    3.40
   1   0  10    3.30    2.80
   1   0  10    4.80    1.70
   1   0  10    2.30    2.30
   1   0  10    4.60    2.40
   2   0  10    5.40    2.00
   2   0  10    4.80    2.60
   2   0  10    2.30    2.00
   2   0  10    3.10    2.90
   3   0  10   28.00    5.00
   3   0  10   25.70    6.00
   3   0  10   20.90    3.70
   3   0  10   25.60    5.10
   4   0  10   28.20    5.30
   4   0  10   28.40    6.00
   4   0  10   30.90    5.50
   4   0  10   27.50    4.30
   5   0  10   27.50    5.70
   5   0  10   30.70    4.90
   5   0  10   26.20    5.20
   5   0  10   34.80    5.60
   6   0  10    0.70    1.90
   6   0  10    1.50    2.50
   6   0  10    2.80    2.00
   6   0  10    2.30    2.60
   0   1  10    9.00    3.40
   0   1  10    4.90    3.70
   0   1  10    9.50    2.60
   0   1  10    7.90    1.90
   1   1  10    5.40    2.30
   1   1  10    8.20    3.10
   1   1  10    6.90    3.70
   1   1  10    4.90    1.80
   2   1  10  100.49    8.20
   2   1  10  106.09    6.20
   2   1  10  103.29   11.60
   2   1  10  100.39    7.50
   3   1  10    0.30    1.10
   3   1  10    0.00    1.40
   3   1  10   -0.30    1.40
   3   1  10   -2.20    1.50
   4   1  10   19.60    3.60
   4   1  10   20.30    4.40
   4   1  10   16.50    3.80
   4   1  10   19.90    5.00
   5   1  10    2.10    2.00
   5   1  10    1.80    2.10
   5   1  10    0.00    1.30
   5   1  10    1.00    2.00
   6   1  10    6.90    2.40
   6   1  10    5.00    2.50
   6   1  10    9.50    3.70
   6   1  10    5.60    2.70
  -1   2  10   11.80    2.50
  -1   2  10   14.30    4.10
  -1   2  10    6.10    4.70
   0   2  10    1.10    3.20
   0   2  10    0.80    1.50
   0   2  10    0.30    1.00
   0   2  10   -0.70    2.10
   1   2  10   24.40    3.10
   1   2  10   23.50    3.80
   1   2  10   22.80    6.20
   1   2  10   13.40    3.70
   2   2  10   12.00    2.40
   2   2  10   12.30    3.00
   2   2  10   16.20    3.90
   2   2  10    4.90    3.20
   3   2  10   38.20    6.70
   3   2  10   49.80    5.20
   3   2  10   59.49    6.50
   3   2  10   45.00    6.20
   4   2  10   34.20    5.10
   4   2  10   35.20    5.30
   4   2  10   45.20    5.20
   4   2  10   31.80    6.20
   5   2  10   53.29    7.60
   5   2  10   47.30    6.20
   5   2  10   54.79    6.20
   5   2  10   56.99    6.80
   6   2  10    1.00    1.80
   6   2  10   -0.80    1.60
   6   2  10    1.40    1.70
   6   2  10    1.60    2.20
   7   2  10   29.80    5.10
   7   2  10   40.20    6.30
   7   2  10   34.30    5.50
   0   3  10   21.10    6.00
   0   3  10   30.80    3.60
   0   3  10   21.20    4.60
   1   3  10    7.70    2.00
   1   3  10    9.50    4.30
   1   3  10    7.60    2.90
   1   3  10    8.30    1.80
   2   3  10  171.88    7.60
   2   3  10  174.58   12.70
   2   3  10  175.58    8.70
   2   3  10  178.78   10.40
   3   3  10    1.20    2.10
   3   3  10    2.00    1.80
   3   3  10    0.20    1.20
   3   3  10    0.40    1.10
   4   3  10   37.50    6.30
   4   3  10   36.70    4.60
   4   3  10   43.90    5.70
   4   3  10   51.19    6.20
   5   3  10    3.10    2.00
   5   3  10    1.00    1.50
   5   3  10    2.50    2.00
   5   3  10    1.40    2.30
   6   3  10   54.49    6.90
   6   3  10   38.80    6.60
   6   3  10   49.30    6.20
   6   3  10   43.60    5.70
   7   3  10   15.50    4.20
   7   3  10   15.00    3.70
   7   3  10   25.60    5.10
   0   4  10   -0.80    2.70
   0   4  10    2.40    2.40
   1   4  10   67.79    7.30
   1   4  10   63.39    3.80
   1   4  10   69.89    9.20
   2   4  10    2.10    1.40
   2   4  10   -1.30    2.20
   2   4  10    8.70    3.00
   2   4  10    4.90    1.90
   3   4  10   83.29    5.90
   3   4  10   84.99   10.10
   3   4  10   86.99    5.50
   3   4  10   90.49    7.00
   4   4  10    5.60    2.20
   4   4  10    2.70    2.50
   5   4  10    9.50    2.90
   5   4  10   11.10    2.80
   5   4  10   12.50    3.20
   5   4  10    9.80    3.60
   6   4  10    0.20    1.50
   6   4  10   -0.20    1.50
   6   4  10    0.50    1.60
   6   4  10   -1.10    2.10
   7   4  10   63.19    8.00
   7   4  10   62.79    7.40
   7   4  10   60.69    6.50
   7   4  10   54.79    6.60
   0   5  10   73.79    8.90
   0   5  10   68.09    9.50
   0   5  10   68.69    3.90
   1   5  10   12.00    4.50
   1   5  10    4.50    2.20
   1   5  10    4.00    2.30
   1   5  10    4.50    1.60
   2   5  10  124.19   10.60
   2   5  10  114.69    5.80
   2   5  10  113.69    7.60
   2   5  10  106.89    6.20
   3   5  10    5.10    2.00
   3   5  10    5.70    1.90
   3   5  10    6.00    3.30
   3   5  10    2.10    1.80
   4   5  10   57.69    5.90
   4   5  10   64.49    5.50
   4   5  10   49.20    7.50
   4   5  10   61.89    5.10
   5   5  10   65.69    5.60
   5   5  10   65.29    6.40
   5   5  10   70.99    6.20
   5   5  10   59.49    8.00
   6   5  10    0.20    2.00
   6   5  10   -0.90    1.40
   6   5  10    0.70    1.60
   6   5  10   -0.40    1.50
   1   6  10   18.00    2.80
   1   6  10   16.50    4.90
   2   6  10   13.70    4.40
   2   6  10   20.50    2.90
   2   6  10   18.30    3.20
   3   6  10    6.00    2.00
   3   6  10    6.50    2.10
   3   6  10    4.00    3.30
   4   6  10   -0.40    1.20
   4   6  10    0.40    2.10
   4   6  10    0.20    1.30
   5   6  10    0.10    1.50
   5   6  10    0.00    2.10
   5   6  10    1.70    1.70
   6   6  10    0.80    1.70
   6   6  10    0.20    1.80
   6   6  10    0.70    2.20
   2   7  10   53.49    4.80
   2   7  10   54.19    8.00
   2   7  10   62.29    4.50
   3   7  10   12.30    4.30
   3   7  10   14.80    3.00
   3   7  10   10.00    2.70
   4   7  10   48.00    6.00
   4   7  10   54.89    7.80
   4   7  10   55.89    6.00
   5   7  10   23.00    4.40
   5   7  10   13.40    3.30
   5   7  10   14.70    4.50
   2   1  11    3.20    1.80
   2   1  11    5.00    2.50
   2   1  11    0.80    2.30
   2   1  11    3.40    3.40
   3   1  11   20.80    5.50
   3   1  11   14.90    3.10
   3   1  11   17.60    4.20
   3   1  11   15.10    4.30
   4   1  11    0.50    1.50
   4   1  11    1.50    2.60
   4   1  11   -0.10    2.20
   4   1  11   -0.50    1.80
   2   2  11    7.20    3.90
   2   2  11   13.10    3.20
   2   2  11    7.10    3.20
   2   2  11    7.90    2.20
   3   2  11    1.10    1.30
   3   2  11   -0.50    1.60
   3   2  11   -0.90    1.80
   3   2  11    0.50    2.30
   4   2  11   21.90    4.60
   4   2  11   14.00    4.60
   4   2  11   24.90    4.00
   4   2  11   23.60    4.60
   5   2  11    1.60    2.20
   5   2  11    9.10    3.20
   5   2  11    1.30    2.60
   5   2  11    9.30    2.90
   2   3  11   17.40    3.00
   2   3  11   27.60    4.20
   2   3  11   19.20    4.50
   2   3  11   21.10    6.20
   3   3  11   22.90    3.50
   3   3  11   22.30    5.60
   3   3  11   24.40    5.00
   3   3  11   27.10    4.40
   4   3  11    6.00    2.60
   4   3  11    3.10    1.90
   4   3  11    5.10    2.50
   4   3  11    6.20    3.60
   5   3  11   64.59    7.30
   5   3  11   68.49    7.60
   5   3  11   58.19    6.30
   5   3  11   62.69    8.80
   2   4  11   57.79    9.20
   2   4  11   63.29    4.50
   2   4  11   60.59    5.00
   2   4  11   68.39    7.70
   3   4  11    2.80    3.30
   3   4  11    2.00    2.40
   3   4  11   -0.10    1.30
   3   4  11    0.80    1.30
   4   4  11   72.19    9.80
   4   4  11   85.29    8.40
   5   4  11    9.80    4.20
   5   4  11    9.10    2.80
   5   4  11    8.50    3.10
   3   5  11   12.90    4.40
   3   5  11   30.90    4.50
   3   5  11   22.50    3.50
   4   5  11   11.20    4.10
   4   5  11   19.60    3.90
   4   5  11   19.70    3.50
   0   0   0    0.00    0.00

_computing_structure_solution     'SHELXT 2014/5 (Sheldrick, 2014)'
;
_shelx_hkl_checksum              42502
loop_
_space_group_symop_operation_xyz
'x, y, z'
'-x, -y, -z'
loop_
_atom_site_label
_atom_site_type_symbol
_atom_site_fract_x
_atom_site_fract_y
_atom_site_fract_z
_atom_site_U_iso_or_equiv
_atom_site_adp_type
_atom_site_occupancy
_atom_site_site_symmetry_order
_atom_site_calc_flag
_atom_site_refinement_flags_posn
_atom_site_refinement_flags_adp
S1 S 0.27059(13) 0.27477(12) 0.21360(11) 0.0243(3) Uani 1 1 d . .
F1 F 0.5519(5) 0.0943(4) 0.0698(4) 0.0627(10) Uani 1 1 d . .
O1 O 0.1402(5) 0.1543(4) 0.2721(4) 0.0413(8) Uani 1 1 d . .
N1 N 0.2456(5) 0.3706(5) 0.3494(4) 0.0325(8) Uani 1 1 d . .
C1 C 0.1842(6) 0.3131(5) 0.5212(5) 0.0275(9) Uani 1 1 d . .
F2 F 0.5114(4) 0.0716(3) 0.3228(4) 0.0460(8) Uani 1 1 d . .
O2 O 0.2907(5) 0.3899(4) 0.0661(3) 0.0324(7) Uani 1 1 d . .
C2 C 0.1132(6) 0.1696(5) 0.6086(6) 0.0330(10) Uani 1 1 d . .
H2 H 0.099367 0.092350 0.558657 0.040 Uiso 1 1 calc R U
F3 F 0.6429(3) 0.2744(3) 0.1412(3) 0.0332(6) Uani 1 1 d . .
C3 C 0.0604(7) 0.1438(6) 0.7831(5) 0.0366(10) Uani 1 1 d . .
H3 H 0.009175 0.046006 0.850818 0.044 Uiso 1 1 calc R U
C4 C 0.0811(6) 0.2519(6) 0.8522(5) 0.0365(10) Uani 1 1 d . .
H4 H 0.046633 0.228513 0.967379 0.044 Uiso 1 1 calc R U
C5 C 0.1530(6) 0.4010(6) 0.7588(5) 0.0347(10) Uani 1 1 d . .
H5 H 0.166481 0.478796 0.808286 0.042 Uiso 1 1 calc R U
C6 C 0.2034(5) 0.4280(4) 0.5895(4) 0.0197(7) Uani 1 1 d . .
C7 C 0.2822(6) 0.5705(5) 0.4636(5) 0.0315(9) Uani 1 1 d . .
C8 C 0.3129(7) 0.7045(5) 0.4866(7) 0.0370(10) Uani 1 1 d . .
H8A H 0.283319 0.716362 0.594153 0.044 Uiso 1 1 calc R U
H8B H 0.364714 0.789125 0.395685 0.044 Uiso 1 1 calc R U
C9 C 0.3192(6) 0.5384(5) 0.3020(5) 0.0282(9) Uani 1 1 d . .
H9A H 0.458574 0.540285 0.236000 0.034 Uiso 1 1 calc R U
H9B H 0.246125 0.616001 0.240446 0.034 Uiso 1 1 calc R U
C10 C 0.5096(6) 0.1734(5) 0.1831(5) 0.0290(9) Uani 1 1 d . .
loop_
_atom_site_aniso_label
_atom_site_aniso_U_11
_atom_site_aniso_U_22
_atom_site_aniso_U_33
_atom_site_aniso_U_23
_atom_site_aniso_U_13
_atom_site_aniso_U_12
S1 0.0256(5) 0.0331(6) 0.0154(5) -0.0045(4) -0.0072(4) -0.0073(4)
F1 0.058(2) 0.076(2) 0.077(2) -0.063(2) -0.0233(17) 0.0130(17)
O1 0.0390(18) 0.053(2) 0.0330(17) 0.0043(15) -0.0153(14) -0.0263(16)
N1 0.0313(18) 0.045(2) 0.0211(17) -0.0097(15) -0.0075(14) -0.0025(16)
C1 0.027(2) 0.034(2) 0.0225(19) -0.0051(16) -0.0101(16) -0.0039(16)
F2 0.0502(17) 0.0262(13) 0.0601(19) 0.0042(12) -0.0275(14) -0.0024(12)
O2 0.0424(17) 0.0346(16) 0.0228(14) -0.0010(12) -0.0163(13) -0.0081(13)
C2 0.033(2) 0.023(2) 0.045(3) -0.0017(18) -0.019(2) -0.0059(17)
F3 0.0257(12) 0.0379(14) 0.0331(13) -0.0089(11) -0.0038(10) -0.0092(10)
C3 0.034(2) 0.036(2) 0.031(2) 0.0103(19) -0.0110(18) -0.0095(19)
C4 0.031(2) 0.049(3) 0.022(2) 0.0022(18) -0.0085(17) -0.003(2)
C5 0.032(2) 0.043(3) 0.033(2) -0.0123(19) -0.0125(18) -0.0039(19)
C6 0.0148(16) 0.0245(18) 0.0189(17) -0.0037(14) -0.0064(13) 0.0004(13)
C7 0.027(2) 0.033(2) 0.036(2) -0.0058(18) -0.0131(17) -0.0023(17)
C8 0.036(2) 0.028(2) 0.057(3) -0.016(2) -0.023(2) -0.0008(18)
C9 0.026(2) 0.032(2) 0.0197(18) 0.0015(16) -0.0045(15) -0.0023(16)
C10 0.032(2) 0.027(2) 0.032(2) -0.0151(17) -0.0099(17) -0.0030(16)
loop_
_atom_type_symbol
_atom_type_description
_atom_type_scat_dispersion_real
_atom_type_scat_dispersion_imag
_atom_type_scat_source
C C 0.0033 0.0016 'International Tables Vol C Tables 4.2.6.8 and 6.1.1.4'
H H 0.0000 0.0000 'International Tables Vol C Tables 4.2.6.8 and 6.1.1.4'
N N 0.0061 0.0033 'International Tables Vol C Tables 4.2.6.8 and 6.1.1.4'
O O 0.0106 0.0060 'International Tables Vol C Tables 4.2.6.8 and 6.1.1.4'
F F 0.0171 0.0103 'International Tables Vol C Tables 4.2.6.8 and 6.1.1.4'
S S 0.1246 0.1234 'International Tables Vol C Tables 4.2.6.8 and 6.1.1.4'
loop_
_geom_angle_atom_site_label_1
_geom_angle_atom_site_label_2
_geom_angle_atom_site_label_3
_geom_angle
O1 S1 O2 122.29(19)
O1 S1 N1 112.4(2)
O2 S1 N1 106.22(19)
O1 S1 C10 105.5(2)
O2 S1 C10 104.8(2)
N1 S1 C10 103.93(19)
C1 N1 C9 109.7(3)
C1 N1 S1 127.9(3)
C9 N1 S1 121.8(3)
C2 C1 C6 124.0(4)
C2 C1 N1 127.1(4)
C6 C1 N1 108.9(4)
C1 C2 C3 114.9(4)
C1 C2 H2 122.5
C3 C2 H2 122.5
C4 C3 C2 122.3(4)
C4 C3 H3 118.9
C2 C3 H3 118.9
C3 C4 C5 121.7(4)
C3 C4 H4 119.1
C5 C4 H4 119.1
C6 C5 C4 116.5(4)
C6 C5 H5 121.7
C4 C5 H5 121.7
C1 C6 C5 120.5(4)
C1 C6 C7 111.3(3)
C5 C6 C7 128.2(4)
C8 C7 C6 127.3(4)
C8 C7 C9 125.1(4)
C6 C7 C9 107.6(3)
C7 C8 H8A 120.0
C7 C8 H8B 120.0
H8A C8 H8B 120.0
C7 C9 N1 102.4(3)
C7 C9 H9A 111.3
N1 C9 H9A 111.3
C7 C9 H9B 111.3
N1 C9 H9B 111.3
H9A C9 H9B 109.2
F3 C10 F1 109.4(4)
F3 C10 F2 107.7(3)
F1 C10 F2 108.8(4)
F3 C10 S1 111.0(3)
F1 C10 S1 110.3(3)
F2 C10 S1 109.5(3)
loop_
_geom_bond_atom_site_label_1
_geom_bond_atom_site_label_2
_geom_bond_distance
S1 O1 1.406(3)
S1 O2 1.415(3)
S1 N1 1.618(4)
S1 C10 1.828(4)
F1 C10 1.315(5)
N1 C1 1.418(5)
N1 C9 1.547(6)
C1 C2 1.361(6)
C1 C6 1.371(6)
F2 C10 1.342(5)
C2 C3 1.445(6)
C2 H2 0.9500
F3 C10 1.314(5)
C3 C4 1.328(7)
C3 H3 0.9500
C4 C5 1.414(6)
C4 H4 0.9500
C5 C6 1.401(6)
C5 H5 0.9500
C6 C7 1.473(5)
C7 C8 1.319(6)
C7 C9 1.487(6)
C8 H8A 0.9500
C8 H8B 0.9500
C9 H9A 0.9900
C9 H9B 0.9900
