#------------------------------------------------------------------------------
#$Date: 2017-03-04 16:33:53 +0200 (Sat, 04 Mar 2017) $
#$Revision: 193634 $
#$URL: file:///home/coder/svn-repositories/cod/cif/1/54/52/1545276.cif $
#------------------------------------------------------------------------------
#
# This file is available in the Crystallography Open Database (COD),
# http://www.crystallography.net/
#
# All data on this site have been placed in the public domain by the
# contributors.
#
data_1545276
loop_
_publ_author_name
'Xie, Jian'
'Wang, Yue-Wei'
'Qi, Lian-Wen'
'Zhang, Bo'
_publ_section_title
;
 Access to Aminated Saturated Oxygen Heterocycles via Copper-Catalyzed
 Aminooxygenation of Alkenes.
;
_journal_issue                   5
_journal_name_full               'Organic letters'
_journal_page_first              1148
_journal_page_last               1151
_journal_paper_doi               10.1021/acs.orglett.7b00182
_journal_volume                  19
_journal_year                    2017
_chemical_formula_sum            'C22 H19 N O6 S2'
_chemical_formula_weight         457.50
_space_group_crystal_system      monoclinic
_space_group_IT_number           14
_space_group_name_Hall           '-P 2ybc'
_space_group_name_H-M_alt        'P 1 21/c 1'
_symmetry_space_group_name_Hall  '-P 2ybc'
_symmetry_space_group_name_H-M   'P 1 21/c 1'
_atom_sites_solution_hydrogens   geom
_audit_creation_method           SHELXL-2014/7
_cell_angle_alpha                90
_cell_angle_beta                 92.665(2)
_cell_angle_gamma                90
_cell_formula_units_Z            4
_cell_length_a                   8.5085(9)
_cell_length_b                   10.5638(12)
_cell_length_c                   23.179(3)
_cell_measurement_reflns_used    4980
_cell_measurement_temperature    296(2)
_cell_measurement_theta_max      26.99
_cell_measurement_theta_min      2.61
_cell_volume                     2081.1(4)
_computing_cell_refinement       'Bruker SAINT'
_computing_data_collection       'Bruker APEX2'
_computing_data_reduction        'Bruker SAINT'
_computing_molecular_graphics    'Bruker SHELXTL'
_computing_publication_material  'Bruker SHELXTL'
_computing_structure_refinement  'SHELXL-2014 (Sheldrick 2014)'
_computing_structure_solution    'SHELXS-97 (Sheldrick 2008)'
_diffrn_ambient_temperature      296(2)
_diffrn_measured_fraction_theta_full 0.999
_diffrn_measured_fraction_theta_max 0.997
_diffrn_measurement_device_type  'Bruker APEX-II CCD'
_diffrn_measurement_method       '\f and \w scans'
_diffrn_radiation_type           MoK\a
_diffrn_radiation_wavelength     0.71073
_diffrn_reflns_av_R_equivalents  0.0278
_diffrn_reflns_av_unetI/netI     0.0301
_diffrn_reflns_Laue_measured_fraction_full 0.999
_diffrn_reflns_Laue_measured_fraction_max 0.997
_diffrn_reflns_limit_h_max       10
_diffrn_reflns_limit_h_min       -11
_diffrn_reflns_limit_k_max       13
_diffrn_reflns_limit_k_min       -13
_diffrn_reflns_limit_l_max       25
_diffrn_reflns_limit_l_min       -30
_diffrn_reflns_number            13861
_diffrn_reflns_point_group_measured_fraction_full 0.999
_diffrn_reflns_point_group_measured_fraction_max 0.997
_diffrn_reflns_theta_full        25.242
_diffrn_reflns_theta_max         27.494
_diffrn_reflns_theta_min         2.119
_exptl_absorpt_coefficient_mu    0.297
_exptl_crystal_colour
;
;
_exptl_crystal_density_diffrn    1.460
_exptl_crystal_description
;
;
_exptl_crystal_F_000             952
_exptl_crystal_size_max          0.280
_exptl_crystal_size_mid          0.260
_exptl_crystal_size_min          0.220
_refine_diff_density_max         0.343
_refine_diff_density_min         -0.288
_refine_diff_density_rms         0.046
_refine_ls_extinction_coef       0.0218(13)
_refine_ls_extinction_expression Fc^*^=kFc[1+0.001xFc^2^\l^3^/sin(2\q)]^-1/4^
_refine_ls_extinction_method     'SHELXL-2014/7 (Sheldrick 2014'
_refine_ls_goodness_of_fit_ref   1.055
_refine_ls_hydrogen_treatment    constr
_refine_ls_matrix_type           full
_refine_ls_number_parameters     282
_refine_ls_number_reflns         4760
_refine_ls_number_restraints     0
_refine_ls_restrained_S_all      1.055
_refine_ls_R_factor_all          0.0469
_refine_ls_R_factor_gt           0.0370
_refine_ls_shift/su_max          0.001
_refine_ls_shift/su_mean         0.000
_refine_ls_structure_factor_coef Fsqd
_refine_ls_weighting_details
'w=1/[\s^2^(Fo^2^)+(0.0475P)^2^+0.5169P] where P=(Fo^2^+2Fc^2^)/3'
_refine_ls_weighting_scheme      calc
_refine_ls_wR_factor_gt          0.0952
_refine_ls_wR_factor_ref         0.1012
_reflns_Friedel_coverage         0.000
_reflns_number_gt                3884
_reflns_number_total             4760
_reflns_threshold_expression     'I > 2\s(I)'
_cod_data_source_file            ol7b00182_si_002.cif
_cod_data_source_block           20161220YKDZBXJ01_0m_a
_cod_depositor_comments          'Adding full bibliography for 1545276.cif.'
_cod_database_code               1545276
_shelx_shelxl_version_number     2014/7
_shelx_space_group_comment
;
The symmetry employed for this shelxl refinement is uniquely defined
by the following loop, which should always be used as a source of
symmetry information in preference to the above space-group names.
They are only intended as comments.
;
_shelx_estimated_absorpt_t_min   0.922
_shelx_estimated_absorpt_t_max   0.938
_shelx_res_file
;

    20161220YKDZBXJ01_0m_a.res created by SHELXL-2014/7

TITL 20161220YKDZBXJ01_0m_a.res in P2(1)/c
CELL  0.71073   8.5085  10.5638  23.1790   90.000   92.665   90.000
ZERR   4.000   0.0009   0.0012   0.0025    0.000    0.002    0.000
LATT 1
SYMM -X, 1/2+Y, 1/2-Z
SFAC C  H  N  O  S
UNIT 88 76 4 24 8
L.S. 10
ACTA
BOND $H
FMAP 2
PLAN 20
LIST 6
size .28 .26 .22
TEMP 23.000
WGHT    0.047500    0.516900
EXTI    0.021785
FVAR       0.71764
C1    1    0.671679    0.697283    0.408751    11.00000    0.04833    0.03679 =
         0.03054   -0.00335    0.00321    0.00231
C2    1    0.822063    0.704308    0.388533    11.00000    0.04760    0.05492 =
         0.04910   -0.00933    0.00885    0.00162
AFIX  43
H2    2    0.858803    0.643070    0.363677    11.00000   -1.20000
AFIX   0
C3    1    0.916149    0.805267    0.406434    11.00000    0.05131    0.06682 =
         0.06195   -0.00403    0.00295   -0.01038
AFIX  43
H3    2    1.017849    0.811679    0.393657    11.00000   -1.20000
AFIX   0
C4    1    0.860781    0.896449    0.443000    11.00000    0.06562    0.05202 =
         0.05654   -0.00324   -0.01028   -0.01522
AFIX  43
H4    2    0.926002    0.963501    0.454313    11.00000   -1.20000
AFIX   0
C5    1    0.710793    0.890417    0.463172    11.00000    0.07470    0.04025 =
         0.03864   -0.00821   -0.00107   -0.00089
AFIX  43
H5    2    0.674069    0.951927    0.487896    11.00000   -1.20000
AFIX   0
C6    1    0.616817    0.789044    0.445156    11.00000    0.05602    0.03594 =
         0.02985   -0.00280    0.00327    0.00251
C7    1    0.544693    0.600232    0.397053    11.00000    0.04811    0.03351 =
         0.02991   -0.00410    0.00969    0.00190
C8    1    0.587271    0.470699    0.421181    11.00000    0.07982    0.04059 =
         0.03400    0.00328    0.00120    0.00422
AFIX 137
H8A   2    0.613750    0.477688    0.461769    11.00000   -1.50000
H8B   2    0.675781    0.437792    0.401784    11.00000   -1.50000
H8C   2    0.499247    0.414580    0.415270    11.00000   -1.50000
AFIX   0
C9    1    0.453763    0.759019    0.457455    11.00000    0.06294    0.04131 =
         0.03153   -0.00450    0.01220    0.00273
C10   1    0.496705    0.603344    0.332381    11.00000    0.04512    0.02806 =
         0.03223   -0.00059    0.01006   -0.00039
AFIX  23
H10A  2    0.451421    0.685770    0.323583    11.00000   -1.20000
H10B  2    0.591444    0.595868    0.310914    11.00000   -1.20000
AFIX   0
C11   1    0.702744    0.469347    0.210651    11.00000    0.05052    0.06019 =
         0.04940   -0.00067    0.01037    0.00340
AFIX  43
H11   2    0.766160    0.432381    0.239756    11.00000   -1.20000
AFIX   0
C12   1    0.769230    0.531474    0.165380    11.00000    0.06041    0.07817 =
         0.05952   -0.00093    0.02238   -0.00784
AFIX  43
H12   2    0.878058    0.535658    0.163527    11.00000   -1.20000
AFIX   0
C13   1    0.674653    0.586757    0.123336    11.00000    0.09038    0.06257 =
         0.04237   -0.00464    0.02438   -0.02134
AFIX  43
H13   2    0.719877    0.630252    0.093418    11.00000   -1.20000
AFIX   0
C14   1    0.513579    0.579027    0.124609    11.00000    0.08727    0.06137 =
         0.03582    0.00492    0.00031   -0.00637
AFIX  43
H14   2    0.450722    0.616391    0.095454    11.00000   -1.20000
AFIX   0
C15   1    0.444818    0.515686    0.169243    11.00000    0.05505    0.05599 =
         0.03756    0.00096    0.00101   -0.00271
AFIX  43
H15   2    0.335991    0.508984    0.170230    11.00000   -1.20000
AFIX   0
C16   1    0.541116    0.462822    0.212148    11.00000    0.04882    0.03325 =
         0.02967   -0.00704    0.00831    0.00040
C17   1    0.100727    0.431245    0.350127    11.00000    0.03557    0.04257 =
         0.04671    0.00374    0.00770    0.00370
C18   1    0.012061    0.333059    0.326640    11.00000    0.04224    0.05561 =
         0.05732   -0.00489    0.00144    0.00210
AFIX  43
H18   2    0.005072    0.320279    0.286907    11.00000   -1.20000
AFIX   0
C19   1   -0.066469    0.253741    0.363296    11.00000    0.04311    0.05016 =
         0.08663   -0.00404    0.00821   -0.00741
AFIX  43
H19   2   -0.129168    0.188691    0.348001    11.00000   -1.20000
AFIX   0
C20   1   -0.052231    0.270645    0.421888    11.00000    0.04944    0.05003 =
         0.08151    0.01314    0.02318    0.00104
AFIX  43
H20   2   -0.104884    0.216807    0.446189    11.00000   -1.20000
AFIX   0
C21   1    0.039834    0.367143    0.444989    11.00000    0.06192    0.05961 =
         0.05247    0.00779    0.01623   -0.00081
AFIX  43
H21   2    0.050886    0.376934    0.484845    11.00000   -1.20000
AFIX   0
C22   1    0.115803    0.449419    0.409216    11.00000    0.05031    0.05144 =
         0.04705    0.00030    0.00761   -0.00625
AFIX  43
H22   2    0.176000    0.515834    0.424611    11.00000   -1.20000
AFIX   0
N1    3    0.384003    0.505672    0.310673    11.00000    0.03939    0.03085 =
         0.03380   -0.00351    0.00757    0.00362
O1    4    0.329818    0.309168    0.253797    11.00000    0.06409    0.04239 =
         0.05198   -0.01101    0.01145   -0.01426
O2    4    0.586543    0.335754    0.305840    11.00000    0.06386    0.04343 =
         0.04378    0.00303    0.00651    0.01921
O3    4    0.131008    0.520813    0.246747    11.00000    0.05537    0.08452 =
         0.04458    0.01282   -0.00542    0.00649
O4    4    0.179328    0.664155    0.329125    11.00000    0.05707    0.04122 =
         0.07302    0.00735    0.02125    0.01576
O5    4    0.413674    0.648940    0.429771    11.00000    0.05277    0.04502 =
         0.03611   -0.00782    0.01596   -0.00476
O6    4    0.361875    0.813355    0.486544    11.00000    0.07798    0.06128 =
         0.05848   -0.01893    0.03037    0.00479
S1    5    0.459157    0.386913    0.271589    11.00000    0.04794    0.02915 =
         0.03354   -0.00361    0.00768    0.00273
S2    5    0.189911    0.540981    0.304412    11.00000    0.04208    0.04418 =
         0.04249    0.00763    0.00696    0.00872
HKLF 4

REM  20161220YKDZBXJ01_0m_a.res in P2(1)/c
REM R1 =  0.0370 for    3884 Fo > 4sig(Fo)  and  0.0469 for all    4760 data
REM    282 parameters refined using      0 restraints

END

WGHT      0.0474      0.5154

REM Highest difference peak  0.343,  deepest hole -0.288,  1-sigma level  0.046
Q1    1   0.1433  0.4796  0.3315  11.00000  0.05    0.34
Q2    1   0.5008  0.4386  0.2426  11.00000  0.05    0.29
Q3    1   0.4147  0.4616  0.2929  11.00000  0.05    0.29
Q4    1   0.6416  0.7615  0.4221  11.00000  0.05    0.27
Q5    1   0.6413  0.8443  0.4407  11.00000  0.05    0.23
Q6    1   0.7348  0.6965  0.3970  11.00000  0.05    0.21
Q7    1   0.6227  0.6443  0.4035  11.00000  0.05    0.20
Q8    1   0.5209  0.5994  0.3678  11.00000  0.05    0.20
Q9    1   0.0827  0.4590  0.3745  11.00000  0.05    0.18
Q10   1   0.1600  0.6181  0.3215  11.00000  0.05    0.17
Q11   1   0.7177  0.5207  0.1301  11.00000  0.05    0.17
Q12   1   0.7637  0.9172  0.4501  11.00000  0.05    0.17
Q13   1   0.3118  0.5239  0.3046  11.00000  0.05    0.17
Q14   1   0.0359  0.4035  0.3404  11.00000  0.05    0.17
Q15   1   0.2456  0.7122  0.3270  11.00000  0.05    0.16
Q16   1   0.5749  0.5381  0.4033  11.00000  0.05    0.15
Q17   1   0.0053  0.3397  0.3100  11.00000  0.05    0.15
Q18   1   0.6006  0.3234  0.3181  11.00000  0.05    0.15
Q19   1   0.8924  0.8337  0.4358  11.00000  0.05    0.15
Q20   1   0.8855  0.7366  0.4183  11.00000  0.05    0.14
;
_shelx_res_checksum              50365
_shelx_hkl_file
;
   2   0   0 3696.53   89.19
   3   0   0 2065.79   51.19
   4   0   0  970.40   26.00
   5   0   0   60.29    3.90
   6   0   0  147.89    7.00
   7   0   0    1.70    1.80
   8   0   0  345.67   13.60
  -9   0   0    6.10    3.10
   9   0   0    9.20    3.10
 -10   0   0   10.60    3.40
 -10   0   0   10.50    3.50
   0  -1   0   -2.20    0.20
   0   1   0   -2.40    0.20
   0   1   0   -2.60    0.20
  -1  -1   0  496.15   12.70
   1  -1   0  478.65   12.40
  -1   1   0  496.85   12.70
  -1   1   0  485.75   12.00
   2  -1   0    0.10    0.50
   2   1   0    1.30    0.60
  -2   1   0    0.60    0.50
   3  -1   0  213.38    7.10
   4  -1   0 1030.90   27.40
   5  -1   0   45.50    3.40
   5   1   0   33.90    3.50
   6  -1   0  405.26   13.80
   6   1   0  411.36   13.90
   7  -1   0   62.29    4.90
   7   1   0   67.79    5.10
  -7   1   0   67.19    5.20
   8  -1   0   95.39    6.60
  -8   1   0  105.49    7.00
  -8   1   0   98.19    6.30
  -9  -1   0   57.89    6.60
   9  -1   0   61.39    6.50
  -9   1   0   50.69    6.00
  -9   1   0   66.19    5.60
 -10  -1   0   -0.70    2.60
 -10   1   0    4.10    3.00
   0  -2   0 2172.48   53.09
   0   2   0 2242.68   52.99
   0   2   0 2179.78   53.29
   1  -2   0  812.52   23.00
  -1  -2   0  966.40   23.60
  -1   2   0  958.00   22.50
  -1   2   0  982.00   23.70
   2  -2   0  688.13   18.40
  -2  -2   0  693.43   18.90
  -2   2   0  726.53   19.00
  -2   2   0  728.43   17.60
   3  -2   0 4498.45  106.99
  -3  -2   0 4323.67  107.39
  -3   2   0 4476.15  107.49
  -3   2   0 4345.06  105.89
   4  -2   0   27.90    2.70
  -4  -2   0   27.50    2.90
  -4   2   0   33.60    2.20
  -4   2   0   28.90    2.90
  -5  -2   0   11.10    2.10
   5  -2   0    9.10    2.00
  -5   2   0   11.10    1.70
  -5   2   0   12.00    2.30
  -6  -2   0    5.10    2.10
   6  -2   0    3.80    1.90
  -6   2   0    3.10    1.50
  -6   2   0    3.00    1.70
   7  -2   0   51.29    5.10
  -7  -2   0   53.99    5.50
  -7   2   0   47.60    5.10
  -7   2   0   49.30    4.00
   8  -2   0    5.60    2.70
  -8  -2   0    6.60    3.00
  -8   2   0    9.10    3.00
  -8   2   0    2.60    2.20
  -9  -2   0   13.00    3.90
   9  -2   0    8.80    3.20
  -9   2   0    8.20    3.30
 -10  -2   0   37.40    6.10
 -10   2   0   43.30    6.00
   0  -3   0   -0.60    0.40
   0   3   0   -0.40    0.40
   0   3   0   -0.40    0.40
  -1  -3   0   42.80    2.40
  -1   3   0   44.20    2.40
  -1   3   0   41.60    1.70
  -2  -3   0  179.18    6.30
   2  -3   0  171.28    5.70
  -2   3   0  167.18    4.70
  -2   3   0  175.08    6.30
  -3  -3   0 1694.43   42.90
   3  -3   0 1606.24   42.00
  -3   3   0 1719.63   40.60
  -3   3   0 1653.33   42.80
  -4  -3   0  335.17   11.50
   4  -3   0  341.87   11.00
  -4   3   0  332.07    9.60
  -4   3   0  345.27   11.60
  -5  -3   0 1206.28   33.00
   5  -3   0 1188.78   32.20
  -5   3   0 1174.68   32.70
  -5   3   0 1195.18   30.60
  -6  -3   0  664.53   21.00
   6  -3   0  645.94   20.20
  -6   3   0  663.33   20.70
  -6   3   0  671.03   18.60
  -7  -3   0   14.40    3.30
   7  -3   0   17.80    3.30
  -7   3   0   11.50    2.90
  -7   3   0   14.40    2.30
   8  -3   0   82.19    6.20
  -8  -3   0   97.49    7.20
  -8   3   0   90.49    6.80
  -9  -3   0  141.09    9.40
  -9   3   0  157.78    9.60
 -10  -3   0    0.00    2.70
 -10   3   0   -1.90    2.60
   0  -4   0    5.10    1.10
   0   4   0    1.30    0.70
   0   4   0    1.70    0.90
  -1  -4   0 1273.57   32.80
  -1   4   0 1272.87   31.70
  -1   4   0 1297.07   33.00
  -2  -4   0 1169.28   30.90
   2  -4   0 1208.28   30.30
  -2   4   0 1181.28   29.00
  -2   4   0 1163.28   31.00
   3  -4   0  106.09    4.80
  -3  -4   0  111.89    5.30
  -3   4   0  105.59    5.20
  -3   4   0  109.99    3.40
  -4  -4   0  632.84   19.30
   4  -4   0  662.73   18.80
  -4   4   0  646.24   16.60
  -4   4   0  651.53   19.50
   5  -4   0  115.89    6.00
  -5  -4   0  108.09    6.20
  -5   4   0  113.69    6.40
  -5   4   0  119.09    4.40
   6  -4   0   22.70    3.40
  -6  -4   0   24.70    3.90
  -6   4   0   34.90    4.30
  -6   4   0   28.90    2.60
   7  -4   0   85.69    6.10
  -7  -4   0   89.19    6.70
  -7   4   0  100.09    6.80
  -8  -4   0   16.70    4.20
   8  -4   0   13.30    3.20
  -8   4   0   15.20    3.60
  -9  -4   0   25.20    4.90
  -9   4   0   21.70    4.60
 -10  -4   0    1.20    3.20
 -10   4   0    9.30    4.00
   0  -5   0   -0.90    0.60
   0   5   0   -0.50    0.60
   0   5   0   -0.90    0.80
  -1  -5   0  208.48    7.30
   1  -5   0  181.78    6.70
  -1   5   0  203.48    7.50
  -1   5   0  208.28    6.50
  -2  -5   0  148.29    6.40
   2  -5   0  155.08    5.90
  -2   5   0  151.08    4.80
  -2   5   0  149.99    6.50
   3  -5   0    1.50    1.00
  -3  -5   0    1.20    1.10
  -3   5   0    0.50    0.50
  -3   5   0    2.10    1.30
  -4  -5   0    5.10    1.80
   4  -5   0    3.70    1.50
  -4   5   0    5.60    1.80
  -4   5   0    4.40    0.90
   5  -5   0  286.17   10.80
  -5  -5   0  289.37   11.60
  -5   5   0  283.37   11.40
  -5   5   0  287.77    8.20
  -6  -5   0    2.30    2.20
   6  -5   0    0.90    1.70
  -6   5   0    1.40    2.10
  -7  -5   0  625.84   21.30
   7  -5   0  604.64   20.40
  -7   5   0  639.74   21.40
   8  -5   0    7.30    4.60
  -8  -5   0   10.90    3.50
  -8   5   0   12.40    3.60
  -9  -5   0    2.20    2.70
  -9   5   0   -0.40    2.30
 -10  -5   0   15.50    4.70
 -10   5   0   13.80    4.50
   0  -6   0  354.36   10.90
   0   6   0  333.17   11.20
  -1  -6   0    0.60    1.00
   1  -6   0    0.30    1.00
  -1   6   0   -1.60    0.60
  -1   6   0    0.90    1.30
  -2  -6   0  405.36   13.30
   2  -6   0  420.16   12.90
  -2   6   0  420.86   13.70
  -2   6   0  414.36   11.60
  -3  -6   0  454.05   14.80
   3  -6   0  445.46   14.10
  -3   6   0  453.45   15.00
  -3   6   0  448.36   12.00
  -4  -6   0  575.44   18.40
   4  -6   0  577.64   17.80
  -4   6   0  564.24   14.90
  -4   6   0  591.64   18.70
  -5  -6   0  840.72   25.80
   5  -6   0  871.91   25.40
  -5   6   0  863.71   26.10
   6  -6   0    1.50    1.90
  -6  -6   0    0.20    2.10
  -6   6   0    3.80    2.70
  -7  -6   0   43.80    5.40
   7  -6   0   58.89    5.90
  -7   6   0   40.10    5.30
  -8  -6   0    4.10    3.10
  -8   6   0   -1.10    2.60
  -9  -6   0    2.40    2.70
  -9   6   0    5.00    3.20
   0  -7   0    1.50    1.20
   0   7   0    0.00    1.20
   1  -7   0 1284.27   33.50
  -1  -7   0 1265.07   33.70
  -1   7   0 1224.28   34.00
  -2  -7   0  273.87   10.20
  -2   7   0  258.07   10.30
  -2   7   0  270.17    8.50
   3  -7   0  193.98    8.10
  -3  -7   0  199.08    8.80
  -3   7   0  185.28    6.10
  -3   7   0  194.98    8.90
   4  -7   0 1961.20   51.39
  -4  -7   0 1947.21   51.89
  -4   7   0 1955.20   52.29
   5  -7   0   41.40    4.70
  -5  -7   0   40.80    5.00
  -5   7   0   41.30    5.20
  -6  -7   0   94.89    6.90
   6  -7   0   94.69    6.50
  -6   7   0  114.39    7.70
   7  -7   0  217.98   11.00
  -7  -7   0  224.88   11.30
  -7   7   0  227.38   11.80
  -8  -7   0    2.00    2.70
  -8   7   0    0.70    3.10
  -9  -7   0    2.70    3.00
  -9   7   0    3.80    3.40
   0  -8   0   -1.90    1.30
   0   8   0   -0.70    1.40
  -1  -8   0  279.47   10.40
   1  -8   0  269.17   10.10
  -1   8   0  270.47   10.70
  -2  -8   0  768.52   22.80
  -2   8   0  764.82   23.30
  -3  -8   0   69.29    5.30
   3  -8   0   65.79    4.90
  -3   8   0   65.79    5.70
  -4  -8   0   93.29    6.40
   4  -8   0   89.89    6.00
  -4   8   0   94.29    6.60
  -5  -8   0   11.80    3.40
   5  -8   0    9.00    2.80
  -5   8   0    8.40    3.00
   6  -8   0   72.19    6.80
  -6  -8   0   56.29    6.20
  -6   8   0   66.59    6.90
  -7  -8   0   38.20    5.60
  -7   8   0   45.50    6.40
  -8  -8   0    3.20    3.20
  -8   8   0    3.20    3.50
   0  -9   0   -2.00    1.40
   0   9   0   -2.80    1.30
  -1  -9   0  821.82   24.30
   1  -9   0  858.31   24.50
  -1   9   0  816.72   25.00
  -2  -9   0   15.40    3.20
  -2   9   0   26.70    4.30
   3  -9   0  169.78    8.50
  -3  -9   0  187.58    9.00
  -3   9   0  183.18    9.30
  -4  -9   0   44.50    5.20
   4  -9   0   61.09    5.90
  -4   9   0   53.59    6.00
   5  -9   0    9.50    2.90
  -5  -9   0   13.20    3.60
  -5   9   0   10.10    3.40
  -6  -9   0    7.70    3.30
   6  -9   0    9.10    3.10
  -6   9   0    7.40    3.50
  -7  -9   0   58.59    6.80
  -7   9   0   67.79    7.60
  -8  -9   0    0.40    3.40
  -8   9   0    2.10    3.10
   0 -10   0   72.99    5.40
   1 -10   0  453.35   15.90
  -1 -10   0  451.35   15.90
  -1  10   0  495.05   17.10
  -2 -10   0   51.49    5.20
  -2  10   0   50.09    5.60
   3 -10   0   24.30    4.00
  -3 -10   0   27.00    4.10
  -3  10   0   27.90    4.50
   4 -10   0   -0.60    1.80
  -4 -10   0    1.50    2.50
  -4  10   0   -3.80    2.00
   5 -10   0  122.79    8.30
  -5 -10   0  157.88    9.50
  -5  10   0  151.98    9.80
  -6 -10   0   41.70    6.00
  -6  10   0   35.80    6.10
  -7 -10   0    5.10    3.70
  -7  10   0   -2.80    3.30
   0 -11   0   -3.80    2.00
   1 -11   0   86.89    6.40
  -1 -11   0   97.59    6.50
  -1  11   0   89.69    6.70
  -2 -11   0   86.69    6.50
   2 -11   0   65.79    5.60
  -2  11   0   96.69    7.00
  -3 -11   0   57.29    6.00
   3 -11   0   64.99    6.40
  -3  11   0   62.29    6.80
   4 -11   0   39.00    5.40
  -4 -11   0   36.20    5.30
  -4  11   0   43.30    5.90
   5 -11   0   58.29   10.10
  -5 -11   0   62.69    7.10
  -5  11   0   52.79    7.10
  -6 -11   0   15.50    4.60
  -6  11   0    2.00    3.80
   0 -12   0   87.99    6.60
  -1 -12   0    8.20    3.20
   1 -12   0    8.80    3.10
   2 -12   0   12.00    3.60
  -2 -12   0    8.30    3.40
  -2  12   0   13.50    3.80
  -3 -12   0   45.70    5.80
   3 -12   0   42.10    5.80
  -3  12   0   37.80    5.90
   4 -12   0    4.20    3.00
  -4 -12   0    1.20    2.90
  -4  12   0    6.60    3.60
  -5 -12   0   -1.60    2.80
  -5  12   0    1.80    3.50
   0 -13   0   -1.30    2.60
   1 -13   0   17.90    4.30
  -1 -13   0   13.10    4.00
  -2 -13   0   -0.60    2.50
   2 -13   0   -1.10    2.40
  -2  13   0   -2.50    2.20
   3 -13   0   34.60    5.70
  -3 -13   0   39.50    5.80
  -3  13   0   44.30    6.80
 -10   0   1    0.90    2.60
  -9   0   1   -2.40    2.10
   9   0  -1   -0.30    2.20
   8   0  -1   -0.50    2.10
   7   0  -1    0.00    1.60
   6   0  -1    0.50    1.40
   5   0  -1   -0.10    1.10
   4   0  -1   -0.40    0.40
   3   0  -1   -0.30    0.40
   2   0  -1    1.10    0.60
   1   0  -1   -0.50    0.20
   0   0  -1    0.00    0.10
   1   0   1   -0.50    0.20
   2   0   1   -1.30    0.60
   3   0   1   -0.50    0.60
   4   0   1    0.60    1.10
   5   0   1   -0.10    0.90
   6   0   1   -0.60    1.30
   7   0   1   -0.10    1.50
   8   0   1    0.10    2.00
  -9   0  -1    5.60    2.60
 -10   0  -1   -1.70    2.10
 -10   0  -1   -0.30    2.60
 -10   0  -1   -0.90    2.40
 -11  -1   1    7.10    4.20
  10  -1  -1   64.89    7.20
 -10  -1   1   63.39    7.50
 -10   1   1   71.39    7.60
   9  -1  -1   -2.40    2.20
  -9   1   1    0.10    2.00
  -9   1   1    0.20    2.40
   8  -1  -1    2.60    2.20
  -8   1   1   -0.40    2.10
   8   1  -1    0.20    2.10
   7  -1  -1  126.09    7.00
  -7   1   1  111.49    6.60
   6  -1  -1    9.60    2.30
  -6   1   1    9.20    2.30
   5  -1  -1 1075.49   28.40
   5   1  -1  976.00   28.20
   4  -1  -1  532.95   15.70
   4   1  -1  535.95   15.90
   3  -1  -1 3023.80   79.09
   3   1  -1 3372.36   79.49
  -3   1   1 3317.17   79.19
   2   1  -1  507.75   14.00
  -2   1   1  524.75   13.90
   1   1  -1 1789.82   43.90
  -1   1   1 1817.02   43.80
   0  -1  -1 1297.47   31.60
   0   1   1 1306.97   31.70
   0   1  -1 1296.57   31.60
  -1  -1  -1 3420.16   83.79
   1  -1   1 3461.05   84.49
  -1   1  -1 3621.44   83.99
  -1   1  -1 3456.35   84.89
  -2  -1  -1 6700.43  160.98
   2  -1   1 7073.09  163.88
  -2   1  -1 6401.16  161.88
   3  -1   1  418.86   11.70
   3   1   1  398.96   11.70
   4  -1   1 1824.82   46.10
   4   1   1 1828.92   46.30
   5  -1   1   34.00    2.90
   5   1   1   40.60    3.10
   6  -1   1    4.60    1.80
   6   1   1    9.30    2.10
   7  -1   1  105.09    6.10
  -7   1  -1  107.49    6.20
  -8  -1  -1   76.09    5.80
   8  -1   1   66.99    5.60
  -8   1  -1   76.49    5.60
  -8   1  -1   72.59    6.00
   9  -1   1    2.60    2.40
  -9  -1  -1    2.80    2.70
  -9   1  -1    1.80    2.30
  -9   1  -1    5.10    2.90
 -10  -1  -1    3.20    2.80
 -10  -1  -1   -3.10    2.20
 -10   1  -1    1.90    2.60
 -10  -2   1   22.50    5.10
 -10   2   1   17.90    4.40
   9  -2  -1  246.18   11.50
  -9  -2   1  234.88   12.10
  -9   2   1  231.98   11.50
  -8  -2   1   25.40    4.60
   8  -2  -1   29.30    4.30
  -8   2   1   21.80    3.40
  -8   2   1   23.70    4.20
  -7  -2   1  271.77   11.50
   7  -2  -1  270.27   11.10
  -7   2   1  263.47    9.90
  -7   2   1  255.67   10.80
   6  -2  -1  226.08    9.30
  -6   2   1  223.68    9.40
  -6   2   1  223.58    8.30
   5  -2  -1  125.69    6.10
  -5   2   1  131.19    6.20
   4  -2  -1  211.18    7.90
  -4   2   1  217.98    8.00
  -3  -2   1 1983.60   49.60
   3  -2  -1 1967.30   49.10
  -3   2   1 1951.60   47.70
  -3   2   1 1943.91   49.20
  -2  -2   1 3425.66   82.39
  -2   2   1 3348.86   80.89
  -2   2   1 3357.66   82.09
   1  -2  -1 1280.97   33.40
  -1  -2   1 1373.56   33.80
  -1   2   1 1371.66   33.70
  -1   2   1 1371.06   32.50
   1   2  -1 1390.76   33.90
   0  -2  -1  639.84   16.00
   0   2   1  622.24   16.10
   0   2  -1  625.94   15.90
   1  -2   1  480.95   12.20
  -1  -2  -1  474.65   12.70
  -1   2  -1  475.55   12.00
  -1   2  -1  473.95   12.90
   2  -2   1 1631.94   40.50
  -2  -2  -1 1641.54   41.10
  -2   2  -1 1631.74   40.00
  -2   2  -1 1692.93   41.40
  -3  -2  -1  816.62   22.20
   3  -2   1  840.62   21.70
  -3   2  -1  825.42   22.50
  -3   2  -1  811.72   21.10
   4  -2   1  109.59    4.90
  -4  -2  -1  110.09    5.20
  -4   2  -1  114.39    5.40
  -4   2  -1  108.09    4.40
  -5  -2  -1  311.57   11.20
   5  -2   1  310.37   10.70
  -5   2  -1  332.87   10.40
  -5   2  -1  319.47   11.40
   6  -2   1  131.99    6.50
  -6  -2  -1  126.09    6.70
  -6   2  -1  135.29    6.10
  -6   2  -1  124.49    6.80
  -7  -2  -1   17.10    3.20
   7  -2   1   16.60    3.00
  -7   2  -1   16.40    2.80
  -7   2  -1   16.40    3.40
   8  -2   1   59.49    5.70
  -8  -2  -1   72.99    6.20
  -8   2  -1   72.49    6.90
  -8   2  -1   63.59    5.10
  -9  -2  -1    4.30    3.20
  -9   2  -1    1.50    2.80
 -10  -2  -1   31.10    5.40
 -10   2  -1   40.80    6.30
 -10  -3   1   15.90    4.80
 -10   3   1   11.10    3.80
   9  -3  -1   16.90    3.90
  -9  -3   1   13.80    4.10
  -9   3   1   16.40    3.90
  -8  -3   1    1.50    2.70
   8  -3  -1    3.70    2.40
  -8   3   1    7.70    3.10
  -7  -3   1    2.50    2.40
   7  -3  -1    4.00    2.10
  -7   3   1    5.30    2.30
  -7   3   1    8.20    1.80
  -6  -3   1  208.68    9.50
   6  -3  -1  218.58    9.30
  -6   3   1  217.88    7.70
  -6   3   1  205.18    9.20
   5  -3  -1  223.28    8.70
  -5  -3   1  215.48    9.20
  -5   3   1  206.68    7.10
  -5   3   1  223.18    8.90
  -4  -3   1   92.59    5.10
   4  -3  -1   91.29    4.70
  -4   3   1   91.49    4.90
  -4   3   1   92.19    3.40
  -3  -3   1   21.50    2.50
   3  -3  -1   25.60    2.50
  -3   3   1   22.90    1.20
  -3   3   1   17.80    2.30
  -2  -3   1 1361.36   34.90
  -2   3   1 1360.56   32.70
  -2   3   1 1362.56   34.80
   1  -3  -1   22.30    1.50
  -1  -3   1   20.30    1.70
   1   3  -1   20.80    2.00
  -1   3   1   24.50    1.10
  -1   3   1   20.70    1.70
   0  -3  -1  163.78    5.00
   0  -3   1  122.79    4.70
   0   3  -1  153.88    4.90
   0   3   1  158.98    5.20
   1  -3   1   13.80    1.20
  -1  -3  -1   15.30    1.60
  -1   3  -1   12.30    1.00
  -1   3  -1   12.10    1.50
  -2  -3  -1    0.80    0.70
   2  -3   1    4.30    0.80
  -2   3  -1    2.60    0.60
  -2   3  -1    4.40    1.10
   3  -3   1  363.76   11.10
  -3  -3  -1  389.76   11.90
  -3   3  -1  376.36   12.10
  -3   3  -1  383.36   10.20
  -4  -3  -1 1499.35   39.50
   4  -3   1 1516.05   38.80
  -4   3  -1 1486.45   37.50
  -4   3  -1 1519.25   39.80
  -5  -3  -1  656.63   19.70
   5  -3   1  644.34   18.90
  -5   3  -1  628.64   19.70
  -5   3  -1  642.34   17.70
   6  -3   1   97.59    5.50
  -6  -3  -1   90.29    5.80
  -6   3  -1   90.49    4.60
  -6   3  -1   96.39    6.00
  -7  -3  -1  182.68    9.40
   7  -3   1  190.28    8.80
  -7   3  -1  214.28    8.10
  -7   3  -1  200.28    9.60
  -8  -3  -1  123.89    8.10
   8  -3   1  124.29    7.40
  -8   3  -1  143.99    8.60
  -9  -3  -1   48.70    6.40
  -9   3  -1   56.59    6.70
 -10  -3  -1   -2.50    2.80
 -10   3  -1    1.50    3.20
 -10  -4   1   20.10    4.90
 -10   4   1   15.10    4.40
  -9  -4   1    1.70    2.60
  -9   4   1   -2.10    2.20
   8  -4  -1    5.30    2.60
  -8  -4   1    3.40    2.90
  -8   4   1    5.10    2.80
   7  -4  -1   12.60    3.00
  -7  -4   1   11.20    3.20
  -7   4   1   17.70    3.60
   6  -4  -1  207.38    9.00
  -6  -4   1  176.78    9.00
  -6   4   1  190.38    6.70
  -6   4   1  197.78    9.00
  -5  -4   1    5.30    1.90
   5  -4  -1    3.00    1.70
  -5   4   1    4.20    1.00
  -5   4   1    3.10    1.90
   4  -4  -1   57.59    3.80
  -4  -4   1   65.59    4.50
  -4   4   1   57.89    2.30
  -4   4   1   63.39    4.30
  -3  -4   1  229.38    8.50
   3  -4  -1  225.68    7.90
  -3   4   1  227.98    5.90
  -3   4   1  205.58    8.10
  -2  -4   1  210.28    7.40
  -2   4   1  191.48    7.20
  -2   4   1  195.58    5.40
   1  -4  -1  371.76   10.80
  -1  -4   1  368.26   11.10
  -1   4   1  371.36   10.00
   1   4  -1  368.26   11.20
  -1   4   1  381.76   11.30
   0  -4   1 1245.78   31.70
   0  -4  -1 1255.77   31.70
   0   4  -1 1273.97   31.70
   0   4   1 1281.47   32.10
   0   4  -1 1214.68   31.90
   1  -4   1  492.75   13.20
  -1  -4  -1  455.05   13.50
  -1   4  -1  480.05   12.80
  -1   4  -1  477.75   13.80
   2  -4   1  206.18    6.70
  -2  -4  -1  201.58    7.20
  -2   4  -1  194.08    7.40
  -2   4  -1  198.28    5.90
   3  -4   1 1333.37   33.50
  -3  -4  -1 1273.27   34.20
  -3   4  -1 1308.67   34.70
  -3   4  -1 1289.57   32.00
  -4  -4  -1    4.10    1.60
   4  -4   1    2.00    1.10
  -4   4  -1    1.00    0.70
  -4   4  -1    1.40    1.10
   5  -4   1  858.91   24.30
  -5  -4  -1  848.22   25.00
  -5   4  -1  854.61   22.40
  -5   4  -1  874.21   25.50
   6  -4   1   -0.30    1.20
  -6  -4  -1    0.00    1.60
  -6   4  -1    0.10    1.00
  -6   4  -1    1.90    2.00
  -7  -4  -1  281.37   12.00
   7  -4   1  273.97   11.20
  -7   4  -1  284.57   12.30
  -8  -4  -1   16.30    3.90
   8  -4   1    9.10    3.20
  -8   4  -1    8.30    3.00
  -9  -4  -1    3.80    2.90
  -9   4  -1    7.30    3.30
 -10  -4  -1    9.10    3.80
 -10   4  -1   18.20    5.00
 -10  -5   1    1.90    3.00
 -10   5   1   -4.20    2.50
  -9  -5   1    2.50    3.00
  -9   5   1    1.60    2.70
   8  -5  -1   76.89    6.50
  -8  -5   1   93.09    7.20
  -8   5   1   84.89    7.00
   7  -5  -1  123.29    7.60
  -7  -5   1  145.69    8.50
  -7   5   1  132.79    8.20
  -6  -5   1   46.70    5.20
   6  -5  -1   48.30    5.10
  -6   5   1   46.40    5.30
  -5  -5   1  682.83   21.60
   5  -5  -1  704.73   21.10
  -5   5   1  692.83   21.50
  -4  -5   1  106.29    6.00
   4  -5  -1  113.09    5.70
  -4   5   1  110.89    3.40
  -4   5   1  119.69    6.20
  -3  -5   1   18.70    2.70
   3  -5  -1   21.70    2.50
  -3   5   1   18.30    2.60
  -3   5   1   19.20    1.10
  -2  -5   1  739.43   20.60
  -2   5   1  715.93   18.30
  -2   5   1  721.63   20.60
  -1  -5   1    1.90    1.10
   1  -5  -1    0.80    0.90
  -1   5   1    2.40    1.10
   1   5  -1    0.50    1.00
   0  -5  -1    1.90    1.00
   0  -5   1    1.10    0.80
   0   5  -1    1.20    0.80
   0   5  -1    8.90    1.60
   0   5   1    1.90    1.00
  -1  -5  -1  668.13   18.50
  -1   5  -1  658.93   17.60
  -1   5  -1  665.23   18.80
   2  -5   1  646.54   17.50
  -2  -5  -1  639.04   18.20
  -2   5  -1  618.64   18.40
  -2   5  -1  619.24   16.40
  -3  -5  -1    0.80    1.10
   3  -5   1    0.20    0.80
  -3   5  -1    0.50    0.60
  -3   5  -1   -0.90    0.90
  -4  -5  -1   55.59    4.20
   4  -5   1   64.99    4.00
  -4   5  -1   61.39    4.40
  -4   5  -1   58.59    2.60
   5  -5   1  385.56   13.20
  -5  -5  -1  397.16   14.00
  -5   5  -1  401.46   14.30
  -5   5  -1  380.96   10.90
   6  -5   1  479.35   16.10
  -6  -5  -1  497.45   17.10
  -6   5  -1  473.05   17.20
   7  -5   1    2.20    2.00
  -7  -5  -1    5.40    2.80
  -7   5  -1    2.10    2.40
  -8  -5  -1    4.00    3.10
  -8   5  -1    2.70    2.70
  -9  -5  -1   30.80    5.30
  -9   5  -1   25.80    5.30
 -10  -5  -1    6.50    3.80
 -10   5  -1    5.60    3.80
  -9  -6   1   -1.10    2.50
  -9   6   1    0.40    3.00
  -8  -6   1   72.89    7.50
  -8   6   1   74.39    7.50
  -7  -6   1    4.10    3.00
   7  -6  -1    5.20    2.60
  -7   6   1    2.90    3.00
   6  -6  -1  353.16   13.60
  -6  -6   1  349.87   14.10
  -6   6   1  349.96   13.90
  -5  -6   1  898.11   27.00
   5  -6  -1  894.61   26.40
  -5   6   1  889.51   26.90
  -4  -6   1   12.60    2.80
   4  -6  -1   11.60    2.50
  -4   6   1   10.30    2.60
   3  -6  -1  652.73   19.40
  -3  -6   1  682.83   20.20
  -3   6   1  654.13   16.70
  -3   6   1  658.23   20.10
   2  -6  -1   19.20    2.40
  -2  -6   1   32.70    3.40
  -2   6   1   35.40    3.70
  -1  -6   1    7.50    1.70
   1  -6  -1    9.80    1.80
  -1   6   1   12.20    2.10
   0  -6   1  368.06   11.40
   0  -6  -1  348.47   11.30
   0   6  -1  361.56   11.70
   0   6  -1  355.46   11.30
   0   6   1  375.86   11.90
  -1  -6  -1  117.89    5.40
  -1   6  -1  115.89    5.60
  -1   6  -1  114.29    4.70
  -2  -6  -1  243.08    9.30
   2  -6   1  264.17    9.00
  -2   6  -1  256.47    8.00
  -2   6  -1  275.87    9.90
   3  -6   1 1205.18   32.20
  -3  -6  -1 1234.78   33.00
  -3   6  -1 1176.48   30.20
  -3   6  -1 1216.58   33.40
  -4  -6  -1  173.88    8.10
   4  -6   1  181.68    7.60
  -4   6  -1  178.28    8.40
  -4   6  -1  166.68    5.50
   5  -6   1   29.00    3.80
  -5  -6  -1   28.10    4.00
  -5   6  -1   32.10    4.30
   6  -6   1   17.00    3.10
  -6  -6  -1   14.50    3.30
  -6   6  -1   17.70    3.70
  -7  -6  -1    9.20    3.20
   7  -6   1   13.10    3.10
  -7   6  -1   10.10    3.40
  -8  -6  -1   62.89    6.70
  -8   6  -1   63.49    7.00
  -9  -6  -1    7.10    3.70
  -9   6  -1    4.70    3.50
  -9  -7   1   58.89    7.30
  -9   7   1   45.30    6.50
  -8  -7   1   -2.00    2.80
  -8   7   1    2.40    2.90
   7  -7  -1   27.90    4.70
  -7  -7   1   35.30    5.60
  -7   7   1   30.00    4.90
   6  -7  -1    8.70    2.80
  -6  -7   1    7.30    3.20
  -6   7   1    8.90    3.40
  -5  -7   1   33.40    4.80
   5  -7  -1   41.10    4.70
  -5   7   1   35.80    4.80
   4  -7  -1    6.80    2.20
  -4  -7   1    4.80    2.70
  -4   7   1   10.80    3.10
  -3  -7   1    2.90    2.20
   3  -7  -1    4.40    1.80
  -3   7   1    1.60    2.00
   2  -7  -1  205.88    8.30
  -2  -7   1  216.48    8.70
  -2   7   1  204.18    8.80
   1  -7  -1  428.76   13.40
  -1  -7   1  416.16   13.50
  -1   7   1  413.66   13.90
   0  -7  -1  216.28    8.20
   0  -7   1  222.88    8.20
   0   7  -1  220.98    8.70
   0   7   1  230.18    8.80
   0   7  -1  218.28    8.30
  -1  -7  -1   85.09    5.00
  -1   7  -1   97.49    5.50
  -1   7  -1   82.09    4.30
  -2  -7  -1   15.10    2.60
   2  -7   1    7.30    1.80
  -2   7  -1   13.80    1.80
  -2   7  -1    9.80    2.50
   3  -7   1  215.08    8.50
  -3  -7  -1  210.28    9.00
  -3   7  -1  204.98    9.20
  -3   7  -1  207.58    6.80
  -4  -7  -1  137.29    7.70
   4  -7   1  144.59    7.20
  -4   7  -1  148.19    8.10
   5  -7   1  151.58    7.60
  -5  -7  -1  139.09    7.90
  -5   7  -1  148.19    8.50
   6  -7   1   38.90    4.60
  -6  -7  -1   41.30    5.10
  -6   7  -1   44.60    5.50
  -7  -7  -1   69.69    7.10
  -7   7  -1   67.39    7.20
  -8  -7  -1   35.00    5.50
  -8   7  -1   35.50    5.90
  -9  -7  -1    6.20    3.70
  -9   7  -1   -2.90    2.90
  -8  -8   1   43.30    6.30
  -8   8   1   58.49    7.40
   7  -8  -1    0.40    2.60
  -7  -8   1    0.60    2.70
  -7   8   1   -2.90    2.50
   6  -8  -1   12.90    3.40
  -6  -8   1   13.60    3.90
  -6   8   1   12.80    3.80
   5  -8  -1  120.19    7.40
  -5  -8   1  115.79    7.70
  -5   8   1  120.09    7.70
   4  -8  -1  491.85   17.00
  -4  -8   1  514.15   17.50
  -4   8   1  493.45   17.60
   3  -8  -1  282.37   11.20
  -3  -8   1  295.77   11.60
  -3   8   1  297.27   12.00
   2  -8  -1  239.38    9.50
  -2  -8   1  222.18    9.50
  -2   8   1  230.98    9.90
  -1  -8   1  266.67   10.00
   1  -8  -1  250.97    9.80
  -1   8   1  251.37   10.20
   0  -8   1  220.58    8.70
   0  -8  -1  226.68    8.80
   0   8  -1  230.78    9.40
   0   8   1  225.68    9.30
  -1  -8  -1   20.40    3.00
   1  -8   1   20.70    2.90
  -1   8  -1   20.50    3.10
  -1   8  -1   27.20    3.00
   2  -8   1   35.90    3.80
  -2  -8  -1   34.50    4.20
  -2   8  -1   38.80    4.60
  -2   8  -1   37.20    2.90
   3  -8   1  388.16   13.70
  -3  -8  -1  410.66   14.40
  -3   8  -1  406.86   14.90
   4  -8   1  145.09    7.50
  -4  -8  -1  143.79    8.00
  -4   8  -1  141.19    8.10
  -5  -8  -1   80.79    6.40
   5  -8   1   72.29    5.70
  -5   8  -1   87.39    6.80
   6  -8   1    2.90    2.10
  -6  -8  -1   -0.70    2.30
  -6   8  -1    0.60    2.50
  -7  -8  -1   43.80    6.00
  -7   8  -1   33.60    5.50
  -8  -8  -1   29.60    5.30
  -8   8  -1   26.30    5.30
  -8  -9   1    1.20    3.70
  -8   9   1    0.90    3.10
  -7  -9   1    8.90    3.60
  -7   9   1   13.70    4.40
   6  -9  -1  164.48    9.90
  -6  -9   1  164.48    9.80
  -6   9   1  176.18   10.20
  -5  -9   1  206.28   10.70
   5  -9  -1  218.18   10.70
  -5   9   1  216.08   11.20
  -4  -9   1  146.79    8.50
   4  -9  -1  158.98    8.40
  -4   9   1  143.39    8.50
  -3  -9   1  202.58    9.20
   3  -9  -1  152.78    8.10
  -3   9   1  194.68    9.50
  -2  -9   1  973.50   27.90
   2  -9  -1  932.01   27.50
  -2   9   1  937.11   28.30
  -1  -9   1    2.20    2.10
   1  -9  -1    4.90    2.20
  -1   9   1    0.60    2.00
   0  -9   1   70.79    4.80
   0  -9  -1   73.39    5.10
   0   9  -1   79.69    5.50
   1  -9   1   57.39    4.60
  -1  -9  -1   56.79    4.90
  -1   9  -1   61.49    5.20
   2  -9   1  269.07   10.60
  -2  -9  -1  260.67   10.70
  -2   9  -1  266.07   11.30
  -3  -9  -1  306.77   12.40
   3  -9   1  306.07   12.00
  -3   9  -1  316.67   13.10
   4  -9   1   -2.00    1.50
  -4  -9  -1    1.20    2.20
  -4   9  -1   -2.30    1.90
   5  -9   1   52.39    5.70
  -5  -9  -1   51.49    5.80
  -5   9  -1   55.69    6.50
  -6  -9  -1  106.39    7.70
  -6   9  -1   96.39    7.80
  -7  -9  -1   11.30    3.80
  -7   9  -1   14.40    4.30
  -8  -9  -1    5.70    3.90
  -8   9  -1    5.20    3.50
  -7 -10   1    3.70    3.50
  -7  10   1   11.20    4.60
   6 -10  -1   29.20    8.10
  -6 -10   1   20.80    4.50
  -6  10   1   16.80    4.80
  -5 -10   1    2.60    3.20
   5 -10  -1    4.70    2.80
  -5  10   1    7.40    3.70
   4 -10  -1   17.40    3.50
  -4 -10   1   11.60    3.50
  -4  10   1   13.00    3.70
  -3 -10   1   17.80    3.80
   3 -10  -1    8.50    2.50
  -3  10   1   13.30    3.60
  -2 -10   1   86.49    6.40
   2 -10  -1   95.89    6.30
  -2  10   1  101.39    7.00
   1 -10  -1  315.87   12.10
  -1 -10   1  283.67   11.50
  -1  10   1  285.77   12.30
   0 -10  -1    1.50    2.00
   0 -10   1    7.40    2.60
   0  10  -1    5.00    2.30
   1 -10   1   70.69    5.40
  -1 -10  -1   62.99    5.40
  -1  10  -1   68.69    6.60
  -2 -10  -1   57.19    5.70
   2 -10   1   68.79    5.40
  -2  10  -1   58.89    6.10
   3 -10   1   -1.50    1.70
  -3 -10  -1   -0.10    2.10
  -3  10  -1   -0.50    2.10
  -4 -10  -1   89.29    6.70
   4 -10   1   74.09    6.00
  -4  10  -1   79.69    6.80
  -5 -10  -1   77.59    7.50
   5 -10   1   64.79    6.90
  -5  10  -1   76.19    8.00
  -6 -10  -1    5.90    3.30
  -6  10  -1    4.20    3.60
  -7 -10  -1   11.40    4.30
  -7  10  -1   13.40    4.30
  -6 -11   1    1.20    2.80
  -6  11   1   11.10    4.40
  -5 -11   1   -3.20    2.50
   5 -11  -1    3.20    2.70
  -5  11   1    0.40    3.20
   4 -11  -1    4.80    2.90
  -4 -11   1   11.20    3.80
  -4  11   1    4.50    3.20
  -3 -11   1   16.30    3.80
   3 -11  -1    2.50    1.90
  -3  11   1   12.00    3.50
  -2 -11   1   49.70    5.50
   2 -11  -1   51.69    5.70
  -2  11   1   52.69    6.00
   1 -11  -1   22.60    4.00
  -1 -11   1   20.60    3.90
  -1  11   1   18.80    4.00
   0 -11   1   38.20    4.80
   0 -11  -1   31.80    4.40
  -1 -11  -1   78.89    6.10
   1 -11   1   69.09    6.40
  -1  11  -1   69.19    6.90
  -2 -11  -1   16.90    3.50
   2 -11   1   20.50    3.90
  -2  11  -1   16.20    3.90
  -3 -11  -1    9.30    3.50
   3 -11   1    8.10    2.80
  -3  11  -1    6.30    3.10
   4 -11   1   82.69    6.70
  -4 -11  -1   89.99    7.10
  -4  11  -1   91.69    7.60
  -5 -11  -1    0.20    2.90
  -5  11  -1    3.50    3.20
  -6 -11  -1    6.00    3.70
  -6  11  -1    2.10    3.30
  -5 -12   1   -0.60    2.60
  -5  12   1    2.00    3.40
  -4 -12   1    0.50    3.10
   4 -12  -1   -0.80    2.40
  -4  12   1    4.10    3.50
   3 -12  -1    2.10    1.90
  -3 -12   1    2.40    2.70
  -3  12   1    2.00    3.00
  -2 -12   1    6.10    2.90
   2 -12  -1   13.90    3.80
  -2  12   1   12.00    3.70
  -1 -12   1   43.70    5.40
   1 -12  -1   46.70    5.80
   0 -12   1    9.20    3.10
   0 -12  -1    3.90    2.70
   1 -12   1   35.50    4.80
  -1 -12  -1   38.60    5.20
  -1  12  -1   38.50    5.40
  -2 -12  -1   39.10    5.40
   2 -12   1   28.50    4.80
  -2  12  -1   44.90    6.10
   3 -12   1    2.40    2.70
  -3 -12  -1    4.50    2.80
  -3  12  -1    3.90    3.40
  -4 -12  -1   29.60    5.30
  -4  12  -1   29.70    5.50
  -5 -12  -1    3.60    3.10
  -5  12  -1    4.10    3.50
  -3 -13   1   37.20    5.80
  -3  13   1   28.90    5.50
  -2 -13   1    0.10    2.60
   2 -13  -1   -3.00    1.90
  -2  13   1    0.70    3.30
  -1 -13   1   54.29    6.30
   1 -13  -1   52.79    6.40
   0 -13   1   -2.30    2.40
   0 -13  -1   -0.70    2.70
  -1 -13  -1    3.20    3.10
   1 -13   1   -1.20    2.20
   2 -13   1    3.00    2.90
  -2 -13  -1    0.30    2.80
  -2  13  -1    3.80    3.50
   3 -13   1   13.00    3.90
  -3 -13  -1    3.10    3.10
  -3  13  -1    5.80    3.80
  10   0  -2    4.90    3.30
  -9   0   2   23.90    4.20
   9   0  -2   22.90    4.50
  -8   0   2  178.48    9.00
   8   0  -2  206.68   10.00
   7   0  -2   29.40    3.90
   5   0  -2    0.10    1.10
   4   0  -2    5.70    1.50
   3   0  -2 7611.14  183.08
   2   0  -2  127.09    4.60
  -1   0   2    0.90    0.20
   1   0  -2    0.10    0.30
   1   0  -2    0.00    0.20
  -1   0  -2 3651.73   88.49
  -1   0  -2 3605.54   87.39
   2   0   2  462.85   12.10
   3   0   2 1176.38   29.80
   4   0   2 2017.20   50.49
   5   0   2  101.99    5.00
   6   0   2  185.38    7.80
   7   0   2    9.00    2.40
  -8   0  -2   41.60    5.20
  -9   0  -2   30.00    4.60
  -9   0  -2   33.40    4.90
 -10   0  -2    4.60    3.10
 -10   0  -2   10.00    3.90
 -11  -1   2   -0.90    3.60
 -10  -1   2   12.50    4.20
  10  -1  -2    9.90    3.60
 -10   1   2   14.90    4.00
   9  -1  -2   19.50    4.10
  -9   1   2   24.00    4.30
   9   1  -2   19.00    4.10
   8  -1  -2  148.29    8.40
  -8   1   2  141.99    7.90
   7  -1  -2   65.19    5.00
  -7   1   2   54.09    5.30
   7   1  -2   49.90    5.20
   6  -1  -2    4.90    2.00
  -6   1   2    8.20    2.00
   6   1  -2    5.80    1.90
   5   1  -2  385.56   13.20
  -5   1   2  409.06   12.80
   4   1  -2  186.08    7.20
  -4   1   2  170.98    6.60
   3  -1  -2  190.78    7.10
  -3   1   2  221.98    7.00
   3   1  -2  214.68    7.40
   2  -1  -2 6683.33  161.88
   2   1  -2 7109.49  162.28
  -2   1   2 6484.25  160.98
   2   1  -2 6211.18  158.58
   1  -1  -2 2505.15   59.19
   1  -1  -2 2338.97   58.69
   1   1  -2 2395.06   59.09
  -1   1   2 2329.37   58.89
   1   1  -2 2661.93   59.39
   0  -1  -2  746.03   18.10
   0  -1   2  724.73   18.00
   0  -1  -2  742.93   18.10
   0   1  -2  726.93   18.10
   0   1  -2  734.23   18.10
   1  -1   2  787.12   18.90
  -1  -1  -2  771.22   19.50
  -1   1  -2  787.02   19.40
  -2  -1  -2   16.60    1.40
   2  -1   2   16.30    1.20
  -2   1  -2   20.90    1.40
  -3  -1  -2 2303.17   56.99
   3  -1   2 2353.66   56.49
  -3   1  -2 2265.27   56.79
   4  -1   2  305.67    9.60
  -4  -1  -2  303.37    9.90
  -4   1  -2  299.87    9.70
   5  -1   2    2.10    1.20
  -5   1  -2    0.10    1.00
   6  -1   2  361.96   12.20
  -6  -1  -2  348.67   12.50
  -6   1  -2  366.36   12.40
  -7  -1  -2   46.00    4.80
   7  -1   2   56.19    4.40
  -7   1  -2   53.59    4.50
   8  -1   2   30.70    4.20
  -8  -1  -2   18.60    3.60
  -8   1  -2   21.10    3.80
  -9  -1  -2   69.79    6.80
  -9   1  -2   66.49    7.10
  -9   1  -2   60.39    6.20
 -10  -1  -2    2.50    2.90
 -10  -1  -2    1.40    2.90
 -10   1  -2   -1.80    2.30
 -10  -2   2   13.60    4.10
  10  -2  -2   20.20    4.60
 -10   2   2   12.20    3.90
   9  -2  -2   78.69    7.60
  -9  -2   2   76.59    7.60
  -9   2   2   82.59    7.60
   8  -2  -2   71.79    6.00
  -8  -2   2   91.09    7.10
  -8   2   2   74.79    5.90
  -8   2   2   82.19    5.40
   7  -2  -2   13.90    3.10
  -7   2   2   11.00    2.70
   6  -2  -2  194.98    8.80
   6   2  -2  204.88    9.00
  -6   2   2  204.38    8.60
   5  -2  -2    2.20    1.40
  -5   2   2    5.10    1.70
   5   2  -2    5.60    1.90
  -4   2   2   56.19    3.50
   4   2  -2   59.79    3.80
  -3   2   2  228.78    7.90
   3   2  -2  250.07    8.30
   2  -2  -2 1769.82   44.30
  -2  -2   2 1805.92   44.70
   2   2  -2 1768.72   44.60
  -2   2   2 1823.92   42.70
  -2   2   2 1749.43   44.20
  -1  -2   2 2411.46   58.29
   1  -2  -2 2365.26   57.89
  -1   2   2 2349.17   58.09
   1   2  -2 2414.56   58.19
   0  -2  -2 6739.03  165.48
   0  -2   2 6528.55  164.28
   0   2  -2 6742.43  164.48
   0   2   2 6940.61  164.48
   0   2  -2 6979.30  163.88
   1  -2   2 5814.42  151.78
  -1  -2  -2 5880.91  152.78
  -1   2  -2 6941.01  154.18
  -1   2  -2 6514.25  152.48
  -2  -2  -2 1635.94   40.90
   2  -2   2 1636.74   40.10
  -2   2  -2 1618.74   40.10
  -2   2  -2 1675.73   41.40
   3  -2   2 1372.96   34.10
  -3  -2  -2 1348.07   34.80
  -3   2  -2 1330.07   33.90
  -3   2  -2 1371.06   35.30
  -4  -2  -2  570.24   16.70
   4  -2   2  584.84   16.20
  -4   2  -2  562.84   15.90
  -5  -2  -2  154.28    6.90
   5  -2   2  166.08    6.60
  -5   2  -2  154.78    6.30
  -6  -2  -2   77.69    5.30
   6  -2   2   84.49    5.00
  -6   2  -2   79.99    4.70
  -6   2  -2   79.99    5.60
   7  -2   2   38.20    4.10
  -7  -2  -2   31.00    4.10
  -7   2  -2   32.00    3.70
  -7   2  -2   32.70    4.40
   8  -2   2    1.60    1.90
  -8  -2  -2   -2.30    1.90
  -8   2  -2   -1.60    2.00
  -8   2  -2    0.10    1.90
  -9  -2  -2   14.40    3.70
  -9   2  -2   24.60    4.60
 -10  -2  -2   30.80    5.30
 -10   2  -2   34.10    5.80
 -10  -3   2   -0.10    3.00
 -10   3   2    0.40    2.80
   9  -3  -2    8.10    3.10
  -9  -3   2   16.90    4.50
  -9   3   2    9.30    3.50
   8  -3  -2  130.29    7.90
  -8  -3   2  125.99    8.50
  -8   3   2  128.99    7.80
  -7  -3   2   44.90    5.20
   7  -3  -2   42.70    4.80
  -7   3   2   56.19    4.30
  -7   3   2   48.90    5.10
   6  -3  -2   22.20    3.50
  -6  -3   2   24.40    3.80
  -6   3   2   24.80    2.60
  -6   3   2   33.90    4.00
  -5  -3   2  567.14   18.00
   5  -3  -2  547.35   17.30
  -5   3   2  541.65   17.20
  -5   3   2  575.44   15.30
  -4  -3   2    6.70    1.60
   4  -3  -2    5.50    1.50
  -4   3   2    1.70    1.30
  -3  -3   2    8.70    1.80
  -3   3   2    8.20    0.70
  -3   3   2    7.70    1.50
   2  -3  -2  516.75   14.30
  -2  -3   2  517.15   14.80
   2   3  -2  493.05   14.70
  -2   3   2  522.45   14.60
  -1  -3   2  534.65   14.80
   1  -3  -2  551.04   14.50
  -1   3   2  541.25   14.80
   1   3  -2  531.05   14.10
   1   3  -2  533.25   14.80
   0  -3  -2  481.15   12.90
   0   3   2  487.85   13.20
   0   3  -2  475.55   12.90
   1  -3   2 3267.17   80.69
  -1  -3  -2 3231.98   80.19
  -1   3  -2 3347.57   79.59
  -1   3  -2 3373.86   80.59
  -2  -3  -2  490.85   13.80
   2  -3   2  479.65   13.00
  -2   3  -2  493.65   14.30
  -2   3  -2  484.75   12.70
  -3  -3  -2  463.85   13.60
   3  -3   2  447.36   12.70
  -3   3  -2  450.05   14.00
  -3   3  -2  448.36   12.20
  -4  -3  -2  413.56   13.10
   4  -3   2  403.86   12.40
  -4   3  -2  424.76   11.80
  -4   3  -2  398.46   13.50
  -5  -3  -2   28.40    3.40
   5  -3   2   19.90    2.60
  -5   3  -2   19.90    2.30
  -5   3  -2   21.20    3.30
  -6  -3  -2   97.09    5.80
   6  -3   2   89.89    5.30
  -6   3  -2   93.39    6.20
  -6   3  -2   95.99    4.90
   7  -3   2    8.10    2.40
  -7  -3  -2    8.60    2.80
  -7   3  -2    7.40    2.90
  -7   3  -2    7.70    2.20
   8  -3   2   -2.00    2.60
  -8  -3  -2    3.00    2.60
  -8   3  -2    0.60    2.10
  -9  -3  -2  102.89    7.80
  -9   3  -2  116.69    8.60
 -10  -3  -2    1.40    3.10
 -10   3  -2    2.00    3.30
 -10  -4   2   12.30    4.50
 -10   4   2   18.10    4.30
   9  -4  -2   23.50    4.30
  -9  -4   2   22.20    5.00
  -9   4   2   21.20    4.50
   8  -4  -2   -0.60    1.90
  -8  -4   2   -1.60    2.30
  -8   4   2   -1.60    1.90
   7  -4  -2   20.90    3.80
  -7  -4   2   22.40    4.10
  -7   4   2   14.20    3.20
  -6  -4   2    1.10    2.10
   6  -4  -2    3.60    2.00
  -6   4   2    5.60    2.40
  -5  -4   2   50.89    4.90
   5  -4  -2   34.90    3.90
  -5   4   2   45.00    3.90
  -5   4   2   46.10    2.20
   4  -4  -2  757.32   21.70
  -4  -4   2  758.22   22.40
  -4   4   2  747.53   21.80
  -4   4   2  761.82   18.60
  -3  -4   2  169.48    7.20
  -3   4   2  173.38    6.90
   2  -4  -2 1547.75   38.40
  -2  -4   2 1537.55   39.10
   2   4  -2 1481.05   39.10
  -2   4   2 1474.75   38.70
  -1  -4   2  926.71   24.90
   1  -4  -2  981.40   24.70
  -1   4   2  953.70   25.10
   1   4  -2  938.21   25.00
   1   4  -2  935.21   24.40
   0  -4  -2  156.78    5.50
   0   4  -2  153.38    5.50
   0   4   2  157.68    5.80
  -1  -4  -2 1145.69   29.00
   1  -4   2 1117.49   28.40
  -1   4  -2 1106.89   28.30
  -1   4  -2 1125.99   29.30
   2  -4   2 1369.06   34.30
  -2  -4  -2 1351.06   35.10
  -2   4  -2 1373.46   33.80
  -2   4  -2 1363.96   35.60
  -3  -4  -2 1013.90   27.30
   3  -4   2 1008.50   26.40
  -3   4  -2  997.00   27.70
  -3   4  -2 1015.20   25.40
   4  -4   2   13.30    2.00
  -4  -4  -2    8.50    1.90
  -4   4  -2    7.80    1.90
  -4   4  -2   15.00    1.60
  -5  -4  -2  221.78    9.20
   5  -4   2  216.58    8.40
  -5   4  -2  211.78    7.20
  -5   4  -2  214.98    9.40
  -6  -4  -2   29.60    3.80
   6  -4   2   27.80    3.40
  -6   4  -2   24.10    3.90
  -6   4  -2   24.70    2.60
   7  -4   2   56.49    4.60
  -7  -4  -2   59.49    5.90
  -7   4  -2   41.40    5.30
  -8  -4  -2    3.50    2.70
  -8   4  -2    2.60    2.50
  -9  -4  -2   19.60    4.30
  -9   4  -2   20.30    4.80
 -10  -4  -2   17.50    4.60
 -10   4  -2   13.60    4.60
 -10  -5   2    6.70    3.70
 -10   5   2   17.50    4.60
  -9  -5   2   -0.90    2.80
  -9   5   2    6.30    3.40
  -8  -5   2   -4.50    1.80
   8  -5  -2   -1.10    2.00
  -8   5   2   -0.40    2.40
  -7  -5   2   65.09    6.80
   7  -5  -2   52.79    5.70
  -7   5   2   57.49    5.90
  -6  -5   2  189.58    9.60
   6  -5  -2  206.08    9.50
  -6   5   2  191.88    9.20
  -5  -5   2  340.67   13.40
   5  -5  -2  370.86   13.10
  -5   5   2  357.56   13.10
   4  -5  -2  755.72   22.30
  -4  -5   2  785.22   23.10
  -4   5   2  766.42   22.70
   3  -5  -2    0.40    0.40
  -3  -5   2    0.90    1.40
  -3   5   2    4.20    1.50
   2  -5  -2    0.60    0.90
  -2  -5   2   -0.60    1.00
  -2   5   2    1.40    1.10
  -1  -5   2  945.11   25.80
   1  -5  -2  988.40   25.60
  -1   5   2  976.10   26.10
   1   5  -2  965.30   26.00
   1   5  -2  954.90   25.40
   0  -5  -2  473.05   13.60
   0   5  -2  466.05   13.60
   0   5   2  468.35   13.90
  -1  -5  -2  238.48    8.20
   1  -5   2  230.38    7.60
  -1   5  -2  246.38    7.60
  -1   5  -2  238.18    8.40
   2  -5   2   80.79    3.80
  -2  -5  -2   77.99    4.20
  -2   5  -2   77.49    3.30
  -2   5  -2   77.99    4.40
  -3  -5  -2    5.00    1.60
   3  -5   2    3.30    1.10
  -3   5  -2    3.30    1.60
  -3   5  -2    3.70    0.90
  -4  -5  -2   -0.10    1.40
   4  -5   2    1.30    1.10
  -4   5  -2    0.10    0.80
  -4   5  -2   -0.40    1.10
  -5  -5  -2  134.79    7.00
   5  -5   2  138.49    6.40
  -5   5  -2  126.19    4.80
  -5   5  -2  118.99    7.00
   6  -5   2   64.69    4.70
  -6  -5  -2   67.59    5.40
  -6   5  -2   62.69    6.30
   7  -5   2  112.39    7.40
  -7  -5  -2  107.69    7.20
  -7   5  -2  127.19    8.00
  -8  -5  -2   56.49    6.50
  -8   5  -2   39.00    5.60
  -9  -5  -2    3.90    3.30
  -9   5  -2    7.90    3.80
 -10  -5  -2    2.90    3.30
 -10   5  -2   -4.20    2.90
  -9  -6   2   -0.60    2.60
  -9   6   2   -2.50    2.20
  -8  -6   2   32.00    5.30
   8  -6  -2   31.40    5.10
  -8   6   2   36.90    5.60
   7  -6  -2  110.49    7.40
  -7  -6   2  117.39    8.00
  -7   6   2  107.69    7.70
  -6  -6   2  222.78   10.70
   6  -6  -2  204.18    9.90
  -6   6   2  197.78    9.90
  -5  -6   2   13.90    3.30
   5  -6  -2   21.70    3.50
  -5   6   2   17.70    3.80
  -4  -6   2   48.40    4.90
   4  -6  -2   54.89    4.40
  -4   6   2   54.99    4.60
   3  -6  -2    0.50    0.50
  -3  -6   2    1.90    1.60
  -3   6   2    3.90    1.70
   2  -6  -2    1.10    1.10
  -2  -6   2    2.00    1.60
  -2   6   2    3.40    1.60
  -1  -6   2  188.18    7.40
   1  -6  -2  202.28    7.40
  -1   6   2  188.78    7.70
   1   6  -2  190.88    7.60
   1   6  -2  197.18    7.30
   0  -6  -2  611.54   17.50
   0  -6   2  605.74   17.40
   0   6   2  613.34   17.90
   0   6  -2  615.74   17.50
  -1  -6  -2    0.80    1.10
   1  -6   2   -0.30    0.90
  -1   6  -2    1.40    0.90
  -1   6  -2    1.60    1.20
  -2  -6  -2  274.77    9.70
   2  -6   2  265.07    9.00
  -2   6  -2  264.77    8.40
  -2   6  -2  269.07   10.00
   3  -6   2   18.70    2.40
  -3  -6  -2   12.10    2.30
  -3   6  -2   11.60    2.50
  -3   6  -2   12.90    1.60
   4  -6   2   27.40    3.10
  -4  -6  -2   23.70    3.40
  -4   6  -2   28.80    2.10
  -4   6  -2   25.60    3.60
  -5  -6  -2   20.10    3.60
   5  -6   2   11.70    2.40
  -5   6  -2   20.60    3.70
  -6  -6  -2   59.89    5.90
   6  -6   2   60.39    4.80
  -6   6  -2   52.29    5.70
  -7  -6  -2   27.30    4.60
  -7   6  -2   21.20    4.30
  -8  -6  -2   51.09    6.10
  -8   6  -2   42.90    6.10
  -9  -6  -2    8.20    3.60
  -9   6  -2    3.90    3.30
  -9  -7   2   10.10    3.90
  -9   7   2    8.80    4.10
  -8  -7   2   23.30    5.00
  -8   7   2   13.90    4.20
   7  -7  -2  557.74   20.50
  -7  -7   2  645.04   21.80
  -7   7   2  536.35   20.30
   6  -7  -2  274.77   12.30
  -6  -7   2  289.77   12.90
  -6   7   2  297.07   12.80
   5  -7  -2   70.99    5.60
  -5  -7   2   69.89    5.80
  -5   7   2   78.89    6.00
   4  -7  -2  850.51   25.40
  -4  -7   2  862.81   25.90
  -4   7   2  842.32   25.70
  -3  -7   2  223.58    9.40
  -3   7   2  197.08    9.10
  -2  -7   2  359.56   12.50
   2  -7  -2  360.06   12.20
  -2   7   2  360.46   12.80
  -1  -7   2   -0.70    1.20
   1  -7  -2    3.90    1.60
  -1   7   2    4.20    1.70
   1   7  -2    3.40    1.70
   0  -7  -2  148.29    6.30
   0  -7   2  138.09    6.10
   0   7  -2  138.79    6.30
   0   7   2  145.79    6.70
   0   7  -2  131.89    6.10
  -1  -7  -2  652.43   19.50
   1  -7   2  665.43   19.10
  -1   7  -2  681.13   18.90
  -1   7  -2  680.23   20.10
  -2  -7  -2   45.20    3.70
   2  -7   2   41.10    3.20
  -2   7  -2   38.20    4.00
  -2   7  -2   41.70    2.90
  -3  -7  -2  161.48    7.70
   3  -7   2  163.08    7.10
  -3   7  -2  163.78    5.90
  -3   7  -2  179.68    8.40
  -4  -7  -2 1191.58   33.40
   4  -7   2 1158.48   32.40
  -4   7  -2 1195.28   34.00
  -5  -7  -2  333.07   13.00
   5  -7   2  345.97   12.50
  -5   7  -2  312.67   13.30
   6  -7   2   10.20    2.70
  -6  -7  -2    8.20    2.90
  -6   7  -2    3.70    2.90
  -7  -7  -2   21.50    4.20
  -7   7  -2   28.40    5.00
  -8  -7  -2  294.37   13.70
  -8   7  -2  283.47   13.90
  -9  -7  -2   24.30    5.00
  -9   7  -2   34.70    6.10
  -8  -8   2   39.20    6.00
  -8   8   2   30.70    5.40
   7  -8  -2   -1.30    2.30
  -7  -8   2    1.60    2.80
  -7   8   2   -0.40    2.90
  -6  -8   2    3.60    3.30
   6  -8  -2    2.90    2.40
  -6   8   2    4.20    3.00
   5  -8  -2   27.80    4.40
  -5  -8   2   25.30    4.30
  -5   8   2   29.60    4.90
   4  -8  -2   47.30    5.30
  -4  -8   2   47.10    5.20
  -4   8   2   46.70    5.40
   3  -8  -2    1.10    1.60
  -3  -8   2    4.80    2.50
  -3   8   2    0.30    2.20
   2  -8  -2    5.50    2.00
  -2  -8   2    5.00    2.40
  -2   8   2    3.40    2.20
   1  -8  -2  386.76   12.90
  -1  -8   2  380.86   12.90
  -1   8   2  346.27   13.10
   0  -8  -2    9.10    2.20
   0  -8   2    3.30    1.60
   0   8  -2    6.80    2.10
   0   8  -2    4.40    1.70
  -1  -8  -2  112.09    5.90
  -1   8  -2  115.69    6.30
  -1   8  -2  113.39    5.50
   2  -8   2  701.83   20.60
  -2  -8  -2  711.03   21.20
  -2   8  -2  702.93   21.80
  -2   8  -2  685.13   19.60
  -3  -8  -2   49.10    5.10
   3  -8   2   38.40    4.10
  -3   8  -2   44.70    4.90
  -4  -8  -2    6.30    2.50
   4  -8   2    5.40    2.10
  -4   8  -2    2.50    2.30
   5  -8   2    4.80    2.10
  -5  -8  -2    8.20    2.80
  -5   8  -2    9.50    3.20
  -6  -8  -2   -0.90    2.40
  -6   8  -2   -1.10    2.50
  -7  -8  -2    6.30    3.30
  -7   8  -2    7.70    3.50
  -8  -8  -2    9.20    3.80
  -8   8  -2    5.20    4.00
  -8  -9   2   -2.40    2.80
  -8   9   2    4.10    3.40
  -7  -9   2   -0.70    3.00
  -7   9   2    4.60    3.40
   6  -9  -2    4.20    2.70
  -6  -9   2    4.20    3.00
  -6   9   2    1.90    3.30
  -5  -9   2   72.19    7.00
   5  -9  -2   77.19    6.60
  -5   9   2   59.19    6.60
   4  -9  -2    9.80    2.90
  -4  -9   2    9.00    3.30
  -4   9   2    6.00    2.80
   3  -9  -2    8.40    2.70
  -3  -9   2    6.60    2.70
  -3   9   2    7.00    3.00
  -2  -9   2   86.99    6.10
   2  -9  -2   78.59    5.80
  -2   9   2   84.39    6.10
  -1  -9   2  190.88    8.50
   1  -9  -2  182.18    8.50
  -1   9   2  185.98    9.20
   0  -9  -2   20.10    3.20
   0  -9   2   26.40    3.40
   0   9  -2   30.10    3.90
  -1  -9  -2   53.29    4.50
  -1   9  -2   57.39    4.90
  -1   9  -2   67.39    4.40
  -2  -9  -2    0.50    2.00
   2  -9   2    2.30    1.70
  -2   9  -2   -0.10    2.30
   3  -9   2   67.89    5.20
  -3  -9  -2   72.19    5.60
  -3   9  -2   64.49    6.30
  -4  -9  -2    5.10    2.90
   4  -9   2    5.70    2.40
  -4   9  -2    7.40    2.90
  -5  -9  -2   32.30    5.10
   5  -9   2   30.40    4.40
  -5   9  -2   33.10    5.30
  -6  -9  -2   29.20    4.90
  -6   9  -2   34.30    5.50
  -7  -9  -2   35.40    5.50
  -7   9  -2   50.49    7.00
  -8  -9  -2    1.90    3.50
  -8   9  -2    1.10    3.30
  -7 -10   2   11.30    4.10
  -7  10   2   12.30    4.50
  -6 -10   2    0.20    2.80
   6 -10  -2    4.50    2.80
  -6  10   2    1.50    3.40
   5 -10  -2   20.60    4.40
  -5 -10   2   19.60    4.20
  -5  10   2   21.40    4.70
   4 -10  -2  109.89    7.50
  -4 -10   2  118.09    8.10
  -4  10   2  127.49    8.50
   3 -10  -2   -0.80    1.90
  -3 -10   2    0.10    2.40
  -3  10   2    2.90    2.50
   2 -10  -2   82.19    5.90
  -2 -10   2   74.49    6.00
  -2  10   2   74.89    6.10
  -1 -10   2  735.63   22.30
   1 -10  -2  718.93   22.40
  -1  10   2  699.83   22.90
   0 -10  -2   -3.20    1.90
   0 -10   2   -1.70    1.50
   0  10  -2    1.40    1.80
  -1 -10  -2   -0.90    2.00
   1 -10   2    0.00    0.90
  -1  10  -2    0.70    2.20
  -2 -10  -2  488.35   17.20
   2 -10   2  508.75   17.20
  -2  10  -2  544.65   18.60
   3 -10   2   -0.50    1.70
  -3 -10  -2    0.00    2.40
  -3  10  -2   -0.60    2.20
   4 -10   2   20.20    3.70
  -4 -10  -2   22.10    4.20
  -4  10  -2   21.00    4.20
  -5 -10  -2   64.69    6.80
  -5  10  -2   66.79    7.60
  -6 -10  -2   19.00    4.10
  -6  10  -2   18.90    5.10
  -7 -10  -2   37.70    5.80
  -7  10  -2   15.90    4.70
  -6 -11   2   -1.20    3.10
  -6  11   2    0.40    3.30
   5 -11  -2    0.10    2.40
  -5 -11   2   -2.40    2.90
  -5  11   2   -0.10    3.10
  -4 -11   2   56.49    6.30
   4 -11  -2   65.39    7.10
  -4  11   2   58.19    6.80
  -3 -11   2   38.20    5.00
   3 -11  -2   33.00    4.90
  -3  11   2   24.00    4.40
   2 -11  -2   19.30    3.90
  -2 -11   2   20.60    4.00
  -2  11   2   16.10    3.90
  -1 -11   2    1.20    2.30
   1 -11  -2    5.20    2.70
   0 -11   2   96.79    6.40
   0 -11  -2   95.59    6.80
  -1 -11  -2   49.30    5.50
  -1  11  -2   54.49    6.30
  -2 -11  -2   36.10    4.90
   2 -11   2   30.20    4.40
  -2  11  -2   40.10    5.40
   3 -11   2    2.30    2.20
  -3 -11  -2    4.10    2.90
  -3  11  -2    2.70    2.70
   4 -11   2   12.10    3.50
  -4 -11  -2   16.10    4.20
  -4  11  -2   26.70    5.20
  -5 -11  -2  103.09    7.70
  -5  11  -2   77.59    8.30
  -6 -11  -2   14.70    4.20
  -6  11  -2   19.20    5.10
  -5 -12   2   10.20    3.80
   5 -12  -2   17.10    4.40
  -5  12   2   11.90    4.10
   4 -12  -2    2.70    2.80
  -4 -12   2    3.70    2.90
  -4  12   2    3.40    3.50
   3 -12  -2   83.69    6.90
  -3 -12   2   89.49    7.20
  -3  12   2  108.09    8.10
   2 -12  -2   23.60    4.50
  -2 -12   2   22.10    4.30
  -2  12   2   29.60    5.10
  -1 -12   2   26.40    4.40
   1 -12  -2   28.10    4.80
   0 -12   2   30.70    4.60
   0 -12  -2   37.40    5.30
  -1 -12  -2   17.40    3.80
   1 -12   2   10.60    3.10
  -1  12  -2   23.60    4.60
  -2 -12  -2   10.00    3.30
   2 -12   2    9.20    3.20
  -2  12  -2    7.90    3.40
  -3 -12  -2  100.89    7.70
   3 -12   2   84.29    7.00
  -3  12  -2   93.89    7.70
  -4 -12  -2   90.19    7.30
  -4  12  -2   81.79    8.60
  -5 -12  -2   26.40    5.30
  -5  12  -2   19.60    5.30
   3 -13  -2   18.50    4.60
  -3 -13   2    5.40    3.50
  -3  13   2   25.60    5.60
  -2 -13   2   -1.40    2.30
   2 -13  -2    0.70    2.80
   1 -13  -2    0.00    2.40
  -1 -13   2   -0.80    2.40
   0 -13  -2   -1.70    2.60
   0 -13   2   -1.00    2.20
  -1 -13  -2    1.00    2.70
   1 -13   2    2.40    2.50
   2 -13   2    2.50    2.80
  -2 -13  -2    1.80    3.30
  -2  13  -2    4.10    3.50
  -3 -13  -2   16.30    4.00
  -3  13  -2   13.70    4.30
  10   0  -3   -2.70    2.60
   9   0  -3    0.40    2.70
  -9   0   3   -2.60    1.80
  -8   0   3   -1.70    1.70
   8   0  -3   -0.70    1.00
   7   0  -3    3.40    2.40
  -7   0   3    2.00    2.10
   6   0  -3    0.90    1.60
   5   0  -3   -0.30    1.20
   4   0  -3    1.00    1.00
   3   0  -3    2.50    1.00
   2   0  -3   -4.40    0.40
  -2   0   3   -2.80    0.50
   2   0  -3   -4.20    0.60
   1   0  -3   -1.10    0.30
   1   0  -3   -0.30    0.30
  -1   0   3   -1.20    0.20
   0   0  -3    0.80    0.40
   0   0  -3   -0.10    0.40
  -1   0  -3    1.90    0.60
  -2   0  -3   -0.70    0.30
  -2   0  -3    2.20    0.80
   3   0   3    0.00    0.60
   4   0   3   -1.10    0.70
   5   0   3   -0.40    0.90
   6   0   3    1.00    1.30
  -7   0  -3    1.20    1.90
  -8   0  -3    0.10    2.20
  -8   0  -3    0.20    1.90
  -9   0  -3   -0.50    2.10
  -9   0  -3    0.30    2.20
 -10   0  -3    0.30    2.50
  10  -1  -3  139.49    9.50
   9  -1  -3   45.90    5.80
   9   1  -3   53.39    6.40
  -9   1   3   59.99    6.20
   8  -1  -3   36.50    5.10
  -8   1   3   42.60    5.00
   8   1  -3   37.00    5.10
  -7   1   3  618.64   19.40
   7   1  -3  614.14   20.40
   6   1  -3  220.38    9.40
  -6   1   3  207.48    8.50
   5  -1  -3  605.44   18.50
  -5   1   3  603.34   17.60
   5   1  -3  608.44   18.60
   4  -1  -3   52.59    3.60
   4   1  -3   56.59    3.70
  -4   1   3   58.39    3.30
   3  -1  -3  881.81   23.90
  -3   1   3  903.41   23.20
   3   1  -3  884.01   24.00
   2  -1  -3  327.77    9.70
   2  -1  -3  329.17    8.60
   2   1  -3  325.27    9.80
   2   1  -3  311.97    9.40
  -2   1   3  331.17    9.10
   1  -1  -3  150.08    4.80
   1  -1  -3  158.08    4.10
   1   1  -3  141.49    4.70
   1   1  -3  151.68    4.80
  -1   1   3  153.68    4.50
   0  -1  -3 4106.49   96.59
   0  -1  -3 3710.73   95.89
   0   1  -3 4192.58   95.99
   0   1  -3 3784.92   96.29
   1  -1   3 1558.44   36.30
  -1  -1  -3 1458.45   36.90
  -1   1  -3 1559.64   37.20
  -1   1  -3 1508.05   36.30
  -2  -1  -3  753.42   19.20
   2  -1   3  740.83   18.70
  -2   1  -3  759.12   19.40
   3  -1   3  371.06   10.40
  -3  -1  -3  373.76   10.90
  -3   1  -3  383.46   11.10
   4  -1   3 2459.75   59.79
  -4  -1  -3 2370.16   60.19
  -4   1  -3 2434.36   60.39
  -5  -1  -3  272.87    9.80
   5  -1   3  281.47    9.40
  -5   1  -3  293.87   10.00
   6  -1   3   97.39    5.20
  -6  -1  -3  104.99    5.70
  -6   1  -3   99.59    5.60
   7  -1   3  124.89    6.60
  -7  -1  -3  128.89    7.10
  -7   1  -3  135.39    7.10
   8  -1   3   82.69    5.80
  -8  -1  -3   91.09    6.30
  -8   1  -3   93.69    6.40
  -9  -1  -3   -0.80    2.60
  -9  -1  -3    4.40    2.70
  -9   1  -3    4.80    2.80
 -10  -1  -3   21.50    4.70
 -10   1  -3   17.50    4.50
  10  -2  -3   17.20    4.40
 -10  -2   3   12.20    4.00
 -10   2   3   14.10    3.90
   9  -2  -3  182.08   10.30
  -9  -2   3  173.28   10.40
  -9   2   3  179.78    9.70
   8  -2  -3  138.69    8.20
  -8   2   3  120.09    7.40
   7  -2  -3   25.40    4.10
  -7   2   3   25.80    3.60
   7   2  -3   22.20    4.00
  -6   2   3  410.16   14.00
   6   2  -3  425.46   14.80
   5   2  -3  128.09    6.40
  -5   2   3  130.39    6.00
   4  -2  -3  923.91   25.80
  -4   2   3  959.40   25.40
   4   2  -3  931.61   26.00
   3  -2  -3   45.00    2.90
   3   2  -3   41.10    2.90
  -3   2   3   43.50    2.60
   2  -2  -3  641.84   17.40
  -2   2   3  660.73   17.20
   2   2  -3  636.84   17.60
   2   2  -3  648.54   17.60
   1  -2  -3 9999.00  233.08
   1  -2  -3 9857.81  237.98
  -1   2   3 9395.76  236.48
   1   2  -3 9798.82  236.78
   0  -2  -3 1839.82   44.70
   0  -2   3 1825.02   44.60
   0   2  -3 1835.42   44.70
   0   2  -3 1834.72   44.80
  -1  -2  -3 6051.89  154.38
   1  -2   3 5811.52  153.58
  -1   2  -3 6517.25  154.38
  -1   2  -3 7132.59  153.28
  -2  -2  -3  944.81   24.30
   2  -2   3  956.70   23.40
  -2   2  -3  933.91   23.80
  -3  -2  -3  310.07    9.70
   3  -2   3  311.67    9.10
  -3   2  -3  322.97    9.30
  -4  -2  -3   53.79    3.50
   4  -2   3   61.49    3.20
  -4   2  -3   61.19    3.30
  -5  -2  -3  205.88    8.00
   5  -2   3  201.48    7.40
  -5   2  -3  192.48    7.40
   6  -2   3  610.94   18.30
  -6  -2  -3  631.44   19.10
  -6   2  -3  604.44   18.30
  -7  -2  -3   69.09    5.30
   7  -2   3   58.09    4.40
  -7   2  -3   62.99    4.70
  -7   2  -3   65.69    5.40
  -8  -2  -3   44.80    5.10
  -8   2  -3   35.50    5.30
  -8   2  -3   25.20    3.80
  -9  -2  -3    3.10    2.70
 -10  -2  -3   40.80    7.00
 -10  -2  -3   34.80    6.10
 -10   2  -3   41.60    6.50
  10  -3  -3    6.90    3.40
 -10  -3   3   12.90    4.60
 -10   3   3    5.50    3.20
   9  -3  -3   -0.60    2.30
  -9  -3   3    3.10    3.20
  -9   3   3    0.80    2.60
  -8  -3   3  199.28   10.60
   8  -3  -3  174.88    9.70
  -8   3   3  198.98    9.70
  -7  -3   3  100.79    7.00
   7  -3  -3  102.49    6.80
  -7   3   3  117.19    6.80
  -6  -3   3  332.17   13.40
   6  -3  -3  348.17   13.20
  -6   3   3  346.47   10.70
  -6   3   3  363.26   12.70
  -5  -3   3   15.60    2.70
   5  -3  -3    7.80    2.00
  -5   3   3   20.20    2.70
  -5   3   3   21.00    1.80
  -4  -3   3   74.79    4.60
  -4   3   3   72.79    2.80
  -4   3   3   82.49    4.40
  -3  -3   3  571.24   17.40
   3  -3  -3  592.14   17.00
  -3   3   3  610.04   14.40
  -3   3   3  597.44   16.90
  -2  -3   3  748.03   20.40
   2  -3  -3  731.43   19.80
   2   3  -3  724.13   20.20
  -2   3   3  749.03   19.90
  -1  -3   3 1218.28   31.00
   1  -3  -3 1239.78   30.70
   1   3  -3 1180.18   30.90
   1   3  -3 1213.08   30.10
  -1   3   3 1213.18   30.80
   0  -3  -3 5157.68  124.29
   0  -3   3 4844.82  122.19
   0   3  -3 5128.29  123.39
   0   3  -3 5233.68  122.39
   1  -3   3 1950.50   47.90
  -1  -3  -3 1969.50   48.60
  -1   3  -3 2007.20   48.20
  -1   3  -3 1967.00   49.00
   2  -3   3    5.00    0.80
  -2  -3  -3    0.40    0.70
  -2   3  -3    3.80    0.80
  -2   3  -3   -1.10    0.60
   3  -3   3  809.12   20.80
  -3  -3  -3  801.12   21.70
  -3   3  -3  777.52   22.30
  -3   3  -3  801.12   20.70
   4  -3   3  807.02   22.10
  -4  -3  -3  841.92   23.10
  -4   3  -3  830.42   23.90
  -4   3  -3  834.52   21.90
  -5  -3  -3    1.30    1.40
   5  -3   3    5.10    1.50
  -5   3  -3    3.10    1.20
  -5   3  -3    4.40    1.80
   6  -3   3  138.09    6.40
  -6  -3  -3  149.19    7.40
  -6   3  -3  141.69    7.90
  -6   3  -3  150.98    6.40
  -7  -3  -3  649.64   20.60
   7  -3   3  632.14   19.50
  -7   3  -3  641.74   21.50
  -7   3  -3  618.74   18.90
  -8  -3  -3   99.79    6.90
  -8   3  -3   97.79    6.50
  -8   3  -3   95.49    7.50
  -9  -3  -3  109.99    7.60
  -9   3  -3   84.89    7.40
 -10  -3  -3    8.50    3.60
 -10   3  -3   11.20    4.30
 -10  -4   3   21.00    5.00
 -10   4   3   20.00    4.50
   9  -4  -3   -0.90    2.20
  -9  -4   3    2.30    3.30
  -9   4   3    1.20    2.50
  -8  -4   3    2.50    2.70
   8  -4  -3    3.50    2.50
  -8   4   3    3.00    2.60
  -7  -4   3  117.89    8.00
   7  -4  -3  119.39    7.50
  -7   4   3  114.29    6.90
   6  -4  -3  520.55   17.40
  -6  -4   3  508.25   17.90
  -6   4   3  496.45   16.90
  -5  -4   3   52.59    4.50
   5  -4  -3   58.09    4.40
  -5   4   3   53.09    2.30
  -5   4   3   73.79    4.60
  -4  -4   3  887.31   25.40
  -4   4   3  860.41   24.60
   3  -4  -3  988.40   26.70
  -3  -4   3  964.00   27.20
  -3   4   3  997.80   26.70
  -2  -4   3  304.47   10.10
   2  -4  -3  300.67    9.70
   2   4  -3  293.17   10.10
  -2   4   3  310.57    9.90
   1  -4  -3   78.99    3.70
  -1  -4   3   72.69    3.70
   1   4  -3   77.79    3.80
   1   4  -3   86.99    3.50
  -1   4   3   86.49    4.00
   0  -4   3  924.51   24.20
   0  -4  -3  955.60   24.40
   0   4  -3  941.21   24.40
   0   4  -3  928.71   24.40
  -1  -4  -3  456.15   13.10
   1  -4   3  463.05   12.50
  -1   4  -3  465.75   12.70
  -1   4  -3  450.75   13.40
  -2  -4  -3 2666.23   66.59
   2  -4   3 2710.53   65.59
  -2   4  -3 2681.43   65.39
  -2   4  -3 2710.03   67.19
  -3  -4  -3  800.42   22.20
   3  -4   3  790.92   21.20
  -3   4  -3  800.22   20.70
  -3   4  -3  817.42   23.00
   4  -4   3  393.96   11.90
  -4  -4  -3  393.76   12.80
  -4   4  -3  379.36   13.30
  -4   4  -3  387.96   11.20
   5  -4   3  266.87    9.40
  -5  -4  -3  263.67   10.30
  -5   4  -3  271.87   10.90
  -5   4  -3  263.47    8.60
  -6  -4  -3   65.49    5.10
   6  -4   3   62.19    4.40
  -6   4  -3   60.49    5.30
  -6   4  -3   63.09    3.80
  -7  -4  -3    3.20    2.50
   7  -4   3    1.30    2.00
  -7   4  -3   -3.40    2.00
  -7   4  -3    3.00    1.70
  -8  -4  -3   19.80    3.90
  -8   4  -3   19.00    4.30
  -9  -4  -3   20.00    4.40
  -9   4  -3   14.00    4.20
 -10  -4  -3   12.30    4.20
 -10   4  -3   27.90    5.80
 -10  -5   3    2.80    3.50
 -10   5   3    4.00    3.50
   9  -5  -3    5.40    2.90
  -9  -5   3   -3.00    2.90
  -9   5   3    3.80    3.00
   8  -5  -3   97.29    7.50
  -8  -5   3  101.99    8.20
  -8   5   3  116.99    7.60
   7  -5  -3    2.60    2.20
  -7  -5   3    4.90    2.70
  -7   5   3    1.90    2.40
  -6  -5   3   46.80    5.50
   6  -5  -3   40.50    5.00
  -6   5   3   47.80    5.10
   5  -5  -3 2464.85   64.59
  -5  -5   3 2530.85   65.29
  -5   5   3 2495.75   64.49
  -4  -5   3 1376.46   38.20
  -4   5   3 1429.76   37.90
   3  -5  -3 1100.89   29.40
  -3  -5   3 1067.59   29.80
  -3   5   3 1062.39   29.40
   2  -5  -3  884.31   23.90
  -2  -5   3  866.41   24.20
   2   5  -3  853.11   24.40
  -2   5   3  889.81   24.30
   1  -5  -3  371.16   11.60
  -1  -5   3  390.86   12.00
  -1   5   3  376.56   12.00
   1   5  -3  367.46   12.00
   1   5  -3  403.06   11.60
   0  -5  -3   68.49    3.50
   0   5  -3   59.19    3.30
   0   5   3   62.99    3.60
   0   5  -3   52.39    3.20
  -1  -5  -3  958.20   25.80
   1  -5   3  982.30   25.20
  -1   5  -3  977.50   25.20
  -1   5  -3  965.50   26.20
  -2  -5  -3   19.50    2.30
   2  -5   3   22.80    1.90
  -2   5  -3   19.00    2.50
  -2   5  -3   21.40    1.70
   3  -5   3   59.19    3.30
  -3  -5  -3   57.19    3.80
  -3   5  -3   53.09    4.10
  -3   5  -3   62.19    2.90
  -4  -5  -3   -0.90    1.20
   4  -5   3   -0.10    0.90
  -4   5  -3   -1.20    1.20
  -4   5  -3    1.00    0.90
   5  -5   3   21.80    2.80
  -5  -5  -3   16.00    2.90
  -5   5  -3   20.50    2.20
  -5   5  -3   23.70    3.70
  -6  -5  -3  335.27   12.80
   6  -5   3  331.87   11.80
  -6   5  -3  317.77   13.30
  -6   5  -3  325.67   11.30
  -7  -5  -3   43.30    5.40
  -7   5  -3   48.30    6.00
  -8  -5  -3   93.09    7.10
  -8   5  -3   85.69    7.50
  -9  -5  -3   62.29    7.00
  -9   5  -3   66.19    7.70
 -10  -5  -3   37.90    5.80
 -10   5  -3   47.00    7.40
  -9  -6   3    2.80    3.00
  -9   6   3    0.70    2.50
   8  -6  -3   49.40    6.10
  -8  -6   3   34.70    5.50
  -8   6   3   35.70    5.30
  -7  -6   3   26.00    4.60
   7  -6  -3   41.70    5.50
  -7   6   3   25.80    4.30
  -6  -6   3   41.30    5.30
   6  -6  -3   42.30    5.10
  -6   6   3   38.60    5.00
  -5  -6   3  137.79    8.00
   5  -6  -3  149.29    7.90
  -5   6   3  142.09    7.80
  -4  -6   3  547.05   18.10
  -4   6   3  547.35   17.70
   3  -6  -3 1155.68   32.00
  -3  -6   3 1185.48   32.50
  -3   6   3 1173.98   32.40
   2  -6  -3  955.20   26.50
  -2  -6   3  969.00   26.90
   2   6  -3  971.90   27.30
  -2   6   3  956.30   26.90
   1  -6  -3   14.50    2.20
  -1  -6   3   16.70    2.30
   1   6  -3   12.60    2.20
  -1   6   3   15.80    2.40
   1   6  -3   14.80    2.10
   0  -6  -3 1259.67   33.00
   0   6  -3 1257.07   33.10
   1  -6   3  926.91   24.10
  -1  -6  -3  879.41   24.50
  -1   6  -3  897.71   24.00
  -1   6  -3  892.21   25.00
   2  -6   3  477.75   14.00
  -2  -6  -3  477.35   14.80
  -2   6  -3  473.15   15.30
  -2   6  -3  481.95   13.60
  -3  -6  -3  259.37    9.90
   3  -6   3  268.37    9.10
  -3   6  -3  260.37   10.40
  -3   6  -3  269.17    8.30
   4  -6   3  128.19    5.90
  -4  -6  -3  127.89    6.60
  -4   6  -3  129.09    4.90
  -4   6  -3  119.89    7.00
   5  -6   3   51.09    4.00
  -5  -6  -3   42.40    4.50
  -5   6  -3   50.69    5.40
  -5   6  -3   50.59    4.40
  -6  -6  -3  220.58   10.20
   6  -6   3  220.28    9.40
  -6   6  -3  206.18   10.60
  -7  -6  -3   55.29    5.90
  -7   6  -3   59.29    6.80
  -8  -6  -3    6.70    3.40
  -8   6  -3    0.60    3.10
  -9  -6  -3   20.90    4.70
  -9   6  -3   22.00    4.90
  -9  -7   3   52.99    7.30
  -9   7   3   41.60    6.20
  -8  -7   3   13.40    4.10
   8  -7  -3   18.10    4.10
  -8   7   3   10.30    3.80
   7  -7  -3  138.79    8.90
  -7  -7   3  118.99    8.90
  -7   7   3  138.99    8.90
   6  -7  -3   57.89    6.30
  -6  -7   3   60.39    6.40
  -6   7   3   67.49    6.70
   5  -7  -3   26.10    4.00
  -5  -7   3   25.80    4.30
  -5   7   3   26.00    4.20
  -4  -7   3    8.40    2.80
  -4   7   3   14.50    3.20
  -3  -7   3    1.80    2.30
   3  -7  -3    2.80    1.70
  -3   7   3    4.60    2.30
  -2  -7   3   53.29    4.20
   2  -7  -3   54.89    4.00
  -2   7   3   52.59    4.30
   1  -7  -3    3.80    1.50
  -1  -7   3    8.10    1.90
  -1   7   3    7.50    2.00
   1   7  -3    6.50    1.80
   1   7  -3    4.80    1.70
   0  -7   3   13.20    2.10
   0  -7  -3   29.40    3.30
   0   7  -3   21.60    2.80
   1  -7   3  111.99    5.30
  -1  -7  -3  124.39    5.90
  -1   7  -3  117.09    6.00
  -1   7  -3  127.39    5.50
   2  -7   3  112.29    5.30
  -2  -7  -3  110.09    5.80
  -2   7  -3  109.79    6.20
  -2   7  -3  116.59    5.00
   3  -7   3   62.59    4.10
  -3  -7  -3   64.59    4.80
  -3   7  -3   62.49    5.20
  -3   7  -3   69.29    3.60
  -4  -7  -3    8.60    2.70
   4  -7   3   11.70    2.40
  -4   7  -3   10.90    2.50
  -4   7  -3   12.00    3.00
  -5  -7  -3    2.90    2.40
   5  -7   3    2.10    1.60
  -5   7  -3   -0.10    2.00
  -6  -7  -3    1.70    2.40
  -6   7  -3    6.30    2.80
  -7  -7  -3   18.80    3.90
  -7   7  -3   17.80    4.60
  -8  -7  -3   12.30    4.10
  -8   7  -3    7.70    4.10
  -9  -7  -3    1.70    3.10
  -9   7  -3   -0.50    3.00
  -8  -8   3    5.00    3.60
  -8   8   3   -0.50    2.90
  -7  -8   3    5.60    3.30
   7  -8  -3    2.70    2.70
  -7   8   3    2.30    2.90
   6  -8  -3  322.67   13.90
  -6  -8   3  304.57   13.90
  -6   8   3  287.87   13.20
  -5  -8   3   30.30    4.60
   5  -8  -3   33.20    4.80
  -5   8   3   27.70    4.60
  -4  -8   3  195.58    9.70
  -4   8   3  192.58    9.50
  -3  -8   3  298.97   11.80
   3  -8  -3  281.27   11.40
  -3   8   3  298.87   12.00
  -2  -8   3   82.29    5.40
   2  -8  -3   83.49    5.50
  -2   8   3   85.09    5.90
  -1  -8   3  255.27    9.90
   1  -8  -3  260.67   10.00
  -1   8   3  256.27   10.50
   1   8  -3  273.47   10.60
   0  -8  -3  144.89    6.60
   0  -8   3  114.39    5.90
   0   8  -3  133.89    6.40
  -1  -8  -3  540.95   16.70
   1  -8   3  542.65   16.30
  -1   8  -3  514.15   16.10
  -1   8  -3  527.15   17.20
  -2  -8  -3   95.09    5.80
   2  -8   3   90.69    5.20
  -2   8  -3   92.29    4.80
  -2   8  -3   88.19    6.00
  -3  -8  -3  154.58    7.60
   3  -8   3  143.19    7.00
  -3   8  -3  143.69    6.10
  -3   8  -3  147.29    7.90
   4  -8   3  306.57   11.40
  -4  -8  -3  292.87   11.80
  -4   8  -3  301.37   12.70
  -5  -8  -3   20.30    3.80
   5  -8   3   29.60    3.90
  -5   8  -3   21.60    4.20
  -6  -8  -3   -0.90    2.60
  -6   8  -3    8.80    3.30
  -7  -8  -3   36.20    5.50
  -7   8  -3   26.00    5.30
  -8  -8  -3   18.70    4.80
  -8   8  -3   19.80    5.50
  -8  -9   3  106.49   10.20
  -8   9   3  109.29    8.80
  -7  -9   3   13.10    4.30
   7  -9  -3   10.70    3.70
  -7   9   3   15.80    4.30
  -6  -9   3   99.59    7.80
   6  -9  -3   88.59    7.50
  -6   9   3   92.09    7.60
   5  -9  -3  576.74   21.00
  -5  -9   3  590.74   20.90
  -5   9   3  621.44   21.40
  -4  -9   3  191.38    9.90
  -4   9   3  174.68    9.50
   3  -9  -3  380.36   14.20
  -3  -9   3  363.56   13.90
  -3   9   3  366.36   14.40
  -2  -9   3  342.87   13.00
   2  -9  -3  341.57   13.00
  -2   9   3  344.57   13.30
  -1  -9   3  424.46   14.60
   1  -9  -3  441.96   14.90
  -1   9   3  420.56   15.30
   0  -9  -3   -1.00    1.60
   0  -9   3    2.90    1.90
   0   9  -3    1.40    1.90
   0   9  -3    1.90    1.70
   1  -9   3  237.48    9.30
  -1  -9  -3  226.78    9.50
  -1   9  -3  228.58   10.10
  -1   9  -3  225.18    9.10
   2  -9   3    0.50    1.60
  -2  -9  -3    1.30    2.00
  -2   9  -3   -2.60    1.70
  -2   9  -3    1.10    1.50
   3  -9   3  375.76   13.80
  -3  -9  -3  404.56   14.50
  -3   9  -3  393.86   15.10
  -4  -9  -3   28.70    4.10
   4  -9   3   35.80    4.40
  -4   9  -3   35.50    5.00
  -5  -9  -3    1.30    2.40
  -5   9  -3   -1.30    2.50
  -6  -9  -3  134.19    8.80
  -6   9  -3  123.29    8.90
  -7  -9  -3   14.00    4.30
  -7   9  -3   26.30    5.50
  -8  -9  -3    0.40    3.40
  -8   9  -3   -4.00    3.20
  -7 -10   3   12.30    4.60
  -7  10   3    5.70    3.80
   6 -10  -3   45.80    6.40
  -6 -10   3   47.30    6.50
  -6  10   3   29.00    5.40
  -5 -10   3   -1.30    2.80
   5 -10  -3   -0.10    2.40
  -5  10   3    2.40    2.90
  -4 -10   3   -0.80    2.50
   4 -10  -3    0.20    1.30
  -4  10   3    6.00    3.20
   3 -10  -3    9.10    2.80
  -3 -10   3    5.80    2.90
  -3  10   3    6.70    3.20
   2 -10  -3   40.60    5.10
  -2 -10   3   42.60    4.90
  -2  10   3   43.00    5.30
   1 -10  -3   13.60    3.20
  -1 -10   3   20.00    3.40
  -1  10   3   15.00    3.70
   0 -10  -3   27.40    4.00
   0 -10   3   39.80    4.40
   0  10  -3   46.80    5.20
   1 -10   3   88.89    5.80
  -1 -10  -3   93.49    6.30
  -1  10  -3   92.29    5.80
  -1  10  -3   96.89    6.60
  -2 -10  -3  264.37   11.20
   2 -10   3  258.47   10.80
  -2  10  -3  282.37   12.20
   3 -10   3   97.99    6.40
  -3 -10  -3   97.79    6.90
  -3  10  -3   95.29    7.10
   4 -10   3   64.49    6.30
  -4 -10  -3   76.19    7.00
  -4  10  -3   78.39    6.70
  -5 -10  -3   65.29    6.70
  -5  10  -3   64.99    7.30
  -6 -10  -3   26.20    5.00
  -6  10  -3   12.80    4.10
  -7 -10  -3    1.20    3.20
  -7  10  -3   -3.40    3.40
  -6 -11   3    4.40    3.50
   6 -11  -3    3.40    3.20
  -6  11   3    4.20    3.90
   5 -11  -3    1.80    2.50
  -5 -11   3    7.70    3.60
  -5  11   3   -0.90    3.20
   4 -11  -3    7.40    2.90
  -4 -11   3    8.40    3.70
  -4  11   3    7.00    3.20
   3 -11  -3    7.20    3.00
  -3 -11   3    1.30    2.70
  -3  11   3   -0.40    2.40
   2 -11  -3  248.88   11.40
  -2 -11   3  227.98   10.70
  -2  11   3  239.38   11.70
  -1 -11   3   55.59    5.50
   1 -11  -3   56.49    6.00
   0 -11   3    7.30    2.50
   0 -11  -3    8.50    3.00
   0  11  -3    6.30    2.80
   1 -11   3   15.20    3.40
  -1 -11  -3   11.80    3.20
  -1  11  -3   14.10    3.60
  -2 -11  -3   13.20    3.40
   2 -11   3    9.00    3.00
  -2  11  -3    8.60    3.10
   3 -11   3   70.59    6.10
  -3 -11  -3   75.49    7.00
  -3  11  -3   85.59    7.30
  -4 -11  -3   18.00    4.30
  -4  11  -3   20.90    4.60
  -5 -11  -3    5.90    3.20
  -5  11  -3    3.80    3.70
  -6 -11  -3   20.10    4.60
  -6  11  -3   22.30    5.20
  -5 -12   3    3.10    3.20
   5 -12  -3    2.20    3.10
  -5  12   3    1.80    3.10
  -4 -12   3    7.30    3.50
   4 -12  -3    2.70    2.20
  -4  12   3    9.90    3.80
   3 -12  -3    7.50    3.40
  -3 -12   3    3.60    3.30
  -3  12   3    1.50    3.10
   2 -12  -3   24.70    4.70
  -2 -12   3   21.90    4.30
  -2  12   3   18.20    4.40
  -1 -12   3   31.30    4.60
   1 -12  -3   29.10    4.90
   0 -12  -3   81.39    6.90
   0 -12   3   93.79    6.80
   1 -12   3   49.10    5.70
  -1 -12  -3   78.69    7.50
  -1  12  -3   63.29    6.80
  -2 -12  -3   65.99    6.70
   2 -12   3   66.59    6.80
  -2  12  -3   71.69    7.60
   3 -12   3   11.50    3.90
  -3 -12  -3    3.90    2.80
  -3  12  -3    4.90    3.40
  -4 -12  -3   67.49    7.30
  -4  12  -3   61.39    7.40
  -5 -12  -3   78.79    8.00
  -5  12  -3   70.59    8.20
  -3 -13   3   66.09    7.20
   3 -13  -3   60.99    7.40
  -3  13   3   58.89    7.50
  -2 -13   3   17.00    3.90
   2 -13  -3   20.60    4.40
  -1 -13   3   74.29    6.30
   1 -13  -3   59.59    6.80
   0 -13  -3   18.30    4.60
   0 -13   3   28.70    4.90
  -1 -13  -3    7.60    3.50
   1 -13   3   10.10    3.40
  -1  13  -3    8.10    3.60
   2 -13   3   41.70    5.60
  -2 -13  -3   48.10    6.10
  -2  13  -3   35.80    5.80
  -3 -13  -3    3.20    3.40
  -3  13  -3    4.50    3.40
   9   0  -4   -1.90    2.10
   8   0  -4   69.69    6.90
  -8   0   4   60.99    5.10
   7   0  -4  951.00   28.70
  -7   0   4  950.70   27.00
   6   0  -4  253.37   10.50
  -6   0   4  255.47    9.40
   5   0  -4   34.40    3.80
  -5   0   4   37.30    2.80
   4   0  -4  491.05   15.40
  -4   0   4  517.65   14.20
   3   0  -4   -0.40    0.60
  -3   0   4    0.90    0.60
   3   0  -4    2.30    0.70
   2   0  -4  228.98    6.70
  -2   0   4  223.18    6.20
   2   0  -4  231.38    7.50
   1   0  -4 2618.84   70.69
   1   0  -4 3278.47   71.49
   0   0  -4  311.47    8.50
   0   0  -4  326.57    8.70
  -2   0  -4 2394.06   57.89
  -2   0  -4 2411.86   59.09
  -3   0  -4  958.40   25.10
  -3   0  -4  928.71   24.00
  -4   0  -4  117.99    5.50
  -5   0  -4  121.19    6.10
  -6   0  -4   -1.10    1.40
  -7   0  -4  109.19    6.60
  -7   0  -4  113.69    6.40
  -8   0  -4   34.90    4.30
  -8   0  -4   40.80    5.20
  -9   0  -4   37.60    5.30
 -10   0  -4   15.00    4.00
  10  -1  -4    2.70    3.40
  10   1  -4    0.40    3.10
   9  -1  -4   21.00    4.40
   9   1  -4   31.40    5.30
  -9   1   4   46.40    5.40
  -8  -1   4    3.30    2.10
   8  -1  -4    1.10    1.60
   8   1  -4    3.60    2.70
  -8   1   4    9.70    2.80
   7  -1  -4   12.90    3.20
   7   1  -4   12.60    3.20
  -7   1   4   15.90    2.90
   6  -1  -4  101.29    6.20
   6   1  -4   88.09    6.00
  -6   1   4  101.39    5.40
   5  -1  -4  175.78    7.80
   5   1  -4  175.28    7.80
  -5   1   4  166.98    6.80
   4  -1  -4  578.04   17.50
  -4   1   4  600.04   16.40
   4   1  -4  577.64   17.50
   3  -1  -4  414.46   12.60
   3   1  -4  401.56   12.50
  -3   1   4  412.26   11.60
   2  -1  -4  832.02   21.00
   2  -1  -4  857.11   22.30
   2   1  -4  873.31   22.50
  -2   1   4  833.22   21.40
   2   1  -4  837.32   21.90
   1  -1  -4 1712.93   42.10
   1  -1  -4 1722.43   42.90
   1   1  -4 1784.62   43.00
  -1   1   4 1760.52   42.40
   1   1  -4 1745.73   42.80
   0  -1  -4 4305.07  109.89
   0  -1  -4 4654.13  109.99
   0   1  -4 4350.96  109.79
   0   1  -4 4779.42  108.99
  -1  -1  -4 4206.58   97.69
  -1  -1  -4 3731.73   97.29
  -1   1  -4 4200.28   98.59
  -2  -1  -4  484.45   12.80
   2  -1   4  484.55   12.10
  -2   1  -4  486.75   13.30
   3  -1   4  526.85   14.10
  -3  -1  -4  540.75   14.70
  -3   1  -4  556.14   15.20
   4  -1   4  173.98    6.20
  -4  -1  -4  193.88    6.80
  -4   1  -4  183.78    7.00
  -5  -1  -4  293.37   10.10
   5  -1   4  299.27    9.70
  -5   1  -4  310.87   10.60
  -6  -1  -4  169.38    7.50
   6  -1   4  173.78    7.20
  -6   1  -4  171.38    7.70
   7  -1   4  238.78    9.50
  -7  -1  -4  252.37   10.20
  -7   1  -4  255.67   10.50
  -8  -1  -4    3.40    2.50
  -8  -1  -4    1.10    2.10
  -8   1  -4    0.40    1.90
  -9  -1  -4   63.19    7.20
  -9  -1  -4   68.79    5.90
  -9   1  -4   68.69    6.70
 -10  -1  -4    3.60    3.10
 -10   1  -4    0.80    2.90
 -10  -2   4   19.80    5.00
  10  -2  -4   22.30    4.70
   9  -2  -4  148.39    9.30
  -9   2   4  137.09    8.20
   8  -2  -4   36.70    5.10
   8   2  -4   48.90    5.80
  -8   2   4   48.70    5.10
  -7   2   4   26.90    3.60
   7   2  -4   26.90    4.30
   6  -2  -4   31.70    4.10
  -6   2   4   27.60    3.40
   6   2  -4   29.50    4.10
   5  -2  -4   66.29    4.60
   5   2  -4   66.29    4.60
  -5   2   4   75.39    4.30
   4  -2  -4 1172.28   31.80
  -4   2   4 1171.88   30.90
   4   2  -4 1186.78   32.00
   3  -2  -4  323.37   10.40
  -3   2   4  322.37    9.80
   3   2  -4  312.57   10.40
   3   2  -4  314.37   10.30
   2  -2  -4  858.21   20.70
   2  -2  -4  832.52   22.50
   2   2  -4  840.22   22.60
   2   2  -4  872.41   22.70
  -2   2   4  859.91   22.10
   1  -2  -4 7163.68  169.68
   1  -2  -4 6972.00  168.98
  -1   2   4 7167.58  171.48
   1   2  -4 7601.64  170.78
   1   2  -4 6391.96  169.48
   0  -2   4  124.09    4.00
   0  -2  -4  128.09    4.20
   0  -2  -4  121.69    4.10
   0   2  -4  124.89    4.10
   0   2  -4  121.79    4.20
   1  -2   4  204.48    5.30
  -1  -2  -4  196.78    5.90
  -1   2  -4  178.78    6.30
  -1   2  -4  204.28    6.00
   2  -2   4  414.46   10.50
  -2  -2  -4  410.76   11.40
  -2   2  -4  401.36   11.30
   3  -2   4  344.77    9.50
  -3  -2  -4  330.57   10.20
  -3   2  -4  347.17   10.20
  -4  -2  -4 1165.18   30.80
   4  -2   4 1171.78   30.00
  -4   2  -4 1186.78   30.60
  -5  -2  -4   17.50    2.50
   5  -2   4   16.40    2.10
  -5   2  -4   15.00    2.10
   6  -2   4    0.50    1.30
  -6  -2  -4    3.30    1.90
  -6   2  -4   -0.80    1.50
   7  -2   4    5.70    2.10
  -7  -2  -4    2.20    2.20
  -7   2  -4    3.10    1.90
  -8  -2  -4   35.90    4.40
  -8   2  -4   41.50    4.60
  -8   2  -4   39.00    5.50
  -9  -2  -4    0.00    2.80
  -9  -2  -4    2.90    2.50
  -9   2  -4   -1.80    2.00
  -9   2  -4   -0.20    2.30
 -10  -2  -4   23.40    5.00
 -10   2  -4   21.60    5.30
  10  -3  -4   19.20    4.40
 -10  -3   4   17.70    4.90
 -10   3   4   12.50    3.80
  -9  -3   4    3.20    3.20
   9  -3  -4    3.30    2.90
  -9   3   4    4.10    2.90
  -8  -3   4   26.50    4.70
   8  -3  -4   18.70    3.90
  -8   3   4   17.30    3.50
  -7  -3   4    2.40    2.40
   7  -3  -4    1.00    1.90
  -7   3   4    0.40    1.60
  -6  -3   4   42.60    5.10
  -6   3   4   41.10    4.20
  -6   3   4   45.00    2.90
   5  -3  -4  335.97   12.20
  -5   3   4  330.07   11.50
  -4  -3   4  492.35   15.70
   4  -3  -4  473.05   15.20
  -4   3   4  487.65   14.70
   3  -3  -4   66.69    3.90
  -3  -3   4   66.99    4.10
   3   3  -4   66.39    4.10
  -3   3   4   74.59    3.80
  -2  -3   4  827.32   23.00
   2  -3  -4  848.82   22.70
  -2   3   4  865.51   22.60
   2   3  -4  856.91   23.00
   1  -3  -4  770.62   20.10
   1  -3  -4  776.82   18.80
   1   3  -4  735.23   19.20
  -1   3   4  752.82   20.00
   1   3  -4  746.23   20.20
   0  -3  -4 1061.49   26.90
   0  -3   4 1058.19   26.70
   0   3  -4 1037.70   26.90
   0   3  -4 1070.49   26.80
   1  -3   4   46.60    2.00
  -1  -3  -4   41.90    2.40
  -1   3  -4   39.20    2.50
  -1   3  -4   43.20    2.20
  -2  -3  -4  314.57    9.50
   2  -3   4  319.67    8.60
  -2   3  -4  321.87    9.10
  -2   3  -4  301.57   10.20
  -3  -3  -4    4.70    1.30
   3  -3   4    6.00    1.00
  -3   3  -4    5.80    1.60
  -3   3  -4    3.70    1.00
   4  -3   4  283.57    8.70
  -4  -3  -4  269.77    9.50
  -4   3  -4  277.07    8.80
  -4   3  -4  272.67   10.30
   5  -3   4   16.90    2.20
  -5  -3  -4   14.10    2.40
  -5   3  -4   11.20    2.50
  -5   3  -4   16.80    2.20
   6  -3   4  253.37    9.10
  -6  -3  -4  247.58    9.90
  -6   3  -4  231.38   10.60
  -6   3  -4  246.98    9.10
  -7  -3  -4  250.77   10.70
  -7   3  -4  251.47    9.80
  -7   3  -4  246.58   11.50
  -8  -3  -4   15.20    3.40
  -8   3  -4   17.90    3.20
  -8   3  -4    9.40    3.70
  -9  -3  -4   45.70    5.50
  -9   3  -4   45.70    6.50
 -10  -3  -4   61.79    8.10
 -10   3  -4   53.39    7.40
 -10  -4   4   15.80    4.90
  10  -4  -4   17.70    4.70
 -10   4   4   12.60    4.00
  -9  -4   4   86.39    8.80
   9  -4  -4   71.59    7.60
  -9   4   4   87.79    7.00
   8  -4  -4  280.57   12.90
  -8  -4   4  269.17   13.20
  -8   4   4  286.97   12.30
  -7  -4   4   33.50    4.90
   7  -4  -4   39.20    4.90
  -7   4   4   40.60    4.70
  -6  -4   4 1523.95   42.30
  -6   4   4 1475.85   40.70
  -5  -4   4   37.40    4.30
   5  -4  -4   37.20    4.30
  -5   4   4   40.70    1.80
  -5   4   4   37.60    4.00
   4  -4  -4   47.40    3.90
  -4  -4   4   51.79    4.20
  -4   4   4   43.90    3.50
   3  -4  -4   34.80    3.40
  -3  -4   4   22.40    2.90
  -3   4   4   34.00    2.80
   3   4  -4   28.60    3.30
  -2  -4   4 1005.30   27.60
   2  -4  -4 1012.20   27.20
  -2   4   4 1049.40   27.30
   2   4  -4 1032.30   27.70
   1  -4  -4  496.15   13.70
  -1  -4   4  415.86   13.40
  -1   4   4  471.25   13.70
   1   4  -4  497.15   13.10
   1   4  -4  477.95   13.90
   0  -4  -4   21.20    1.80
   0  -4   4   21.70    1.80
   0   4  -4   22.60    1.80
   0   4  -4   22.00    1.90
   1  -4   4  728.03   18.60
  -1  -4  -4  714.33   19.20
  -1   4  -4  690.43   19.60
  -1   4  -4  725.63   18.90
   2  -4   4   63.49    2.90
  -2  -4  -4   63.79    3.50
  -2   4  -4   63.99    3.90
  -2   4  -4   62.99    3.00
  -3  -4  -4  183.68    7.00
   3  -4   4  183.18    6.10
  -3   4  -4  163.98    7.30
  -3   4  -4  178.08    6.00
  -4  -4  -4  166.58    7.10
   4  -4   4  184.28    6.50
  -4   4  -4  170.28    6.10
  -4   4  -4  171.78    7.90
   5  -4   4   47.90    3.30
  -5  -4  -4   53.29    4.10
  -5   4  -4   52.79    5.20
  -5   4  -4   46.50    3.00
  -6  -4  -4  346.17   12.90
   6  -4   4  358.56   12.10
  -6   4  -4  354.56   13.90
  -6   4  -4  364.26   11.60
  -7  -4  -4   68.49    5.70
  -7   4  -4   73.89    4.60
  -7   4  -4   66.79    6.70
  -8  -4  -4    6.90    2.70
  -8   4  -4    7.70    3.50
  -9  -4  -4   37.80    5.30
  -9   4  -4   29.90    5.30
 -10  -4  -4   15.40    4.30
 -10   4  -4   19.20    5.00
 -10  -5   4   34.90    6.60
 -10   5   4   34.60    5.80
  -9  -5   4    0.30    3.10
   9  -5  -4    2.50    2.60
  -9   5   4    2.40    2.90
   8  -5  -4    4.60    2.80
  -8  -5   4    0.30    2.50
  -8   5   4    8.80    3.40
  -7  -5   4    5.20    2.80
   7  -5  -4    4.20    2.40
  -7   5   4    5.30    2.70
   6  -5  -4  214.68   10.20
  -6  -5   4  220.58   10.70
  -6   5   4  220.78    9.90
  -5  -5   4  251.47   11.00
  -5   5   4  244.98   10.30
  -4  -5   4   73.39    5.30
   4  -5  -4   86.79    5.40
  -4   5   4   79.99    5.00
   3  -5  -4    7.50    1.80
  -3  -5   4   12.70    2.40
  -3   5   4   10.30    2.20
   3   5  -4    7.90    2.00
   2  -5  -4    7.90    0.70
   2  -5  -4    9.90    1.80
  -2  -5   4   13.20    2.10
   2   5  -4    9.80    1.90
  -2   5   4   10.70    2.00
   1  -5  -4 1977.60   48.30
  -1  -5   4 1871.81   48.30
   1   5  -4 1877.21   47.60
  -1   5   4 1919.21   48.60
   1   5  -4 1890.51   48.60
   0  -5   4 2120.19   53.29
   0  -5  -4 2174.88   53.59
   0   5  -4 2161.98   53.69
   0   5  -4 2114.09   53.59
   1  -5   4   50.69    2.80
  -1  -5  -4   51.69    3.10
  -1   5  -4   49.60    2.90
  -1   5  -4   55.79    3.50
  -2  -5  -4  113.79    5.20
   2  -5   4  109.89    4.50
  -2   5  -4  128.09    5.90
  -2   5  -4  113.99    4.50
  -3  -5  -4    3.40    1.50
   3  -5   4    3.20    1.00
  -3   5  -4    1.20    1.40
  -3   5  -4    5.20    1.10
   4  -5   4  326.57   10.40
  -4  -5  -4  324.57   11.40
  -4   5  -4  314.17    9.70
  -4   5  -4  316.67   12.10
   5  -5   4  268.07    9.70
  -5  -5  -4  282.17   10.80
  -5   5  -4  286.57    9.00
  -5   5  -4  269.57   11.50
  -6  -5  -4  195.68    8.90
   6  -5   4  174.08    9.10
  -6   5  -4  174.68    6.80
  -6   5  -4  180.38    9.60
  -7  -5  -4   88.49    6.50
  -7   5  -4   80.39    6.90
  -8  -5  -4  105.29    7.50
  -8   5  -4  100.59    7.90
  -9  -5  -4   -0.60    2.80
  -9   5  -4    0.70    3.00
 -10  -5  -4   28.00    5.40
 -10   5  -4   18.10    4.90
  -9  -6   4   -1.10    3.10
   9  -6  -4   -0.70    2.30
  -9   6   4    2.10    2.80
  -8  -6   4    9.90    3.60
   8  -6  -4    9.80    3.50
  -8   6   4   12.60    3.40
   7  -6  -4    8.10    3.30
  -7  -6   4   10.20    3.30
  -7   6   4   14.90    3.70
   6  -6  -4   68.49    6.70
  -6  -6   4   75.09    6.30
  -6   6   4   70.89    6.60
  -5  -6   4  461.55   16.80
  -5   6   4  476.35   16.30
  -4  -6   4   37.50    4.60
   4  -6  -4   33.10    4.00
  -4   6   4   37.60    4.40
  -3  -6   4   11.50    2.50
   3  -6  -4    9.80    2.20
  -3   6   4   12.10    2.60
   2  -6  -4  104.89    5.40
  -2  -6   4   99.79    5.50
   2   6  -4   96.39    5.40
  -2   6   4   93.79    5.30
  -1  -6   4    6.70    1.80
   1  -6  -4    6.60    1.70
   1   6  -4    6.60    1.70
   1   6  -4    3.90    1.40
  -1   6   4    7.90    2.00
   0  -6   4  333.67   10.60
   0  -6  -4  320.77   10.70
   0   6  -4  326.67   10.80
   0   6  -4  327.27   10.80
   1  -6   4    3.90    1.20
  -1  -6  -4    2.00    1.20
  -1   6  -4    1.50    1.30
  -1   6  -4    2.40    1.10
   2  -6   4   54.59    3.20
  -2  -6  -4   60.29    3.80
  -2   6  -4   58.99    4.10
  -2   6  -4   66.39    3.50
   3  -6   4  414.36   12.70
  -3  -6  -4  408.86   13.60
  -3   6  -4  419.86   12.20
  -3   6  -4  423.76   14.40
  -4  -6  -4  142.89    7.10
   4  -6   4  153.18    6.50
  -4   6  -4  149.19    5.60
  -4   6  -4  147.89    7.90
  -5  -6  -4    4.10    2.10
   5  -6   4    3.30    1.50
  -5   6  -4    1.50    1.20
  -5   6  -4    6.50    2.40
  -6  -6  -4   27.10    4.10
  -6   6  -4   20.80    3.90
  -7  -6  -4   29.00    4.50
  -7   6  -4   28.70    5.00
  -8  -6  -4    2.90    2.50
  -8   6  -4    4.10    2.90
  -9  -6  -4    2.50    2.90
  -9   6  -4    4.60    3.60
  -9  -7   4    0.30    3.30
  -9   7   4    4.30    3.70
  -8  -7   4   36.90    5.80
   8  -7  -4   41.30    5.80
  -8   7   4   36.10    5.50
   7  -7  -4    6.10    3.10
  -7  -7   4    0.70    3.00
  -7   7   4    4.10    2.70
   6  -7  -4  147.39    8.70
  -6  -7   4  119.49    8.20
  -6   7   4  129.49    8.00
  -5  -7   4   30.60    4.70
  -5   7   4   30.40    4.40
   4  -7  -4   29.50    4.00
  -4  -7   4   27.20    4.20
  -4   7   4   31.40    4.30
   3  -7  -4 1607.34   43.80
  -3  -7   4 1642.84   44.00
  -3   7   4 1652.03   44.00
  -2  -7   4  392.86   13.50
   2  -7  -4  382.26   13.20
   2   7  -4  401.36   14.00
  -2   7   4  380.96   13.40
  -1  -7   4  489.05   15.20
   1  -7  -4  484.55   15.20
   1   7  -4  469.55   15.50
   1   7  -4  487.95   14.90
  -1   7   4  475.25   15.60
   0  -7   4  559.64   17.60
   0  -7  -4  650.63   18.40
   0   7  -4  619.84   18.30
   0   7  -4  630.24   18.40
  -1  -7  -4   89.89    4.90
   1  -7   4   93.89    4.60
  -1   7  -4   92.39    4.70
  -1   7  -4   86.09    5.20
   2  -7   4   19.70    2.50
  -2  -7  -4   24.30    3.20
  -2   7  -4   27.50    3.40
  -2   7  -4   26.20    2.70
  -3  -7  -4  230.18    9.30
   3  -7   4  227.28    8.50
  -3   7  -4  230.28    8.00
  -3   7  -4  223.88    9.90
  -4  -7  -4   21.60    3.50
   4  -7   4   18.30    2.70
  -4   7  -4   21.00    3.90
  -4   7  -4   15.10    2.10
   5  -7   4  148.79    7.20
  -5  -7  -4  147.79    8.00
  -5   7  -4  148.19    8.50
  -6  -7  -4   -1.40    1.80
  -6   7  -4   -2.20    1.80
  -7  -7  -4   44.00    5.40
  -7   7  -4   49.50    6.20
  -8  -7  -4  176.08   10.30
  -8   7  -4  181.18   11.30
  -9  -7  -4    7.20    3.70
  -9   7  -4    8.70    4.60
  -8  -8   4    4.20    3.30
   8  -8  -4    2.30    3.10
  -8   8   4    3.90    3.00
   7  -8  -4    3.30    2.70
  -7  -8   4   -3.30    2.60
  -7   8   4   -2.00    2.20
  -6  -8   4   65.19    7.20
   6  -8  -4   78.69    6.70
  -6   8   4   69.69    7.00
  -5  -8   4   28.20    4.60
  -5   8   4   39.00    5.10
   4  -8  -4   24.20    4.10
  -4  -8   4   28.70    4.40
  -4   8   4   24.30    4.00
   3  -8  -4   78.99    5.60
  -3  -8   4   83.79    5.90
  -3   8   4   82.79    5.90
   2  -8  -4    3.00    1.90
  -2  -8   4    2.90    2.00
  -2   8   4    3.90    2.20
   2   8  -4    2.70    2.00
  -1  -8   4   64.79    4.70
   1  -8  -4   66.19    4.60
   1   8  -4   67.29    4.90
   1   8  -4   73.39    4.70
  -1   8   4   68.89    5.10
   0  -8  -4  168.78    7.60
   0   8  -4  174.08    7.60
   0   8  -4  154.58    7.40
  -1  -8  -4   18.00    3.00
   1  -8   4   26.70    3.20
  -1   8  -4   24.40    3.10
  -1   8  -4   25.80    3.70
   2  -8   4  289.67   10.50
  -2  -8  -4  310.97   11.40
  -2   8  -4  306.57   10.30
  -2   8  -4  296.57   11.80
   3  -8   4  352.26   12.60
  -3  -8  -4  388.96   13.60
  -3   8  -4  396.76   14.50
  -3   8  -4  356.46   11.60
   4  -8   4    6.40    2.00
  -4  -8  -4   10.70    2.80
  -4   8  -4    8.20    3.20
  -5  -8  -4   25.10    4.00
  -5   8  -4   35.30    5.10
  -6  -8  -4   30.70    4.60
  -6   8  -4   42.80    6.10
  -7  -8  -4   56.99    6.40
  -7   8  -4   70.49    7.90
  -8  -8  -4    5.90    3.60
  -8   8  -4    8.10    3.90
  -8  -9   4   32.40    6.00
  -8   9   4   29.80    6.10
  -7  -9   4   -1.00    2.70
   7  -9  -4   -2.20    2.40
  -7   9   4   -1.90    2.80
   6  -9  -4   66.49    7.40
  -6  -9   4   64.19    7.20
  -6   9   4   56.29    6.70
  -5  -9   4   28.90    5.10
  -5   9   4   31.20    5.30
   4  -9  -4   11.10    3.10
  -4  -9   4    6.20    2.80
  -4   9   4    3.50    2.90
   3  -9  -4   61.59    6.10
  -3  -9   4   51.39    5.30
  -3   9   4   52.59    5.70
   2  -9  -4   68.09    5.30
  -2  -9   4   81.39    5.80
  -2   9   4   61.59    5.30
  -1  -9   4  101.59    6.20
   1  -9  -4  103.89    6.20
   1   9  -4  100.39    6.60
  -1   9   4   92.59    6.40
   0  -9  -4  327.37   12.10
   0   9  -4  326.37   12.20
   1  -9   4   50.99    4.10
  -1  -9  -4   45.10    4.70
  -1   9  -4   44.20    4.30
  -1   9  -4   40.20    4.60
   2  -9   4   39.10    4.20
  -2  -9  -4   28.70    4.00
  -2   9  -4   35.10    4.80
  -2   9  -4   32.40    3.60
  -3  -9  -4   71.49    5.50
   3  -9   4   68.09    5.10
  -3   9  -4   69.69    6.70
   4  -9   4   51.69    5.10
  -4  -9  -4   67.79    6.30
  -4   9  -4   75.09    7.10
  -5  -9  -4    0.00    2.60
  -5   9  -4    1.60    2.70
  -6  -9  -4   24.80    4.40
  -6   9  -4   32.00    5.40
  -7  -9  -4    3.80    3.00
  -7   9  -4    2.10    3.20
  -8  -9  -4   16.70    4.40
  -8   9  -4   10.50    4.30
  -7 -10   4   20.00    5.20
   7 -10  -4    9.20    3.80
  -7  10   4   20.40    4.80
   6 -10  -4   60.99    7.40
  -6 -10   4   53.69    6.80
  -6  10   4   63.79    7.40
   5 -10  -4    0.90    1.20
  -5 -10   4    1.40    3.00
  -5  10   4   -0.10    2.60
   4 -10  -4    3.10    2.60
  -4 -10   4   -0.40    2.60
  -4  10   4   -0.40    2.60
   3 -10  -4  300.57   13.10
  -3 -10   4  319.37   13.10
  -3  10   4  311.87   13.20
   2 -10  -4  146.99    8.20
  -2 -10   4  149.79    8.10
  -2  10   4  120.89    7.80
   1 -10  -4   13.00    3.00
  -1 -10   4   16.40    3.40
   0 -10   4    4.70    1.60
   0 -10  -4   33.10    4.30
   0  10  -4   31.30    4.10
   0  10  -4   10.50    2.60
   1 -10   4   13.10    3.00
  -1 -10  -4   15.50    3.40
  -1  10  -4   10.80    3.20
  -1  10  -4   14.30    2.80
  -2 -10  -4  316.47   12.50
   2 -10   4  301.27   11.80
  -2  10  -4  310.87   13.20
   3 -10   4  153.38    8.00
  -3 -10  -4  143.29    8.00
  -3  10  -4  136.89    8.50
  -4 -10  -4   35.60    5.00
  -4  10  -4   31.60    5.00
  -5 -10  -4   14.60    3.80
  -5  10  -4   19.40    4.50
  -6 -10  -4    7.50    3.80
  -6  10  -4   11.50    4.30
  -7 -10  -4   26.10    5.40
  -7  10  -4   31.60    5.90
   6 -11  -4   72.19    8.50
  -6 -11   4  100.39    8.20
  -6  11   4   87.99    8.90
  -5 -11   4   90.69    8.60
  -5  11   4  118.79    8.70
  -4 -11   4   28.90    5.10
   4 -11  -4   36.00    5.60
  -4  11   4   34.70    5.50
  -3 -11   4   60.19    6.20
   3 -11  -4   63.79    6.80
  -3  11   4   55.99    6.70
  -2 -11   4   23.20    4.20
   2 -11  -4   13.50    3.70
  -2  11   4   21.70    4.30
  -1 -11   4   -2.50    1.60
   1 -11  -4   -0.80    2.10
   0 -11  -4   -1.00    2.20
   0 -11   4    0.90    1.30
   0  11  -4    0.10    1.30
   1 -11   4   -0.60    1.80
  -1 -11  -4   -1.70    2.00
  -1  11  -4    0.20    2.40
  -2 -11  -4  113.29    7.60
   2 -11   4  116.99    7.10
  -2  11  -4  126.99    8.10
  -3 -11  -4   11.40    3.60
   3 -11   4   12.20    3.20
  -3  11  -4   11.20    3.70
  -4 -11  -4    8.00    3.60
  -4  11  -4   14.20    4.10
  -5 -11  -4    1.50    2.90
  -5  11  -4    1.70    2.90
  -6 -11  -4   21.00    4.60
  -6  11  -4   27.90    5.70
   5 -12  -4    2.20    2.60
  -5 -12   4    2.70    3.70
  -5  12   4    3.60    3.50
  -4 -12   4   25.80    5.00
   4 -12  -4   26.00    5.30
  -4  12   4   27.70    5.30
   3 -12  -4    0.40    2.40
  -3 -12   4    2.80    3.10
  -3  12   4    4.90    3.30
   2 -12  -4    1.30    2.80
  -2 -12   4    0.10    2.50
   1 -12  -4   14.10    3.90
  -1 -12   4    4.20    2.90
   0 -12  -4  100.19    7.10
   0 -12   4   76.39    6.00
  -1 -12  -4  163.28    9.30
   1 -12   4  173.18    9.20
  -1  12  -4  179.38   10.10
  -2 -12  -4  108.69    7.90
   2 -12   4   88.89    6.80
  -2  12  -4   92.59    7.60
  -3 -12  -4   32.10    5.00
  -3  12  -4   29.30    5.30
  -4 -12  -4  136.89    9.10
  -4  12  -4  132.49    9.50
  -5 -12  -4   20.00    4.60
  -5  12  -4   27.40    5.70
  -3 -13   4    2.70    3.40
   3 -13  -4    1.20    3.00
  -3  13   4    1.90    3.00
  -2 -13   4    2.20    3.00
   2 -13  -4    4.20    3.50
  -1 -13   4    2.90    2.80
   1 -13  -4    4.70    3.40
   0 -13   4    2.00    2.40
   0 -13  -4    2.60    3.10
   1 -13   4   22.30    4.10
  -1 -13  -4   10.60    4.10
  -1  13  -4   14.60    4.00
  -2 -13  -4   12.70    3.80
  -2  13  -4   13.60    4.10
  -3 -13  -4    5.50    3.20
  -3  13  -4    2.00    3.30
  10   0  -5    8.10    4.00
   9   0  -5   -2.80    2.40
   8   0  -5   -1.40    1.70
  -8   0   5   -3.50    1.40
   7   0  -5    7.10    2.90
  -7   0   5    0.90    2.00
  -6   0   5    0.50    1.30
   6   0  -5    0.50    1.90
   5   0  -5   -2.50    1.10
  -5   0   5    1.30    0.90
  -4   0   5    0.90    0.80
   4   0  -5    1.30    1.20
  -3   0   5    0.10    0.50
   3   0  -5   -0.10    0.90
   3   0  -5   -0.70    0.60
  -2   0   5    0.10    0.30
   2   0  -5    0.10    0.40
   2   0  -5    0.00    0.50
   1   0  -5   -0.50    0.50
   1   0  -5   -2.00    0.50
   0   0  -5    1.60    0.40
   0   0  -5    4.50    0.70
  -1   0  -5   -5.20    0.70
  -1   0  -5   -5.50    0.30
  -2   0  -5   -0.20    0.30
  -2   0  -5   -0.60    0.40
  -3   0  -5    0.00    0.70
  -3   0  -5   -0.60    0.40
  -4   0  -5   -0.90    0.60
  -4   0  -5   -0.30    0.90
  -5   0  -5   -0.60    1.40
  -5   0  -5   -1.10    1.10
  -6   0  -5   -0.40    1.30
  -6   0  -5    1.00    1.90
  -7   0  -5    0.70    2.20
  -7   0  -5    2.40    1.90
  -8   0  -5   -0.50    1.80
  -8   0  -5   -0.50    2.10
  -9   0  -5   -1.40    2.10
 -10   0  -5    4.90    3.20
  10  -1  -5    0.20    1.50
  10   1  -5    8.10    3.80
   9  -1  -5  155.88    9.70
  -9   1   5  181.58   10.40
   9   1  -5  163.18    9.90
  -8  -1   5   21.10    3.70
   8  -1  -5   18.90    3.90
   8   1  -5   14.90    3.60
  -8   1   5   20.40    3.50
  -7  -1   5  215.68    8.90
   7  -1  -5  237.58   10.80
   7   1  -5  230.48   10.80
  -7   1   5  219.88    9.30
  -6  -1   5  791.22   22.40
   6  -1  -5  802.62   24.60
   6   1  -5  835.42   24.80
  -6   1   5  819.12   23.00
   5  -1  -5  452.85   15.10
  -5   1   5  454.15   13.70
   5   1  -5  449.46   15.10
   4  -1  -5    8.80    2.00
   4   1  -5    4.90    1.70
  -4   1   5    5.70    1.20
   3  -1  -5  950.60   26.30
   3  -1  -5 1008.70   25.00
  -3  -1   5  991.50   24.30
   3   1  -5  964.20   26.40
  -3   1   5  980.20   25.00
   2  -1  -5   94.69    4.20
   2  -1  -5   98.99    3.40
  -2  -1   5  101.69    2.60
   2   1  -5   97.89    4.30
   2   1  -5   96.89    4.00
  -2   1   5  102.39    3.50
   1  -1  -5  608.54   15.30
   1  -1  -5  595.84   16.00
   1   1  -5  604.94   16.00
   1   1  -5  609.94   15.90
   0  -1  -5  251.87    7.00
   0   1  -5  241.78    7.20
   0   1  -5  256.67    6.90
  -1  -1  -5 1678.93   42.60
  -1  -1  -5 1804.72   43.70
  -1   1  -5 1799.32   43.30
  -2  -1  -5  125.99    4.10
  -2  -1  -5  120.09    5.00
  -2   1  -5  126.69    3.30
  -2   1  -5  121.89    4.60
  -3  -1  -5  221.68    8.10
  -3  -1  -5  214.58    6.90
   3  -1   5  228.48    6.40
  -3   1  -5  222.48    7.60
   4  -1   5   14.70    1.60
  -4  -1  -5   17.70    2.40
  -4  -1  -5   15.80    1.90
  -4   1  -5   16.00    2.10
   5  -1   5  657.13   18.20
  -5  -1  -5  662.93   18.80
  -5   1  -5  663.73   19.50
   6  -1   5    0.60    1.30
  -6  -1  -5   -1.90    1.40
  -6  -1  -5   -2.10    1.50
  -6   1  -5   -1.40    1.20
  -7  -1  -5   46.90    4.70
  -7  -1  -5   51.09    5.50
  -7   1  -5   60.49    5.00
  -8  -1  -5   25.90    3.70
  -8  -1  -5   28.40    4.60
  -8   1  -5   34.50    4.60
  -9  -1  -5    1.20    2.50
  -9   1  -5    2.50    2.50
 -10  -1  -5   37.70    5.90
 -10   1  -5   49.10    6.60
 -10   1  -5   51.49    7.00
 -10  -2   5   37.60    6.20
  10  -2  -5   27.60    5.10
  -9   2   5   36.20    4.90
   8  -2  -5  101.49    7.20
  -8   2   5  117.49    7.00
   8   2  -5  110.59    7.80
   7  -2  -5   33.60    4.50
  -7   2   5   37.50    4.20
   7   2  -5   27.80    4.30
   6  -2  -5   35.30    4.30
   6   2  -5   39.00    4.70
  -6   2   5   37.90    3.80
   5  -2  -5   -0.70    1.20
  -5   2   5    0.70    1.20
   5   2  -5   -0.70    1.50
   4  -2  -5 1188.58   32.50
  -4   2   5 1210.48   31.30
   4   2  -5 1190.88   32.60
   3  -2  -5   10.60    2.00
   3   2  -5   10.90    1.90
   3   2  -5   11.80    1.90
  -3   2   5    8.40    1.40
   2  -2  -5  888.81   23.80
   2  -2  -5  885.71   22.00
   2   2  -5  921.91   24.00
   2   2  -5  905.21   23.70
  -2   2   5  885.01   23.10
   1  -2  -5 2754.82   64.69
   1  -2  -5 2672.13   65.79
   1   2  -5 2668.03   64.49
  -1   2   5 2643.34   65.39
   1   2  -5 2653.63   65.69
   1   2  -5 2762.32   65.89
   0  -2  -5 9218.78  220.08
   0  -2   5 9262.57  219.48
   0  -2  -5 8621.44  219.68
   0   2  -5 8626.74  221.98
   0   2  -5 9901.81  221.88
  -1  -2  -5  648.34   16.60
   1  -2   5  666.53   15.80
  -1  -2  -5  592.24   17.20
  -1   2  -5  660.23   16.90
  -2  -2  -5 1330.47   33.60
   2  -2   5 1381.76   32.60
  -2   2  -5 1327.07   33.80
   3  -2   5 1776.02   43.00
  -3  -2  -5 1738.03   44.00
  -3   2  -5 1774.22   44.20
   4  -2   5    0.20    0.70
  -4  -2  -5    4.50    1.30
  -4   2  -5    1.70    1.10
   5  -2   5  656.63   18.20
  -5  -2  -5  664.23   19.20
  -5   2  -5  675.03   19.30
   6  -2   5  596.44   17.70
  -6  -2  -5  625.04   18.70
  -6   2  -5  629.84   18.70
  -7  -2  -5   15.10    3.00
  -7   2  -5    7.70    2.50
  -8  -2  -5    3.00    2.10
  -8  -2  -5    4.70    3.20
  -8   2  -5    1.50    2.00
  -9  -2  -5   60.59    6.00
  -9  -2  -5   76.39    8.20
  -9   2  -5   58.29    5.90
  -9   2  -5   76.39    8.30
 -10  -2  -5   19.60    4.80
 -10   2  -5   14.60    4.50
 -10  -3   5    3.30    3.60
  10  -3  -5    1.80    2.80
   9  -3  -5  114.19    8.40
  -9  -3   5  112.49    8.70
  -9   3   5   89.69    7.00
  -8  -3   5   17.10    4.00
  -8   3   5   15.50    3.40
   7  -3  -5   65.19    6.40
  -7   3   5   69.09    5.10
   6  -3  -5   24.80    4.00
  -6   3   5   32.60    3.80
   5  -3  -5 1019.10   29.00
   5   3  -5  995.70   28.80
  -5   3   5 1012.80   27.80
   4  -3  -5  500.55   15.60
  -4   3   5  485.25   14.70
   4   3  -5  477.95   15.50
   3  -3  -5 1697.53   43.70
   3   3  -5 1709.63   43.80
  -3   3   5 1667.83   42.90
  -2  -3   5 7737.93  171.68
   2  -3  -5 7058.29  171.08
   2  -3  -5 6630.84  169.08
  -2   3   5 7117.69  170.68
   2   3  -5 6952.30  171.18
   1  -3  -5  471.65   12.30
   1  -3  -5  473.05   13.50
   1   3  -5  461.65   13.60
  -1   3   5  494.55   13.60
   1   3  -5  492.95   12.60
   0  -3  -5  511.25   13.90
   0  -3   5  519.85   13.80
   0  -3  -5  516.95   14.00
   0   3  -5  491.85   14.00
   0   3  -5  510.85   13.80
  -1  -3  -5  197.48    6.40
   1  -3   5  203.48    5.80
  -1   3  -5  192.48    6.30
  -2  -3  -5  259.37    8.10
   2  -3   5  267.07    7.10
  -2   3  -5  236.98    8.80
  -2   3  -5  260.07    7.90
   3  -3   5  434.36   11.80
  -3  -3  -5  432.46   12.90
  -3   3  -5  442.66   12.50
  -3   3  -5  432.26   13.90
   4  -3   5   88.09    3.80
  -4  -3  -5   90.09    4.60
  -4   3  -5   94.59    4.30
  -4   3  -5   90.49    5.30
  -5  -3  -5   10.00    2.10
   5  -3   5   10.80    1.70
  -5   3  -5   12.90    2.50
  -5   3  -5   12.60    2.00
  -6  -3  -5  266.57   10.30
   6  -3   5  265.97    9.30
  -6   3  -5  250.87    9.50
  -6   3  -5  268.37   11.50
  -7  -3  -5  203.58    9.20
  -7   3  -5  195.78   10.10
  -7   3  -5  192.78    8.40
  -8  -3  -5   10.60    3.10
  -8   3  -5    3.80    3.00
  -8   3  -5    8.60    2.50
  -9  -3  -5   16.40    3.70
  -9  -3  -5   12.20    4.00
  -9   3  -5   20.30    4.70
 -10  -3  -5   23.40    5.50
 -10   3  -5   20.40    5.20
  10  -4  -5    4.20    3.20
 -10  -4   5    6.50    4.00
 -10   4   5    6.60    3.20
  -9  -4   5   20.90    4.90
   9  -4  -5   24.50    4.90
  -9   4   5   14.80    3.80
   8  -4  -5   12.50    3.50
  -8  -4   5    7.80    3.70
  -8   4   5   12.20    3.30
  -7  -4   5  106.79    7.60
  -7   4   5  119.39    7.00
   6  -4  -5  366.06   14.10
  -6  -4   5  381.16   14.70
  -6   4   5  359.86   13.30
   5  -4  -5   36.70    4.20
  -5  -4   5   32.40    4.20
  -5   4   5   35.20    3.80
   4  -4  -5  487.95   15.50
  -4  -4   5  463.05   15.70
  -4   4   5  468.55   14.80
  -3  -4   5  136.99    6.50
   3  -4  -5  142.29    6.20
   3   4  -5  127.39    6.20
  -3   4   5  137.29    5.90
  -2  -4   5   94.09    4.80
   2  -4  -5   99.19    4.70
   2   4  -5   93.19    4.80
  -2   4   5   94.99    4.50
   1  -4  -5 1148.99   29.60
   1  -4  -5 1128.79   28.20
   1   4  -5 1125.39   29.80
  -1   4   5 1133.89   29.70
   1   4  -5 1142.39   28.70
   0  -4   5   71.59    3.30
   0  -4  -5   67.09    3.30
   0   4  -5   61.19    3.30
   0   4  -5   69.99    3.30
   1  -4   5  359.16    9.90
  -1  -4  -5  349.77   10.50
  -1   4  -5  346.17   10.40
   2  -4   5 2050.09   49.99
  -2  -4  -5 1998.80   51.09
  -2   4  -5 2052.39   50.49
  -2   4  -5 2068.69   52.09
  -3  -4  -5  106.09    5.00
   3  -4   5  104.39    4.00
  -3   4  -5  102.09    5.50
  -3   4  -5  107.19    4.30
  -4  -4  -5  625.44   18.70
   4  -4   5  648.94   17.60
  -4   4  -5  648.24   20.00
  -4   4  -5  651.63   17.80
   5  -4   5   14.30    2.00
  -5  -4  -5    9.50    2.20
  -5   4  -5   11.80    2.80
  -5   4  -5   19.30    2.30
  -6  -4  -5  180.98    8.50
  -6   4  -5  187.38    9.50
  -6   4  -5  186.08    7.40
  -7  -4  -5    2.70    2.20
  -7   4  -5    0.90    1.60
  -7   4  -5    3.60    2.60
  -8  -4  -5    8.70    2.90
  -8   4  -5   19.40    4.40
  -9  -4  -5    4.70    3.10
  -9   4  -5    1.20    3.10
 -10  -4  -5    6.60    3.60
 -10   4  -5    0.20    3.50
 -10  -5   5    3.30    3.50
  10  -5  -5    5.60    4.00
 -10   5   5   -1.50    2.90
  -9  -5   5    1.90    3.10
   9  -5  -5    1.70    2.50
  -9   5   5    4.70    3.00
  -8  -5   5   -2.40    2.40
   8  -5  -5    2.90    2.50
  -8   5   5    0.40    2.30
  -7  -5   5  230.88   11.70
  -7   5   5  241.78   10.80
   6  -5  -5  271.17   12.20
  -6  -5   5  316.47   13.20
  -6   5   5  298.87   11.80
  -5  -5   5  926.71   28.20
   5  -5  -5  942.11   27.90
  -5   5   5  937.41   27.00
  -4  -5   5  466.45   15.90
   4  -5  -5  461.35   15.40
  -4   5   5  442.36   14.80
  -3  -5   5  196.28    8.40
   3  -5  -5  206.38    8.30
   3   5  -5  198.08    8.50
  -3   5   5  211.68    8.20
   2  -5  -5  468.85   14.30
   2  -5  -5  474.35   11.40
  -2  -5   5  430.76   14.30
   2   5  -5  453.55   14.60
  -2   5   5  466.75   14.30
   1  -5  -5 1093.89   29.00
  -1   5   5 1103.49   29.30
   1   5  -5 1077.99   29.30
   1   5  -5 1090.59   28.30
   0  -5  -5  550.24   15.60
   0  -5   5  534.15   15.20
   0   5  -5  517.35   15.50
   0   5  -5  552.14   15.50
   1  -5   5  223.28    7.30
  -1  -5  -5  220.78    7.80
  -1   5  -5  236.28    7.80
   2  -5   5  160.88    5.70
  -2  -5  -5  165.08    6.60
  -2   5  -5  172.28    6.10
  -2   5  -5  172.18    7.20
   3  -5   5   60.99    3.10
  -3  -5  -5   65.89    4.00
  -3   5  -5   59.59    4.30
  -3   5  -5   55.59    3.10
   4  -5   5   56.99    3.30
  -4  -5  -5   57.89    4.10
  -4   5  -5   57.99    4.60
  -4   5  -5   53.69    3.20
   5  -5   5   25.70    2.90
  -5  -5  -5   22.30    3.20
  -5   5  -5   22.30    3.80
  -5   5  -5   20.10    2.40
  -6  -5  -5   13.10    3.00
  -6   5  -5    8.70    1.90
  -6   5  -5   12.00    3.30
  -7  -5  -5  132.99    7.80
  -7   5  -5  154.38    9.30
  -8  -5  -5    4.70    2.80
  -8   5  -5    5.00    3.00
  -9  -5  -5   52.99    6.20
  -9   5  -5   55.49    7.60
 -10  -5  -5   24.20    5.10
 -10   5  -5   17.80    5.30
   9  -6  -5    6.00    3.10
  -9  -6   5    2.90    3.10
  -9   6   5    4.80    3.00
  -8  -6   5    8.10    3.90
   8  -6  -5    6.00    3.00
  -8   6   5    8.00    3.30
   7  -6  -5  200.28   10.70
  -7  -6   5  187.68   10.70
  -7   6   5  191.78    9.80
  -6  -6   5   64.39    6.60
  -6   6   5   71.79    5.90
  -5  -6   5  480.55   17.50
   5  -6  -5  497.95   17.30
  -5   6   5  473.85   16.60
   4  -6  -5  220.48    9.70
  -4  -6   5  231.58   10.00
  -4   6   5  208.78    9.20
  -3  -6   5  588.94   18.90
   3  -6  -5  606.34   18.70
  -3   6   5  598.84   18.50
   3   6  -5  613.44   19.30
   2  -6  -5 1075.99   29.70
   2  -6  -5 1069.59   26.70
  -2  -6   5 1095.59   29.90
   2   6  -5 1102.69   30.40
  -2   6   5 1084.09   29.80
   1  -6  -5  741.93   20.30
   1   6  -5  684.53   20.40
   1   6  -5  692.33   19.40
  -1   6   5  679.23   20.30
   0  -6  -5    9.40    1.90
   0  -6   5    5.20    1.50
   0   6  -5    6.00    1.70
   0   6  -5    4.50    1.40
   1  -6   5   46.90    2.90
  -1  -6  -5   46.00    3.30
  -1   6  -5   34.60    3.50
  -1   6  -5   48.40    3.20
   2  -6   5   21.70    2.30
  -2  -6  -5   22.70    2.80
  -2   6  -5   20.70    3.00
  -2   6  -5   20.80    2.30
   3  -6   5   35.00    2.60
  -3  -6  -5   31.00    3.30
  -3   6  -5   29.90    3.70
  -3   6  -5   31.80    2.50
  -4  -6  -5  894.31   25.10
   4  -6   5  859.01   23.80
  -4   6  -5  854.21   23.10
  -4   6  -5  859.01   26.10
  -5  -6  -5   78.49    5.40
   5  -6   5   82.19    5.40
  -5   6  -5   79.49    6.00
  -5   6  -5   73.09    4.00
  -6  -6  -5    1.30    2.00
  -6   6  -5    1.80    2.30
  -7  -6  -5   21.30    4.00
  -7   6  -5   31.20    5.20
  -8  -6  -5   29.60    4.90
  -8   6  -5   29.80    5.40
  -9  -6  -5   33.60    5.30
  -9   6  -5   21.40    5.10
   9  -7  -5    3.20    3.10
  -9  -7   5    2.70    3.70
  -9   7   5    2.40    3.40
   8  -7  -5   12.60    3.90
  -8  -7   5   10.00    4.20
  -8   7   5    9.80    3.40
  -7  -7   5    7.80    3.50
   7  -7  -5    6.30    3.20
  -7   7   5    5.30    2.90
  -6  -7   5   54.49    6.40
  -6   7   5   51.39    6.00
   5  -7  -5   54.19    5.70
  -5  -7   5   55.89    6.00
  -5   7   5   63.59    6.10
   4  -7  -5   46.90    5.30
  -4  -7   5   53.89    5.60
  -4   7   5   66.19    6.00
  -3  -7   5   12.90    3.10
   3  -7  -5   15.90    3.10
  -3   7   5   13.30    3.00
   3   7  -5   17.80    3.50
  -2  -7   5   42.90    4.30
   2  -7  -5   49.60    4.10
   2   7  -5   52.79    4.40
  -2   7   5   46.30    4.00
   1  -7  -5    2.30    1.50
  -1  -7   5    0.90    1.50
   1   7  -5    3.20    1.60
   1   7  -5    2.80    1.40
  -1   7   5    1.90    1.60
   0  -7  -5  132.99    6.20
   0  -7   5  120.29    5.70
   0   7  -5  121.29    5.90
   0   7  -5  112.39    5.80
   1  -7   5   13.40    2.10
  -1  -7  -5   10.40    2.20
  -1   7  -5   10.60    2.20
  -1   7  -5    8.60    1.80
  -2  -7  -5  107.59    5.60
   2  -7   5   96.29    4.90
  -2   7  -5  111.79    5.10
  -2   7  -5  106.49    6.00
  -3  -7  -5   77.49    5.10
   3  -7   5   87.89    4.60
  -3   7  -5   80.49    4.40
  -3   7  -5   90.29    5.90
   4  -7   5   54.39    3.90
  -4  -7  -5   46.40    4.70
  -4   7  -5   49.00    5.30
  -4   7  -5   53.99    3.40
  -5  -7  -5  120.29    6.90
  -5   7  -5  108.29    7.40
  -6  -7  -5   -1.40    2.10
  -6   7  -5    2.20    2.40
  -7  -7  -5    2.20    2.50
  -7   7  -5   -0.40    2.40
  -8  -7  -5    1.10    2.80
  -8   7  -5    0.90    3.00
  -9  -7  -5    8.40    3.70
  -9   7  -5    2.60    3.50
  -8  -8   5   11.30    4.40
   8  -8  -5    5.40    3.40
  -8   8   5   -0.50    3.00
   7  -8  -5   27.00    5.30
  -7  -8   5   17.80    4.30
  -7   8   5   15.80    4.00
  -6  -8   5  171.28   10.00
  -6   8   5  166.58    9.50
  -5  -8   5   89.89    7.30
   5  -8  -5   95.29    7.00
  -5   8   5   89.59    6.70
  -4  -8   5   46.20    5.20
   4  -8  -5   35.50    4.90
  -4   8   5   41.80    5.00
  -3  -8   5    5.00    2.30
   3  -8  -5    5.60    2.30
  -3   8   5    4.30    2.30
  -2  -8   5  752.72   22.80
   2  -8  -5  750.12   23.00
   2   8  -5  751.72   23.50
  -2   8   5  768.22   23.30
   1  -8  -5    2.00    1.70
  -1  -8   5    0.30    1.70
   1   8  -5    2.50    1.90
  -1   8   5   -0.10    1.70
   1   8  -5    1.70    1.50
   0  -8   5  354.96   11.80
   0  -8  -5  341.17   12.10
   0   8  -5  337.77   12.20
   0   8  -5  332.07   12.10
  -1  -8  -5  676.63   20.20
   1  -8   5  699.13   19.60
  -1   8  -5  666.33   19.90
  -1   8  -5  649.74   20.60
  -2  -8  -5   -0.10    1.70
   2  -8   5   -0.80    1.10
  -2   8  -5    1.40    1.50
  -2   8  -5    0.40    2.10
  -3  -8  -5    6.30    2.60
   3  -8   5    1.90    1.80
  -3   8  -5    7.40    2.70
  -3   8  -5    7.30    1.80
  -4  -8  -5  106.29    6.60
   4  -8   5   87.49    5.30
  -4   8  -5   88.19    6.70
  -5  -8  -5    0.20    2.10
  -5   8  -5    2.30    2.90
  -6  -8  -5   17.10    3.50
  -6   8  -5   23.70    5.00
  -7  -8  -5    2.00    2.80
  -7   8  -5    3.10    3.00
  -8  -8  -5   16.20    4.10
  -8   8  -5   24.90    5.80
  -8  -9   5  124.29    9.80
   8  -9  -5  118.19    9.70
  -8   9   5  104.09    8.70
   7  -9  -5   29.10    5.60
  -7  -9   5   27.60    5.30
  -7   9   5   25.80    5.20
  -6  -9   5   10.50    3.80
   6  -9  -5    4.80    2.10
  -6   9   5    9.90    3.70
   5  -9  -5  138.59    9.10
  -5  -9   5  137.19    8.80
  -5   9   5  134.69    9.00
  -4  -9   5   16.70    3.80
   4  -9  -5   16.50    3.70
  -4   9   5   19.10    4.10
   3  -9  -5   11.90    3.10
  -3  -9   5    7.30    3.00
  -3   9   5   12.10    3.30
   2  -9  -5   70.59    5.50
  -2  -9   5   68.79    5.20
  -2   9   5   70.89    5.60
  -1  -9   5  676.83   20.90
   1  -9  -5  677.33   21.30
   1   9  -5  689.13   20.90
   1   9  -5  685.13   21.80
   0  -9   5    2.60    1.60
   0  -9  -5    2.70    2.20
   0   9  -5    1.80    1.90
   0   9  -5    4.20    2.20
   1  -9   5    6.80    2.10
  -1  -9  -5    7.90    2.40
  -1   9  -5   10.50    2.70
  -1   9  -5   10.80    2.60
   2  -9   5  187.58    8.10
  -2  -9  -5  193.58    8.80
  -2   9  -5  194.98    8.10
  -2   9  -5  183.48    9.40
  -3  -9  -5   72.89    5.50
   3  -9   5   58.79    4.80
  -3   9  -5   62.79    6.30
  -4  -9  -5   90.09    6.50
  -4   9  -5   87.19    6.80
  -5  -9  -5   43.90    5.30
  -5   9  -5   41.00    5.60
  -6  -9  -5   51.09    6.20
  -6   9  -5   56.79    7.10
  -7  -9  -5   28.80    5.20
  -7   9  -5   31.40    6.20
  -8  -9  -5   10.80    4.40
  -8   9  -5    0.00    3.30
   7 -10  -5   12.70    4.20
  -7 -10   5   21.80    5.10
  -7  10   5   13.70    4.50
   6 -10  -5   99.49    8.50
  -6 -10   5  159.98   10.20
  -6  10   5  139.59    9.30
   5 -10  -5  117.79    8.50
  -5 -10   5  121.69    8.70
  -5  10   5  102.09    8.30
   4 -10  -5    1.00    2.50
  -4 -10   5    1.70    2.60
  -4  10   5   -1.00    2.20
   3 -10  -5   42.10    5.50
  -3 -10   5   41.40    5.20
  -3  10   5   49.20    5.90
  -2 -10   5   26.70    4.00
   2 -10  -5   26.30    4.40
  -2  10   5   21.40    4.20
  -1 -10   5   56.29    4.80
   1 -10  -5   64.29    6.00
   1  10  -5   57.29    5.80
   0 -10   5  222.38    9.50
   0 -10  -5  223.78   10.00
   0  10  -5  227.48   10.20
   0  10  -5  227.68   10.20
   1 -10   5   27.60    3.80
  -1 -10  -5   26.00    3.90
  -1  10  -5   29.60    4.00
  -1  10  -5   33.90    4.60
  -2 -10  -5  390.06   14.40
   2 -10   5  392.96   13.90
  -2  10  -5  389.76   15.10
   3 -10   5   95.69    6.20
  -3 -10  -5  106.79    6.80
  -3  10  -5  104.49    7.50
  -4 -10  -5   51.29    5.70
  -4  10  -5   60.29    6.80
  -5 -10  -5   65.19    6.90
  -5  10  -5   82.99    8.40
  -6 -10  -5    3.10    2.90
  -6  10  -5    9.10    3.70
  -7 -10  -5    4.10    3.30
  -7  10  -5    4.80    3.90
   6 -11  -5    3.90    3.40
  -6 -11   5    0.30    3.10
  -6  11   5    0.80    3.10
  -5 -11   5   18.70    4.50
   5 -11  -5   23.30    5.10
  -5  11   5   19.70    4.50
  -4 -11   5    1.80    2.70
   4 -11  -5    0.60    2.40
  -4  11   5    1.60    2.90
  -3 -11   5   44.10    5.60
   3 -11  -5   47.80    6.20
  -3  11   5   45.90    6.30
  -2 -11   5   80.19    6.60
   2 -11  -5   86.89    7.10
   1 -11  -5   12.90    3.50
  -1 -11   5   11.30    3.00
   0 -11   5    8.60    2.70
   0 -11  -5   12.20    3.30
   0  11  -5    4.40    2.40
  -1 -11  -5    2.20    2.70
   1 -11   5    5.90    2.50
  -1  11  -5    7.30    3.00
   2 -11   5   82.09    6.00
  -2 -11  -5   98.09    7.10
  -2  11  -5   80.19    6.90
  -3 -11  -5    4.00    2.80
  -3  11  -5    8.90    3.70
  -4 -11  -5    4.30    3.10
  -4  11  -5    2.30    2.80
  -5 -11  -5   31.90    5.20
  -5  11  -5   23.00    5.00
  -6 -11  -5   55.59    6.60
  -6  11  -5   51.99    7.40
   5 -12  -5    5.00    3.30
  -5 -12   5    3.00    3.60
  -5  12   5    5.60    3.60
   4 -12  -5    1.40    2.60
  -4 -12   5    0.80    2.70
  -4  12   5   -3.40    2.40
   3 -12  -5    6.70    3.40
  -3 -12   5    1.40    2.90
  -3  12   5    0.80    3.00
   2 -12  -5   13.60    4.10
  -2 -12   5    6.70    3.20
  -1 -12   5   92.09    6.80
   1 -12  -5   89.69    7.10
   0 -12  -5  180.18    9.80
   0 -12   5  162.48    8.70
   0  12  -5  185.98    9.70
   1 -12   5  126.49    7.80
  -1 -12  -5  131.39    8.70
  -1  12  -5  139.29    8.90
   2 -12   5   22.50    4.20
  -2 -12  -5   23.90    4.40
  -2  12  -5   22.60    4.60
  -3 -12  -5   27.60    5.20
  -3  12  -5   20.30    4.50
  -4 -12  -5    7.60    3.30
  -4  12  -5    8.20    4.00
   3 -13  -5  124.99    9.50
  -3 -13   5  119.49    8.50
   2 -13  -5   10.20    3.90
  -2 -13   5    8.80    3.60
  -1 -13   5   -1.20    2.40
   1 -13  -5   -0.90    2.80
   0 -13   5    0.20    2.40
   0 -13  -5    7.60    3.50
  -1 -13  -5   37.80    5.80
   1 -13   5   32.40    4.80
  -1  13  -5   34.20    5.50
  -2 -13  -5   -1.10    3.10
  -2  13  -5    1.90    2.90
  10   0  -6  382.86   17.30
   9   0  -6   25.20    4.70
  -8   0   6  193.68    8.90
   8   0  -6  215.88   10.70
  -7   0   6 2019.40   52.39
   7   0  -6 2057.09   55.29
  -6   0   6   15.80    2.40
   6   0  -6   17.70    3.20
   5   0  -6   57.69    4.40
  -5   0   6   55.79    3.20
   4   0  -6 3416.36   85.19
   4   0  -6 3420.06   83.79
  -4   0   6 3393.86   82.69
  -3   0   6  651.73   16.40
   3   0  -6  640.94   18.50
   3   0  -6  623.44   17.30
   2   0  -6 1034.30   27.10
   2   0  -6 1018.90   26.10
  -2   0   6 1037.30   25.20
   1   0  -6  814.62   21.20
   0   0  -6 1572.14   38.60
   0   0  -6 1559.44   38.30
  -1   0  -6 2636.84   63.49
  -1   0  -6 2650.83   64.59
  -2   0  -6  606.84   16.80
  -2   0  -6  610.14   15.10
  -3   0  -6   58.29    3.50
  -3   0  -6   57.49    2.40
  -4   0  -6  301.17    9.00
  -4   0  -6  299.47   10.40
  -5   0  -6 2109.59   54.99
  -5   0  -6 2143.69   53.19
  -6   0  -6  114.39    5.60
  -6   0  -6  116.79    6.70
  -7   0  -6  338.87   12.00
  -7   0  -6  345.87   13.50
  -8   0  -6   19.60    3.80
  -9   0  -6   61.29    6.70
 -10   0  -6    4.10    3.40
  10  -1  -6    2.70    3.00
  10   1  -6    2.30    3.40
   9  -1  -6    9.20    3.60
   9   1  -6    5.00    3.40
   8  -1  -6   74.99    7.30
  -8   1   6   78.49    5.30
   8   1  -6   74.49    7.40
   7  -1  -6   74.79    6.30
  -7  -1   6   78.29    4.80
  -7   1   6   79.09    5.20
   7   1  -6   78.79    6.50
  -6  -1   6   27.70    2.80
   6  -1  -6   34.30    4.20
  -6   1   6   28.70    3.20
   6   1  -6   31.50    4.10
  -5  -1   6  352.56   10.70
   5  -1  -6  367.76   13.10
   5   1  -6  355.86   13.00
  -5   1   6  371.46   11.40
  -4  -1   6  382.96   10.60
   4  -1  -6  378.26   12.90
   4   1  -6  385.86   13.00
   4   1  -6  392.46   12.30
  -4   1   6  380.96   11.30
   3  -1  -6  319.27    9.20
   3  -1  -6  308.97   10.50
  -3  -1   6  320.27    8.30
  -3   1   6  308.67    9.10
   3   1  -6  316.17   10.60
   2  -1  -6 1532.25   38.40
   2  -1  -6 1570.14   39.80
   2   1  -6 1554.94   39.20
  -2   1   6 1580.94   38.40
   2   1  -6 1582.64   39.80
   1  -1  -6 2016.50   50.49
   1  -1  -6 2103.99   51.39
   1   1  -6 2146.19   51.39
   1   1  -6 2067.69   51.09
   0  -1  -6  555.54   14.40
   0   1  -6  544.75   14.70
   0   1  -6  558.34   14.30
  -1  -1  -6 4823.22  121.89
  -1  -1  -6 5151.88  121.39
  -1   1  -6 5077.19  121.09
  -1   1  -6 5067.79  120.09
  -2  -1  -6   -0.90    0.60
  -2  -1  -6   -0.10    0.50
  -2   1  -6    2.10    0.90
  -3  -1  -6   84.79    3.40
  -3  -1  -6   89.09    4.50
  -3   1  -6   98.49    4.30
  -3   1  -6   80.49    2.80
  -4  -1  -6   18.70    2.70
  -4  -1  -6   20.10    2.10
  -4   1  -6   20.30    1.60
  -4   1  -6   16.70    2.30
  -5  -1  -6   48.30    3.40
  -5  -1  -6   50.89    4.40
  -5   1  -6   48.50    3.90
  -6  -1  -6    7.90    2.00
  -6  -1  -6    8.60    2.70
  -6   1  -6    7.40    2.40
  -6   1  -6    5.50    1.90
  -7  -1  -6  244.78    9.60
  -7  -1  -6  223.58   10.80
  -7   1  -6  239.18   10.30
  -7   1  -6  218.58    8.90
  -8  -1  -6  123.29    7.00
  -8  -1  -6  142.49    8.70
  -8   1  -6  121.09    7.40
  -9  -1  -6    5.00    3.20
  -9   1  -6   10.70    3.30
 -10  -1  -6   36.50    6.00
 -10   1  -6   31.00    5.10
  10  -2  -6    5.20    2.50
   9  -2  -6    1.50    2.90
  -9   2   6    6.50    3.30
   9   2  -6    2.80    3.00
   8  -2  -6  123.69    8.20
  -8   2   6  122.69    6.90
   8   2  -6  118.39    8.10
   7  -2  -6  289.47   12.40
   7   2  -6  278.77   12.50
  -7   2   6  279.67   10.80
   6  -2  -6   96.59    6.30
  -6   2   6   85.89    5.00
   6   2  -6   98.79    6.50
   5  -2  -6   31.60    3.80
  -5   2   6   28.70    2.90
   5   2  -6   29.30    3.70
   4  -2  -6  942.91   26.60
   4   2  -6  932.01   26.60
  -4   2   6  943.31   25.10
   4   2  -6  950.90   26.30
   3  -2  -6  872.41   22.30
   3  -2  -6  903.71   24.60
  -3   2   6  888.91   23.30
   3   2  -6  886.11   24.20
   3   2  -6  882.01   24.50
   2  -2  -6   16.10    1.10
   2  -2  -6   18.90    2.20
   2   2  -6   19.20    2.10
  -2   2   6   20.40    1.90
   2   2  -6   12.00    1.70
   1  -2  -6  419.36   10.80
   1  -2  -6  408.76   11.80
   1   2  -6  413.96   10.50
   1   2  -6  406.66   11.70
   1   2  -6  407.76   11.80
   0  -2  -6  758.02   19.40
   0  -2  -6  753.22   19.40
   0  -2   6  753.42   19.20
   0   2  -6  733.03   19.60
  -1  -2  -6    5.70    1.00
  -1  -2  -6    3.70    1.20
  -1   2  -6    7.30    1.20
  -2  -2  -6  943.41   24.70
  -2  -2  -6  972.40   26.20
  -2   2  -6 1010.60   25.40
  -3  -2  -6   50.89    2.80
   3  -2   6   46.50    1.90
  -3   2  -6   54.39    3.10
  -4  -2  -6  333.87   10.30
   4  -2   6  326.87    9.20
  -4   2  -6  322.87   10.60
   5  -2   6    9.10    1.50
  -5  -2  -6    6.90    1.70
  -5   2  -6    5.80    1.80
  -6  -2  -6   96.29    5.50
   6  -2   6   85.99    4.50
  -6   2  -6   94.69    5.50
  -7  -2  -6   63.99    5.20
  -7  -2  -6   62.89    6.60
  -7   2  -6   66.89    5.20
  -8  -2  -6   28.80    4.00
  -8  -2  -6   32.10    5.20
  -8   2  -6   38.70    4.60
  -9  -2  -6   19.30    4.90
  -9   2  -6   18.10    4.30
  -9   2  -6   19.10    3.80
 -10  -2  -6   -0.10    3.20
 -10   2  -6    5.20    4.00
  10  -3  -6   34.60    5.80
 -10  -3   6   45.70    7.00
   9  -3  -6   -1.30    1.50
  -9  -3   6    2.60    3.20
  -9   3   6    5.40    2.80
   8  -3  -6   23.40    4.70
  -8   3   6   34.30    4.60
   7  -3  -6  169.08    9.30
  -7   3   6  168.58    8.10
   6  -3  -6   21.70    3.60
  -6   3   6   21.80    3.20
   6   3  -6   18.60    3.40
   5  -3  -6  211.98    9.30
  -5   3   6  208.98    8.20
   5   3  -6  215.88    9.40
   4  -3  -6  809.02   24.00
   4   3  -6  822.02   24.00
  -4   3   6  847.12   22.90
   4   3  -6  838.02   24.00
   3  -3  -6    4.40    1.50
  -3   3   6    4.40    1.30
   3   3  -6    4.00    1.40
   3   3  -6    2.90    1.30
   2  -3  -6 1259.77   30.50
  -2  -3   6 1236.58   33.10
   2  -3  -6 1280.47   33.00
   2   3  -6 1267.07   33.00
  -2   3   6 1250.67   32.30
   1  -3  -6   27.30    2.10
  -1  -3   6   21.50    2.10
   1  -3  -6   26.00    1.50
   1   3  -6   32.20    1.60
   1   3  -6   26.10    2.10
   0  -3  -6 1116.19   28.40
   0  -3   6 1109.89   28.10
   0  -3  -6 1129.19   28.30
   0   3  -6 1116.99   28.60
   0   3  -6 1084.49   28.20
   1  -3   6 1290.97   31.00
  -1  -3  -6 1250.47   31.80
  -1   3  -6 1243.38   31.90
  -2  -3  -6 3044.10   77.09
   2  -3   6 3176.08   75.89
  -2   3  -6 3233.28   77.19
  -2   3  -6 3207.08   78.49
  -3  -3  -6  116.49    5.00
   3  -3   6  121.59    4.00
  -3   3  -6  125.99    5.00
   4  -3   6  219.98    7.00
  -4  -3  -6  231.58    8.10
  -4   3  -6  230.88    8.00
   5  -3   6  221.38    7.40
  -5  -3  -6  223.28    8.50
  -5   3  -6  228.68    8.30
  -6  -3  -6  318.67   11.50
  -6   3  -6  308.27   11.00
  -6   3  -6  307.47   12.70
  -7  -3  -6  164.58    8.00
  -7   3  -6  163.18    9.40
  -7   3  -6  150.28    7.50
  -8  -3  -6    2.50    2.20
  -8   3  -6    0.30    2.30
  -8   3  -6   -0.10    1.80
  -9  -3  -6   35.40    6.00
  -9  -3  -6   48.30    5.70
  -9   3  -6   50.99    6.90
 -10  -3  -6   94.59    9.80
 -10   3  -6   94.79    9.70
 -10  -4   6    4.20    3.90
  10  -4  -6    1.40    2.80
  -9  -4   6  178.98   11.40
  -9   4   6  172.48    9.60
   8  -4  -6   88.89    7.40
  -8  -4   6  127.29    8.80
  -8   4   6  129.99    7.60
  -7  -4   6    8.20    3.40
   7  -4  -6   11.20    3.20
  -7   4   6   13.00    2.90
  -6  -4   6  202.88   10.40
   6  -4  -6  193.88    9.80
  -6   4   6  199.08    8.70
   5  -4  -6  457.35   16.20
  -5  -4   6  476.75   16.80
  -5   4   6  476.55   15.20
  -4  -4   6   17.80    3.00
   4  -4  -6   14.40    2.60
   4   4  -6   14.90    2.70
  -4   4   6   14.80    2.40
   3  -4  -6   49.20    3.60
  -3  -4   6   47.80    3.70
  -3   4   6   46.90    3.30
   3   4  -6   44.70    3.50
   2  -4  -6   31.20    1.20
  -2  -4   6   25.60    2.90
   2  -4  -6   27.50    2.90
  -2   4   6   29.60    2.80
   2   4  -6   23.40    2.80
  -1  -4   6 4084.99   97.39
   1  -4  -6 4092.59   97.49
   1  -4  -6 4060.69   95.89
   1   4  -6 3875.41   96.19
   1   4  -6 3932.61   97.59
  -1   4   6 3862.81   97.29
   0  -4  -6  134.09    5.20
   0  -4   6  130.99    5.00
   0  -4  -6  134.19    5.10
   0   4  -6  134.09    5.10
   0   4  -6  131.29    5.30
   1  -4   6   41.50    2.20
  -1  -4  -6   41.30    2.70
  -1   4  -6   40.60    2.60
   2  -4   6  174.48    5.50
  -2  -4  -6  186.68    6.60
  -2   4  -6  176.48    7.30
  -2   4  -6  177.98    6.30
   3  -4   6  409.26   11.20
  -3  -4  -6  390.76   12.30
  -3   4  -6  413.76   13.60
  -3   4  -6  400.86   11.90
  -4  -4  -6  182.48    7.30
   4  -4   6  181.38    6.20
  -4   4  -6  186.08    6.80
  -4   4  -6  182.88    8.30
   5  -4   6   41.10    2.80
  -5  -4  -6   46.70    3.80
  -5   4  -6   46.10    5.10
  -5   4  -6   42.20    3.30
  -6  -4  -6    0.90    1.90
  -6   4  -6    1.00    2.20
  -6   4  -6   -1.60    1.30
  -7  -4  -6    3.30    2.30
  -7   4  -6    0.80    2.50
  -7   4  -6    4.00    1.80
  -8  -4  -6    5.10    2.70
  -8   4  -6    3.30    2.80
  -9  -4  -6   10.70    3.50
  -9  -4  -6   15.20    4.40
  -9   4  -6    7.70    3.80
 -10  -4  -6   44.50    7.30
 -10   4  -6   42.20    6.90
 -10  -5   6    9.50    4.40
  10  -5  -6    8.40    4.10
 -10   5   6    2.70    3.30
  -9  -5   6    2.70    3.10
   9  -5  -6    4.70    3.40
  -9   5   6    9.10    3.50
  -8  -5   6   75.99    8.10
  -8   5   6   70.39    6.70
   7  -5  -6   17.40    3.90
  -7  -5   6   28.20    4.90
  -7   5   6   13.80    3.10
   6  -5  -6   58.39    6.00
  -6  -5   6   59.29    6.30
  -6   5   6   66.59    5.40
   5  -5  -6    4.80    2.30
  -5  -5   6    6.10    2.80
  -5   5   6    4.10    2.50
  -4  -5   6   26.40    3.80
   4  -5  -6   32.70    4.00
  -4   5   6   37.30    4.00
   4   5  -6   24.90    3.70
  -3  -5   6  463.55   15.10
   3  -5  -6  438.46   14.60
   3   5  -6  458.95   15.10
  -3   5   6  435.86   14.20
   2  -5  -6  148.29    6.60
   2  -5  -6  153.18    4.20
  -2  -5   6  165.18    7.00
  -2   5   6  156.98    6.60
   2   5  -6  151.28    6.90
   1  -5  -6  414.46   12.80
  -1  -5   6  358.26   12.40
   1  -5  -6  423.26   11.50
   1   5  -6  430.06   12.10
   1   5  -6  434.56   13.20
  -1   5   6  406.76   12.90
   0  -5  -6 3863.81   93.19
   0  -5   6 3765.02   92.69
   0   5  -6 3716.43   92.89
   0   5  -6 3864.31   93.39
  -1  -5  -6   75.69    3.90
   1  -5   6   80.29    3.50
  -1   5  -6   70.79    3.80
   2  -5   6  147.79    5.20
  -2  -5  -6  151.28    6.10
  -2   5  -6  146.99    5.70
  -2   5  -6  138.29    6.50
   3  -5   6  123.09    4.80
  -3  -5  -6  129.19    5.80
  -3   5  -6  133.99    5.30
  -3   5  -6  118.49    6.40
  -4  -5  -6  100.49    5.40
   4  -5   6  106.49    4.60
  -4   5  -6  111.99    4.90
  -4   5  -6  102.79    6.20
  -5  -5  -6   28.40    3.50
  -5   5  -6   31.50    4.20
  -5   5  -6   34.80    2.90
  -6  -5  -6    4.00    2.30
  -6   5  -6    7.70    3.10
  -6   5  -6    7.00    1.80
  -7  -5  -6    9.70    3.00
  -7   5  -6   11.10    3.40
  -8  -5  -6  109.99    7.40
  -8   5  -6  106.19    8.40
  -9  -5  -6   13.30    3.90
  -9   5  -6   12.90    4.30
   9  -6  -6    2.10    3.10
  -9  -6   6   -3.20    2.90
  -9   6   6    1.20    2.90
   8  -6  -6   35.60    5.70
  -8  -6   6   30.00    5.40
  -8   6   6   35.50    5.00
   7  -6  -6   31.20    5.10
  -7  -6   6   51.79    6.60
  -7   6   6   49.00    5.50
   6  -6  -6   -0.30    1.90
  -6  -6   6    5.90    2.90
  -6   6   6    2.40    2.50
   5  -6  -6  899.51   27.60
  -5  -6   6  923.01   28.10
  -5   6   6  887.31   26.70
  -4  -6   6   51.19    5.20
   4  -6  -6   62.79    5.80
  -4   6   6   53.19    4.60
   3  -6  -6    0.00    1.40
  -3  -6   6   -0.40    1.70
   3   6  -6    2.50    1.50
  -3   6   6    0.80    1.30
  -2  -6   6   44.50    4.20
   2  -6  -6   34.60    1.70
   2  -6  -6   35.20    3.60
   2   6  -6   37.30    4.00
  -2   6   6   38.90    3.80
   1  -6  -6  447.56   14.00
   1   6  -6  448.76   14.40
   1   6  -6  441.66   13.30
  -1   6   6  432.36   14.10
   0  -6   6  259.47    8.80
   0  -6  -6  265.77    9.30
   0   6  -6  247.68    9.20
   0   6  -6  250.27    9.00
  -1  -6  -6   53.59    3.50
   1  -6   6   51.89    3.10
  -1   6  -6   45.30    3.30
  -2  -6  -6   81.79    4.50
   2  -6   6   81.09    3.90
  -2   6  -6   85.39    4.20
  -2   6  -6   76.69    4.80
  -3  -6  -6  167.08    7.30
   3  -6   6  169.78    6.40
  -3   6  -6  166.78    6.50
  -3   6  -6  182.98    8.30
   4  -6   6  259.57    8.90
  -4  -6  -6  262.07   10.10
  -4   6  -6  254.37   11.00
  -4   6  -6  261.77    8.80
  -5  -6  -6    3.50    2.20
  -5   6  -6    7.30    2.70
  -5   6  -6    5.30    1.70
  -6  -6  -6   48.10    5.00
  -6   6  -6   49.00    5.80
  -7  -6  -6   -2.80    2.10
  -7   6  -6   -0.80    2.30
  -8  -6  -6   12.50    3.60
  -8   6  -6    9.40    3.80
  -9  -6  -6    3.00    3.20
  -9   6  -6    0.30    3.50
   9  -7  -6   42.80    6.70
  -9  -7   6   44.00    7.20
  -9   7   6   55.99    7.00
   8  -7  -6   20.10    4.70
  -8  -7   6   16.70    4.70
  -8   7   6   10.90    3.70
  -7  -7   6    3.20    3.20
   7  -7  -6    0.80    1.40
  -7   7   6    3.10    3.00
   6  -7  -6  384.06   15.80
  -6  -7   6  386.46   15.80
  -6   7   6  365.96   14.60
   5  -7  -6   99.89    7.20
  -5  -7   6  102.59    7.20
  -5   7   6  111.09    7.10
  -4  -7   6  272.97   11.90
   4  -7  -6  293.77   12.10
  -4   7   6  286.17   11.60
   3  -7  -6  738.73   22.70
  -3  -7   6  761.82   22.90
   3   7  -6  729.23   23.20
  -3   7   6  728.63   22.40
  -2  -7   6   22.20    3.30
   2  -7  -6   24.20    3.40
   2   7  -6   17.60    3.10
  -2   7   6   16.10    2.90
   1  -7  -6   11.00    2.20
   1   7  -6   10.40    2.30
   1   7  -6   12.20    2.10
   0  -7   6  290.27   10.10
   0  -7  -6  298.07   10.60
   0   7  -6  293.07   10.40
   0   7  -6  287.27   10.50
  -1  -7  -6  497.95   15.50
   1  -7   6  501.15   14.80
  -1   7  -6  497.25   15.40
   2  -7   6    6.20    1.60
  -2  -7  -6    3.40    1.70
  -2   7  -6    5.80    1.70
  -2   7  -6    7.30    2.30
  -3  -7  -6   77.69    5.00
   3  -7   6   77.49    4.40
  -3   7  -6   77.69    5.50
  -3   7  -6   85.99    4.50
  -4  -7  -6    1.80    1.80
   4  -7   6    6.30    1.70
  -4   7  -6    2.20    1.40
  -4   7  -6    2.40    2.20
  -5  -7  -6  388.16   14.00
  -5   7  -6  381.26   15.30
  -6  -7  -6   23.30    3.90
  -6   7  -6   19.50    4.40
  -7  -7  -6   18.90    4.00
  -7   7  -6   13.20    4.10
  -8  -7  -6   52.89    6.40
  -8   7  -6   43.30    6.60
  -9  -7  -6   69.49    7.50
  -9   7  -6   62.29    8.00
  -8  -8   6   14.30    4.40
   8  -8  -6   19.00    4.70
  -8   8   6   13.40    4.30
   7  -8  -6    1.80    1.90
  -7  -8   6    8.40    3.60
  -7   8   6   15.20    4.10
   6  -8  -6  106.29    8.20
  -6  -8   6  101.69    8.30
  -6   8   6   95.59    7.70
   5  -8  -6  431.26   16.80
  -5  -8   6  407.86   16.30
  -5   8   6  421.46   16.10
  -4  -8   6    0.80    2.20
   4  -8  -6    4.10    2.50
  -4   8   6    0.40    2.00
   3  -8  -6   81.89    5.80
  -3  -8   6   81.39    5.80
  -3   8   6   68.89    5.40
   3   8  -6   74.39    5.90
   2  -8  -6    4.10    2.20
  -2  -8   6    2.90    1.90
  -2   8   6    2.70    2.10
   2   8  -6    4.60    2.20
   1  -8  -6    4.60    1.90
  -1  -8   6    0.50    0.80
   1   8  -6   -0.90    1.60
   1   8  -6    1.10    1.50
   0  -8   6   48.30    3.80
   0  -8  -6   41.40    4.20
   0   8  -6   46.10    4.50
   0   8  -6   42.40    4.20
  -1  -8  -6    6.30    2.20
   1  -8   6    1.90    1.40
  -1   8  -6    0.70    0.80
  -1   8  -6    3.30    1.80
  -2  -8  -6  302.47   11.20
   2  -8   6  291.07   10.30
  -2   8  -6  285.17   11.60
  -2   8  -6  299.77   10.60
   3  -8   6  812.82   24.40
  -3  -8  -6  866.31   25.50
  -3   8  -6  908.11   24.30
  -3   8  -6  891.91   26.70
  -4  -8  -6   92.29    6.30
  -4   8  -6   94.39    7.20
  -5  -8  -6   27.80    4.10
  -5   8  -6   21.90    4.20
  -6  -8  -6   11.30    3.20
  -6   8  -6   20.90    4.40
  -7  -8  -6    1.10    2.80
  -7   8  -6    4.30    3.60
  -8  -8  -6    1.70    3.10
  -8   8  -6    1.20    3.70
   8  -9  -6   31.00    6.00
  -8  -9   6   30.20    6.30
  -8   9   6   31.90    6.00
   7  -9  -6    2.50    2.70
  -7  -9   6    0.70    3.40
  -7   9   6    3.20    3.10
  -6  -9   6    6.40    3.50
   6  -9  -6   -0.30    2.80
  -6   9   6    5.30    3.20
  -5  -9   6   50.89    6.40
   5  -9  -6   41.60    5.80
  -5   9   6   45.50    5.90
   4  -9  -6    1.70    2.30
  -4  -9   6   -2.00    2.30
  -4   9   6   -2.20    2.50
   3  -9  -6  152.68    8.60
  -3  -9   6  163.88    8.60
  -3   9   6  168.68    9.00
   2  -9  -6   45.00    5.10
  -2  -9   6   55.79    4.80
  -2   9   6   48.40    5.20
   2   9  -6   59.69    5.90
   1  -9  -6   77.59    5.60
   1   9  -6   92.79    6.30
   1   9  -6   86.19    5.40
   0  -9  -6  126.89    7.00
   0  -9   6  114.89    6.20
   0   9  -6  131.09    7.10
   0   9  -6  124.99    6.80
   1  -9   6  131.79    6.50
  -1  -9  -6  132.89    7.10
  -1   9  -6  133.29    6.90
   2  -9   6  191.68    8.10
  -2  -9  -6  187.58    8.70
  -2   9  -6  186.18    8.20
  -2   9  -6  183.08    9.30
  -3  -9  -6   30.50    4.00
   3  -9   6   31.20    3.80
  -3   9  -6   35.20    5.00
  -4  -9  -6   20.70    3.60
  -4   9  -6   21.60    4.20
  -5  -9  -6   -0.40    2.20
  -5   9  -6    0.60    2.50
  -6  -9  -6    4.80    3.10
  -6   9  -6    3.20    3.00
  -7  -9  -6    0.20    2.70
  -7   9  -6    3.00    4.00
   7 -10  -6    9.30    4.00
  -7 -10   6    5.80    3.80
  -7  10   6    0.20    3.10
   6 -10  -6    4.70    3.40
  -6 -10   6   -3.70    2.80
  -6  10   6    2.20    3.40
   5 -10  -6    5.80    3.20
  -5 -10   6    4.40    3.50
  -5  10   6    4.50    3.10
   4 -10  -6    3.80    2.80
  -4 -10   6    1.10    2.90
  -4  10   6    2.30    2.60
  -3 -10   6    3.30    2.70
   3 -10  -6   -5.20    1.80
  -3  10   6    0.20    2.20
  -2 -10   6  108.39    7.00
   2 -10  -6  122.29    7.50
  -2  10   6   95.19    7.00
   1 -10  -6   26.20    4.10
  -1 -10   6   22.60    3.60
   1  10  -6   26.20    4.20
   0 -10  -6  148.89    8.00
   0 -10   6  137.09    7.20
   0  10  -6  147.19    8.00
   0  10  -6  142.89    7.80
   1 -10   6   80.69    5.30
  -1 -10  -6   74.99    5.80
  -1  10  -6   74.59    5.60
   2 -10   6    2.70    2.00
  -2 -10  -6    7.30    2.70
  -2  10  -6    6.30    2.90
  -3 -10  -6   86.99    6.50
  -3  10  -6   87.19    7.30
  -4 -10  -6    0.30    2.50
  -4  10  -6    0.70    2.60
  -5 -10  -6    2.40    2.70
  -5  10  -6    0.40    2.70
  -6 -10  -6   63.79    7.00
  -6  10  -6   70.79    8.10
  -7 -10  -6    2.70    3.10
  -7  10  -6   -4.50    3.30
   6 -11  -6    9.60    4.20
  -6 -11   6   17.90    4.70
  -6  11   6   13.50    4.10
   5 -11  -6   88.49    9.40
  -5 -11   6   71.09    7.80
  -5  11   6   76.19    8.10
   4 -11  -6   48.60    6.70
  -4 -11   6   46.00    6.00
  -4  11   6   40.60    5.90
   3 -11  -6  232.18   11.90
  -3 -11   6  226.58   11.10
  -3  11   6  233.88   11.70
   2 -11  -6  335.27   14.40
  -2 -11   6  351.16   14.00
   1 -11  -6   87.49    6.60
  -1 -11   6   79.09    5.80
   0 -11   6   37.90    4.60
   0 -11  -6   41.60    5.30
   0  11  -6   36.60    4.90
   0  11  -6   41.20    5.00
  -1 -11  -6   -1.40    2.40
   1 -11   6    3.80    2.20
  -1  11  -6    2.50    1.80
   2 -11   6    9.90    2.90
  -2 -11  -6    7.00    3.30
  -2  11  -6    9.30    3.50
  -3 -11  -6    1.50    2.70
  -3  11  -6    6.80    3.20
  -4 -11  -6    5.20    2.90
  -4  11  -6   12.60    4.10
  -5 -11  -6    0.50    3.10
  -5  11  -6   -0.30    3.20
  -6 -11  -6   22.10    4.70
  -6  11  -6   22.70    5.40
  -4 -12   6  125.59    8.70
   4 -12  -6   92.89    9.50
  -4  12   6  120.49    9.20
  -3 -12   6   -0.70    2.80
   3 -12  -6    2.00    2.50
  -2 -12   6   73.29    6.30
   2 -12  -6   82.59    8.20
  -1 -12   6    2.20    2.50
   1 -12  -6    4.50    2.90
   0 -12  -6  124.39    8.50
   0 -12   6  126.79    7.70
   0  12  -6  118.39    7.80
   1 -12   6  111.79    7.30
  -1 -12  -6  122.99    8.10
  -2 -12  -6   20.40    4.30
  -2  12  -6   14.40    3.80
  -3 -12  -6    4.20    3.20
  -3  12  -6    3.30    3.10
  -4 -12  -6   31.30    5.00
  -4  12  -6   24.10    5.40
   2 -13  -6   11.40    4.20
  -2 -13   6    4.20    2.80
   1 -13  -6    7.30    3.70
  -1 -13   6    7.00    3.30
   0 -13   6   -0.30    2.50
   0 -13  -6   -1.60    2.70
  -1 -13  -6    3.80    3.10
  -1  13  -6    3.60    2.30
  -2 -13  -6    2.30    2.90
  -2  13  -6    1.80    3.20
  10   0  -7    7.70    4.00
   9   0  -7   -1.70    2.20
   8   0  -7    2.20    2.30
   7   0  -7   -2.20    2.30
  -7   0   7    1.70    1.80
   6   0  -7    2.10    1.80
  -6   0   7    0.30    1.10
   5   0  -7    4.20    1.90
  -5   0   7    1.50    1.00
  -4   0   7    1.80    0.80
   4   0  -7    1.40    1.30
   4   0  -7    1.20    1.00
   3   0  -7    0.20    0.80
  -3   0   7    0.00    0.50
   3   0  -7    0.80    0.70
   2   0  -7   -0.30    0.50
   2   0  -7   -0.60    0.40
   1   0  -7   -0.70    0.50
   1   0  -7   -0.60    0.20
   0   0  -7   -0.40    0.50
   0   0  -7   -0.80    0.40
  -1   0  -7    1.00    0.40
  -1   0  -7    0.20    0.60
  -2   0  -7   -0.40    0.60
  -2   0  -7    0.70    0.30
  -3   0  -7   -0.70    0.40
  -3   0  -7   -0.40    0.70
  -4   0  -7   -1.50    0.60
  -4   0  -7   -0.10    1.00
  -5   0  -7    2.40    2.00
  -5   0  -7    3.60    1.50
  -6   0  -7   -0.10    1.40
  -6   0  -7   -0.60    1.70
  -7   0  -7    3.30    2.60
  -7   0  -7   -0.60    1.70
  -8   0  -7    3.00    2.60
  -9   0  -7    0.20    2.80
 -10   0  -7    6.80    3.20
  10  -1  -7   41.70    6.40
  10   1  -7   45.00    7.00
   9  -1  -7   30.10    5.20
   9   1  -7   35.20    6.00
   8  -1  -7   10.20    3.60
   8   1  -7    8.60    3.40
  -8   1   7   13.20    2.80
  -7  -1   7  115.09    5.60
   7  -1  -7  126.49    7.80
   7   1  -7  129.89    8.00
  -7   1   7  101.19    5.80
  -6  -1   7  287.87    9.40
   6  -1  -7  293.67   12.20
   6   1  -7  306.57   12.40
  -6   1   7  299.57   10.20
   5  -1  -7  624.84   19.80
  -5  -1   7  635.04   16.80
  -5   1   7  634.04   17.50
   5   1  -7  602.14   19.60
  -4  -1   7  240.58    6.90
   4  -1  -7  248.78    9.60
   4  -1  -7  230.78    7.80
   4   1  -7  219.78    9.20
  -4   1   7  244.18    7.60
   4   1  -7  239.08    8.70
   3  -1  -7  245.18    7.60
  -3  -1   7  242.98    6.30
   3  -1  -7  243.48    9.00
   3   1  -7  229.98    8.80
  -3   1   7  250.27    7.40
   2  -1  -7    6.50    1.00
   2  -1  -7    6.10    1.40
   2   1  -7    4.90    1.10
  -2   1   7    7.40    1.00
   2   1  -7    7.10    1.50
   1  -1  -7  176.88    5.40
   1  -1  -7  168.98    6.00
   1   1  -7  175.28    6.00
   1   1  -7  173.58    5.90
   0  -1  -7 4358.56  106.69
   0   1  -7 4532.65  106.09
   0   1  -7 4355.36  106.49
  -1  -1  -7 5227.78  126.39
  -1  -1  -7 5109.59  127.29
  -1   1  -7 5201.38  126.09
  -1   1  -7 5393.16  125.19
  -2  -1  -7  408.36   11.00
  -2  -1  -7  424.46   12.70
  -2   1  -7  423.96   12.30
  -3  -1  -7    3.70    0.80
  -3  -1  -7    1.20    1.00
  -3   1  -7    2.70    0.50
  -3   1  -7    3.70    1.10
  -4  -1  -7  130.89    4.90
  -4  -1  -7  133.69    6.40
  -4   1  -7  123.39    5.80
  -4   1  -7  132.59    4.40
  -5  -1  -7  698.83   19.40
  -5  -1  -7  717.73   21.50
  -5   1  -7  680.43   20.70
  -5   1  -7  707.43   18.80
  -6  -1  -7  204.58    8.10
  -6  -1  -7  221.08    9.90
  -6   1  -7  222.18    9.30
  -6   1  -7  203.98    7.60
  -7  -1  -7  189.48    8.20
  -7  -1  -7  192.78   10.00
  -7   1  -7  201.48    9.40
  -8  -1  -7  153.78    9.20
  -8   1  -7  162.98    8.80
  -9  -1  -7   56.59    7.10
  -9   1  -7   55.39    6.30
 -10  -1  -7   17.20    4.70
 -10   1  -7   18.70    4.40
  10  -2  -7    2.10    3.00
   9  -2  -7   96.49    7.90
   9   2  -7  108.39    8.40
   8  -2  -7  224.98   11.60
   8   2  -7  230.78   11.70
  -8   2   7  240.58   10.00
   7  -2  -7  116.59    7.60
   7   2  -7  104.89    7.30
  -7   2   7  102.29    5.90
   6  -2  -7  259.67   11.40
  -6  -2   7  276.07    8.80
   6   2  -7  264.27   11.50
  -6   2   7  274.27    9.90
   5  -2  -7  257.87   10.60
  -5  -2   7  268.77    7.90
  -5   2   7  261.27    9.10
   5   2  -7  259.27   10.70
   4  -2  -7  145.79    6.90
  -4  -2   7  137.09    4.30
   4   2  -7  134.59    6.60
  -4   2   7  142.49    5.60
   4   2  -7  146.39    6.50
   3  -2  -7 2632.04   65.49
   3  -2  -7 2742.83   67.99
   3   2  -7 2705.93   67.49
   3   2  -7 2749.02   67.89
  -3   2   7 2693.73   66.29
   2  -2  -7  200.68    7.40
   2  -2  -7  205.38    6.00
   2   2  -7  206.88    7.30
   2   2  -7  201.58    7.30
  -2   2   7  198.88    6.50
   1  -2  -7  303.47    9.60
   1  -2  -7  318.67    8.80
   1   2  -7  297.37    9.40
   1   2  -7  333.27    9.80
   1   2  -7  318.87    8.30
   0  -2  -7  142.69    5.00
   0  -2  -7  145.99    5.00
   0   2  -7  136.79    4.60
   0   2  -7  136.79    5.10
   1  -2   7  154.18    4.30
  -1  -2  -7  152.58    5.70
  -1  -2  -7  148.19    5.00
  -1   2  -7  152.58    5.40
  -2  -2  -7    7.70    1.70
  -2  -2  -7    8.30    1.30
  -2   2  -7    6.90    1.30
  -3  -2  -7  450.65   12.80
  -3  -2  -7  452.65   14.50
  -3   2  -7  468.05   13.50
  -4  -2  -7   12.20    2.30
  -4  -2  -7   13.20    1.90
   4  -2   7   12.00    1.20
  -4   2  -7    9.90    1.80
  -5  -2  -7  274.77   11.10
   5  -2   7  260.47    8.10
  -5  -2  -7  273.67    9.20
  -5   2  -7  257.57    9.70
  -6  -2  -7  350.16   11.70
  -6  -2  -7  331.97   13.50
  -6   2  -7  333.27   12.10
  -7  -2  -7  574.04   20.20
  -7  -2  -7  580.44   18.00
  -7   2  -7  564.34   18.50
  -8  -2  -7    9.80    3.20
  -8  -2  -7   12.30    2.90
  -8   2  -7   15.30    3.30
  -9  -2  -7   60.89    7.30
  -9   2  -7   48.50    5.60
 -10  -2  -7    7.90    4.00
 -10   2  -7   -0.60    3.40
  10  -3  -7    3.90    3.30
 -10  -3   7   -3.20    2.90
  -9  -3   7   95.89    9.50
   9  -3  -7   82.09    8.40
  -9   3   7   89.59    7.70
   8  -3  -7   10.90    3.50
  -8   3   7   11.30    2.90
   7  -3  -7   37.10    5.20
  -7   3   7   35.60    4.20
   7   3  -7   36.70    5.00
   6  -3  -7   75.69    6.00
  -6   3   7   79.09    4.90
   6   3  -7   75.79    5.80
   5  -3  -7  239.48   10.10
   5   3  -7  222.38    9.90
  -5   3   7  226.28    8.60
   4  -3  -7  146.19    7.10
   4   3  -7  143.19    7.00
  -4   3   7  150.48    6.20
   4   3  -7  151.78    7.00
   3  -3  -7   17.90    1.10
   3  -3  -7   12.40    2.30
  -3   3   7   19.80    2.30
   3   3  -7   13.30    2.20
   3   3  -7   18.30    2.50
   2  -3  -7 5593.24  130.49
   2  -3  -7 4846.02  128.29
   2   3  -7 5615.54  130.29
   2   3  -7 5442.46  130.29
  -2   3   7 5301.77  129.49
   1  -3  -7 1197.98   31.10
  -1  -3   7 1188.68   31.00
   1  -3  -7 1211.68   29.80
   1   3  -7 1188.68   29.70
   1   3  -7 1209.38   31.30
   0  -3  -7  280.17    8.90
   0  -3  -7  299.47    8.90
   0  -3   7  295.57    8.70
   0   3  -7  296.37    8.80
   0   3  -7  297.07    9.20
  -1  -3  -7 1216.98   30.80
   1  -3   7 1223.18   29.80
  -1   3  -7 1207.08   31.50
  -1   3  -7 1199.98   31.00
  -2  -3  -7  512.25   15.90
  -2  -3  -7  534.75   14.70
   2  -3   7  541.85   13.30
  -2   3  -7  527.85   14.90
   3  -3   7 1338.07   32.90
  -3  -3  -7 1321.37   34.40
  -3   3  -7 1382.56   34.70
   4  -3   7   42.30    2.20
  -4  -3  -7   44.60    3.10
  -4   3  -7   45.50    3.10
   5  -3   7   19.80    1.90
  -5  -3  -7   18.70    2.60
  -5   3  -7   20.40    2.70
  -6  -3  -7    0.00    1.70
  -6   3  -7   -0.20    1.70
  -7  -3  -7   56.89    4.80
  -7  -3  -7   49.70    6.10
  -7   3  -7   62.79    4.80
  -7   3  -7   57.39    6.40
  -8  -3  -7   41.90    4.80
  -8  -3  -7   42.60    6.10
  -8   3  -7   30.60    5.10
  -8   3  -7   40.20    4.70
  -9  -3  -7    3.90    3.60
  -9   3  -7    3.40    2.80
 -10  -3  -7   52.09    7.50
 -10   3  -7   59.89    7.80
  10  -4  -7    4.30    2.50
 -10  -4   7    5.10    4.00
  -9  -4   7   43.30    6.80
   9  -4  -7   35.70    5.90
  -9   4   7   39.10    5.30
   8  -4  -7    0.40    2.70
  -8  -4   7   -1.00    2.80
  -8   4   7   -1.40    2.10
   7  -4  -7   26.80    4.60
  -7  -4   7   27.00    4.70
  -7   4   7   28.60    4.00
  -6  -4   7   38.60    5.20
   6  -4  -7   28.30    4.30
  -6   4   7   36.00    4.20
   5  -4  -7 1223.98   35.00
  -5  -4   7 1245.18   35.50
  -5   4   7 1217.38   33.40
  -4  -4   7   32.40    3.90
   4  -4  -7   36.40    4.00
  -4   4   7   39.60    3.70
   4   4  -7   32.50    3.80
   3  -4  -7  215.48    8.70
  -3  -4   7  218.78    8.90
  -3   4   7  226.18    8.20
   3   4  -7  230.08    9.00
   2  -4  -7  995.00   27.20
  -2  -4   7  994.10   27.40
   2  -4  -7 1025.40   24.60
   2   4  -7  981.50   27.40
  -2   4   7 1009.80   26.80
   1  -4  -7   21.70    2.40
  -1  -4   7   16.00    2.10
   1  -4  -7   19.20    1.60
   1   4  -7   18.70    2.30
   1   4  -7   22.90    1.80
   0  -4  -7  477.25   13.30
   0  -4  -7  442.36   13.00
   0  -4   7  445.56   12.80
   0   4  -7  440.86   13.00
   0   4  -7  459.65   13.50
  -1  -4  -7  269.77    8.60
   1  -4   7  258.27    7.70
  -1   4  -7  269.47    8.70
  -1   4  -7  254.17    8.90
   2  -4   7 1088.79   27.40
  -2  -4  -7 1080.79   28.70
  -2   4  -7 1154.28   30.10
  -2   4  -7 1097.49   28.70
   3  -4   7  721.53   18.50
  -3  -4  -7  721.33   20.00
  -3   4  -7  731.83   19.70
  -3   4  -7  698.13   21.30
   4  -4   7    3.50    1.00
  -4  -4  -7    4.90    1.50
  -4   4  -7    3.40    1.30
  -4   4  -7    3.30    1.70
  -5  -4  -7  133.89    6.30
  -5   4  -7  132.49    6.00
  -5   4  -7  122.09    7.40
  -6  -4  -7   85.99    5.50
  -6   4  -7   90.49    5.10
  -6   4  -7   91.99    6.60
  -7  -4  -7    1.40    2.00
  -7   4  -7    0.70    2.20
  -7   4  -7   -1.70    1.40
  -8  -4  -7    1.80    2.40
  -8  -4  -7    8.30    2.70
  -8   4  -7    5.80    3.10
  -9  -4  -7   23.30    5.30
  -9  -4  -7   33.70    5.90
  -9   4  -7   27.20    5.40
 -10  -4  -7   14.10    4.60
 -10   4  -7   12.70    4.60
  10  -5  -7    1.20    3.20
 -10  -5   7    3.20    4.20
  -9  -5   7    9.60    4.20
  -9   5   7   13.50    3.70
   8  -5  -7   35.00    5.80
  -8  -5   7   33.30    6.10
  -8   5   7   29.90    4.90
  -7  -5   7    2.70    2.80
   7  -5  -7    1.30    2.40
  -7   5   7    7.40    2.80
   6  -5  -7   57.39    6.10
  -6  -5   7   72.49    7.20
  -6   5   7   70.09    5.40
  -5  -5   7   94.79    6.70
   5  -5  -7  103.69    6.80
  -5   5   7   98.09    6.10
  -4  -5   7 1489.55   41.60
   4  -5  -7 1527.75   41.40
   4   5  -7 1532.25   41.80
  -4   5   7 1519.25   40.40
   3  -5  -7  214.58    8.90
  -3  -5   7  210.38    9.00
  -3   5   7  217.08    8.40
   3   5  -7  209.28    9.00
   2  -5  -7  454.55   11.40
  -2  -5   7  444.96   14.30
   2  -5  -7  450.15   14.30
  -2   5   7  440.66   13.90
   2   5  -7  432.06   14.40
   1  -5  -7   38.40    2.30
   1  -5  -7   38.90    3.10
  -1  -5   7   34.90    2.90
   1   5  -7   43.00    2.60
   1   5  -7   36.10    3.00
   0  -5   7    5.00    1.40
   0  -5  -7    5.80    1.40
   0  -5  -7    3.50    1.30
   0   5  -7    4.50    1.30
   0   5  -7    5.30    1.60
  -1  -5  -7  404.96   12.30
   1  -5   7  409.86   11.50
  -1   5  -7  396.86   12.70
  -1   5  -7  378.66   12.10
  -2  -5  -7  123.19    5.40
   2  -5   7  125.39    4.60
  -2   5  -7  126.49    5.30
  -2   5  -7  127.09    6.20
   3  -5   7   39.00    2.30
  -3  -5  -7   39.30    3.10
  -3   5  -7   32.20    2.70
  -3   5  -7   26.50    3.40
   4  -5   7   35.90    2.50
  -4  -5  -7   36.80    3.70
  -4   5  -7   36.40    2.90
  -4   5  -7   36.80    4.40
  -5  -5  -7   23.50    3.20
  -5   5  -7   26.70    3.00
  -5   5  -7   27.00    4.10
  -6  -5  -7   28.80    4.00
  -6   5  -7   31.60    3.40
  -6   5  -7   36.80    5.20
  -7  -5  -7   44.00    5.00
  -7   5  -7   53.59    6.60
  -8  -5  -7   -0.10    2.30
  -8   5  -7    2.40    2.70
  -9  -5  -7   11.30    3.80
  -9  -5  -7    6.00    4.00
  -9   5  -7    6.20    3.70
   9  -6  -7   -1.80    2.10
  -9  -6   7    5.80    3.90
  -9   6   7   -1.90    2.30
  -8  -6   7   -1.90    2.50
   8  -6  -7   -1.60    2.10
  -8   6   7    2.10    2.60
  -7  -6   7  195.38   11.20
   7  -6  -7  192.18   10.60
  -7   6   7  170.78    9.20
   6  -6  -7  138.49    8.50
  -6  -6   7  142.19    8.90
  -6   6   7  139.49    7.80
   5  -6  -7    9.30    2.90
  -5  -6   7    1.00    2.20
  -5   6   7    2.30    2.40
   4  -6  -7  236.18   10.30
  -4  -6   7  223.48   10.20
   4   6  -7  221.38   10.30
  -4   6   7  229.58    9.70
   3  -6  -7   72.39    5.10
  -3  -6   7   79.59    5.30
  -3   6   7   69.09    4.70
   3   6  -7   69.19    5.00
   2  -6  -7  361.46   12.50
  -2  -6   7  355.06   12.50
   2  -6  -7  367.06    9.60
  -2   6   7  375.96   12.60
   2   6  -7  354.56   12.80
   1  -6  -7   75.99    3.50
  -1  -6   7   79.69    4.40
   1  -6  -7   73.89    4.50
   1   6  -7   79.39    4.80
   1   6  -7   80.99    4.10
   0  -6   7  133.49    5.60
   0  -6  -7  127.19    5.90
   0   6  -7  135.09    6.20
   0   6  -7  126.79    5.70
  -1  -6  -7  796.02   22.30
   1  -6   7  792.12   21.30
  -1   6  -7  784.42   22.60
  -1   6  -7  797.42   22.30
  -2  -6  -7  186.08    7.50
   2  -6   7  183.68    6.60
  -2   6  -7  175.88    7.10
  -2   6  -7  207.98    8.40
  -3  -6  -7  246.68    9.40
   3  -6   7  253.97    8.40
  -3   6  -7  268.27    9.00
  -3   6  -7  263.07   10.70
  -4  -6  -7  243.18    9.70
  -4   6  -7  271.07   11.20
  -4   6  -7  254.07    8.90
  -5  -6  -7  191.68    8.50
  -5   6  -7  176.38    7.20
  -5   6  -7  172.18    9.30
  -6  -6  -7   23.80    3.60
  -6   6  -7   20.90    4.40
  -7  -6  -7   28.50    4.50
  -7   6  -7   27.50    5.30
  -8  -6  -7   54.19    6.20
  -8   6  -7   62.69    7.60
  -9  -6  -7   -2.20    2.70
  -9   6  -7   -2.20    3.40
  -9  -7   7    4.20    3.70
   9  -7  -7    0.50    3.20
  -9   7   7    4.10    3.20
  -8  -7   7   14.60    4.40
  -8   7   7   14.80    3.80
  -7  -7   7   -2.40    2.30
   7  -7  -7    2.30    3.00
  -7   7   7    3.30    2.70
  -6  -7   7   76.79    7.90
   6  -7  -7   74.19    7.40
  -6   7   7   77.59    6.20
   5  -7  -7   45.40    5.90
  -5  -7   7   45.50    5.50
  -5   7   7   48.80    5.40
  -4  -7   7    4.30    2.50
   4  -7  -7    3.90    2.10
   4   7  -7    0.70    2.10
  -4   7   7    0.60    2.00
   3  -7  -7    5.50    2.30
  -3  -7   7    2.00    2.10
  -3   7   7    1.30    1.80
   3   7  -7    1.40    1.70
  -2  -7   7  148.09    7.10
   2  -7  -7  132.09    7.00
   2   7  -7  133.99    7.30
  -2   7   7  139.89    7.20
   1  -7  -7  199.48    8.40
   1  -7  -7  197.98    7.00
  -1  -7   7  185.38    8.00
   1   7  -7  202.78    8.70
   1   7  -7  202.78    7.70
   0  -7   7  155.58    6.60
   0  -7  -7  151.18    6.90
   0   7  -7  148.19    6.70
   0   7  -7  146.59    7.00
  -1  -7  -7   24.00    3.20
   1  -7   7   24.70    2.70
  -1   7  -7   20.30    2.90
  -1   7  -7   17.50    2.70
   2  -7   7  158.88    6.50
  -2  -7  -7  166.88    7.40
  -2   7  -7  169.98    8.00
  -2   7  -7  170.38    7.10
  -3  -7  -7   36.10    4.00
   3  -7   7   36.60    3.40
  -3   7  -7   34.70    4.20
  -3   7  -7   35.10    3.40
  -4  -7  -7  140.69    7.20
  -4   7  -7  134.99    6.10
  -4   7  -7  126.89    7.80
  -5  -7  -7   40.60    4.80
  -5   7  -7   29.20    4.80
  -6  -7  -7  100.49    6.80
  -6   7  -7   92.29    7.30
  -7  -7  -7   14.00    3.60
  -7   7  -7   12.80    3.90
  -8  -7  -7    3.40    3.00
  -8   7  -7    5.30    3.90
  -9  -7  -7    9.70    4.00
  -9   7  -7    7.30    4.10
  -8  -8   7   26.80    5.50
  -8   8   7   49.00    6.40
  -7  -8   7   22.80    5.10
   7  -8  -7   28.60    5.50
  -7   8   7   23.30    4.40
  -6  -8   7   16.60    4.60
   6  -8  -7    6.60    3.10
  -6   8   7    9.70    3.30
  -5  -8   7   44.90    5.90
   5  -8  -7   37.50    5.40
  -5   8   7   29.00    4.50
  -4  -8   7  142.49    8.50
   4  -8  -7  138.39    8.30
  -4   8   7  148.99    8.10
  -3  -8   7  258.07   10.90
   3  -8  -7  232.98   10.60
   3   8  -7  242.18   11.10
  -3   8   7  238.38   10.60
  -2  -8   7   43.10    4.40
   2  -8  -7   50.99    5.10
   2   8  -7   47.60    5.10
  -2   8   7   54.49    5.40
   1  -8  -7   21.40    3.50
  -1  -8   7   20.20    3.10
   1   8  -7   21.90    3.50
   1   8  -7   28.80    3.50
   0  -8   7  218.38    8.60
   0  -8  -7  213.38    9.20
   0   8  -7  227.98    9.50
   0   8  -7  226.88    9.20
  -1  -8  -7   82.89    5.20
   1  -8   7   78.69    4.50
  -1   8  -7   70.09    4.80
  -1   8  -7   76.89    5.30
  -2  -8  -7  799.82   23.20
   2  -8   7  762.72   22.10
  -2   8  -7  809.02   24.20
  -2   8  -7  772.52   22.60
   3  -8   7    6.70    2.00
  -3  -8  -7    7.10    2.40
  -3   8  -7    7.20    2.20
  -3   8  -7   11.10    3.00
  -4  -8  -7  359.46   13.30
  -4   8  -7  353.36   14.60
  -5  -8  -7   78.59    6.20
  -5   8  -7   83.09    6.80
  -6  -8  -7   16.50    3.60
  -6   8  -7   18.30    4.60
  -7  -8  -7    9.60    3.40
  -7   8  -7    8.60    4.40
  -8  -8  -7   45.20    6.00
  -8   8  -7   42.70    6.90
   8  -9  -7   15.70    4.90
  -8  -9   7   11.20    4.90
  -8   9   7   15.70    4.90
   7  -9  -7   66.59    8.40
  -7  -9   7   65.49    8.10
  -7   9   7   55.49    6.80
   6  -9  -7    1.60    2.70
  -6  -9   7   -5.00    2.70
  -6   9   7    3.40    3.20
  -5  -9   7  106.09    8.00
   5  -9  -7  136.19    9.20
  -5   9   7  129.79    8.60
   4  -9  -7  296.77   13.50
  -4  -9   7  302.37   13.20
  -4   9   7  301.07   12.80
   3  -9  -7   16.70    3.70
  -3  -9   7   18.30    3.80
  -3   9   7   15.50    3.60
   3   9  -7   27.40    4.70
   2  -9  -7    0.70    2.00
  -2  -9   7    2.20    2.10
  -2   9   7    1.10    2.10
   2   9  -7    1.40    2.30
  -1  -9   7   13.30    2.80
   1  -9  -7   17.10    3.30
   1   9  -7   23.00    3.90
   1   9  -7   23.70    3.50
   0  -9   7   10.60    2.50
   0  -9  -7   10.30    2.60
   0   9  -7   10.10    2.80
   0   9  -7    4.20    2.10
   1  -9   7   85.29    5.00
  -1  -9  -7   71.89    5.40
  -1   9  -7   69.69    5.50
  -1   9  -7   86.79    5.60
  -2  -9  -7  495.25   16.00
   2  -9   7  436.06   14.70
  -2   9  -7  438.26   15.00
  -2   9  -7  470.05   16.60
  -3  -9  -7   36.60    4.50
  -3   9  -7   25.70    4.30
  -4  -9  -7   11.20    3.00
  -4   9  -7   11.20    3.70
  -5  -9  -7    1.80    2.40
  -5   9  -7    2.00    2.80
  -6  -9  -7   -3.30    2.70
  -6   9  -7   -1.10    2.60
  -7  -9  -7   66.89    7.00
  -7   9  -7   61.49    7.80
   7 -10  -7    0.70    2.70
  -7 -10   7    2.40    3.20
  -7  10   7    1.10    3.50
  -6 -10   7   95.79    9.10
   6 -10  -7   88.79    9.40
  -6  10   7   72.59    7.70
   5 -10  -7  126.69    9.20
  -5 -10   7  129.39    9.20
  -5  10   7  129.39    8.90
  -4 -10   7    3.30    3.00
   4 -10  -7    2.80    2.90
  -4  10   7    4.00    3.10
  -3 -10   7    5.80    3.00
   3 -10  -7    5.80    2.80
  -3  10   7    3.50    2.50
   2 -10  -7    8.90    3.00
  -2 -10   7    6.10    2.80
   2  10  -7    9.10    3.00
  -1 -10   7   39.30    4.50
   1 -10  -7   63.59    6.20
   1  10  -7   64.99    6.40
   1  10  -7   72.19    5.20
   0 -10   7   63.69    4.90
   0 -10  -7   57.19    5.70
   0  10  -7   67.79    5.30
   0  10  -7   66.29    5.60
  -1 -10  -7   37.90    4.70
   1 -10   7   43.70    4.60
  -1  10  -7   37.80    4.60
  -1  10  -7   38.10    4.90
   2 -10   7  136.39    7.00
  -2 -10  -7  134.19    8.00
  -2  10  -7  132.29    8.20
  -2  10  -7  123.49   10.00
  -3 -10  -7   74.09    5.80
  -3  10  -7   76.69    6.50
  -4 -10  -7    5.70    2.70
  -4  10  -7    6.70    3.40
  -5 -10  -7   15.50    4.00
  -5  10  -7   13.00    3.90
  -6 -10  -7   59.69    6.60
  -6  10  -7   65.29    8.00
   6 -11  -7   10.70    4.50
  -6 -11   7   11.50    4.10
  -6  11   7   17.70    4.80
   5 -11  -7   11.50    4.20
  -5 -11   7   11.70    4.00
  -5  11   7    9.70    3.80
  -4 -11   7   -3.00    2.30
   4 -11  -7    0.90    2.80
  -4  11   7    0.60    2.90
   3 -11  -7   47.10    6.20
  -3 -11   7   52.89    6.00
  -3  11   7   69.19    7.30
   2 -11  -7    1.50    2.60
  -2 -11   7    3.60    2.80
   1 -11  -7  137.39    8.50
   1  11  -7  135.19    8.60
   0 -11  -7   17.00    3.90
   0 -11   7   17.10    3.20
   0  11  -7   15.00    3.40
   0  11  -7   13.10    3.40
  -1 -11  -7   50.19    5.90
   1 -11   7   56.99    5.40
  -1  11  -7   37.90    5.10
  -2 -11  -7   43.90    5.40
  -2  11  -7   39.10    5.40
  -3 -11  -7    2.80    2.60
  -3  11  -7    4.50    3.20
  -4 -11  -7    2.30    2.50
  -4  11  -7    2.40    3.20
  -5 -11  -7   21.70    4.40
  -5  11  -7   32.60    6.00
  -4 -12   7    8.50    3.80
   4 -12  -7    2.40    3.50
  -4  12   7    6.50    3.60
  -3 -12   7   -0.70    2.50
   3 -12  -7   -0.30    2.80
   2 -12  -7    4.70    3.20
  -2 -12   7    7.30    3.40
   1 -12  -7   24.70    5.00
   0 -12   7   18.10    3.50
   0 -12  -7   13.80    3.70
   0  12  -7   20.20    4.00
  -1 -12  -7   60.49    6.80
   1 -12   7   76.09    6.10
  -1  12  -7   69.69    7.10
  -2 -12  -7  119.19    8.40
  -2  12  -7  114.79    8.40
  -3 -12  -7   24.00    4.90
  -3  12  -7   31.50    5.40
  -4 -12  -7    9.60    3.70
  -4  12  -7   22.70    5.40
   2 -13  -7    4.90    3.10
  -2 -13   7    9.70    3.60
   1 -13  -7   -2.80    2.50
  -1 -13   7    1.60    1.60
   0 -13   7   53.49    5.90
   0 -13  -7   52.49    6.80
  -1 -13  -7    6.00    3.60
  -1  13  -7    3.30    3.20
  -2 -13  -7    9.30    3.70
  -2  13  -7   17.10    4.50
  10   0  -8  184.88   12.00
   9   0  -8  120.09    9.00
   8   0  -8   13.50    3.60
  -7   0   8   23.60    2.90
   7   0  -8   14.90    3.60
  -6   0   8  122.89    5.30
   6   0  -8  136.89    7.70
   5   0  -8 1877.81   49.50
  -5   0   8 1829.72   46.00
  -4   0   8  186.58    5.80
   4   0  -8  178.78    6.90
   4   0  -8  192.18    8.20
   3   0  -8   78.39    4.40
   3   0  -8   76.39    3.70
  -3   0   8   72.59    2.70
   2   0  -8  972.20   26.40
   2   0  -8 1000.20   25.50
   1   0  -8    7.90    1.30
   0   0  -8 4569.84  106.09
   0   0  -8 4242.08  106.39
  -1   0  -8   28.40    2.10
  -1   0  -8   30.30    1.50
  -2   0  -8  149.39    4.30
  -2   0  -8  153.18    5.90
  -3   0  -8  195.68    5.60
  -3   0  -8  203.98    7.60
  -4   0  -8  306.87    8.80
  -4   0  -8  309.57   10.90
  -5   0  -8 3049.89   73.59
  -5   0  -8 2964.10   76.19
  -6   0  -8  543.45   15.90
  -6   0  -8  558.04   18.30
  -7   0  -8  111.69    7.40
  -8   0  -8   34.10    5.00
  -9   0  -8   30.70    5.10
 -10   0  -8   15.10    4.50
  10  -1  -8   23.00    5.40
  10   1  -8   12.90    4.30
   9  -1  -8   31.90    5.40
   9   1  -8   31.40    5.70
   8  -1  -8   12.20    3.50
   8   1  -8   12.70    3.70
   7  -1  -8  139.39    8.50
  -7   1   8  124.39    6.10
   7   1  -8  125.49    8.10
   6  -1  -8  194.48    9.60
  -6  -1   8  204.28    7.00
   6   1  -8  224.88   10.20
  -6   1   8  201.08    7.70
  -5  -1   8   58.69    2.80
   5  -1  -8   62.49    5.00
   5   1  -8   68.59    5.00
   5   1  -8   70.39    4.50
  -5   1   8   65.09    3.50
   4  -1  -8 1394.06   35.90
  -4  -1   8 1412.36   34.30
   4  -1  -8 1413.26   38.10
  -4   1   8 1414.06   35.40
   4   1  -8 1401.46   36.90
   4   1  -8 1397.66   38.00
   3  -1  -8  535.25   16.50
   3  -1  -8  559.14   15.00
  -3   1   8  548.75   14.50
   3   1  -8  536.45   16.50
   2  -1  -8  777.52   20.20
   2  -1  -8  776.32   21.50
   2   1  -8  787.72   21.00
   2   1  -8  770.52   21.40
   1  -1  -8 4813.32  123.99
   1  -1  -8 5120.39  123.69
   1   1  -8 5112.29  123.49
   1   1  -8 5416.16  123.79
   0  -1  -8  394.06   11.10
   0   1  -8  397.06   10.90
   0   1  -8  400.36   11.40
  -1  -1  -8  217.48    6.40
  -1  -1  -8  208.28    7.20
  -1   1  -8  220.88    7.20
  -1   1  -8  216.68    5.90
  -2  -1  -8  112.09    3.70
  -2  -1  -8  113.49    5.00
  -2   1  -8  108.79    4.70
  -3  -1  -8   38.90    3.00
  -3  -1  -8   33.10    1.90
  -3   1  -8   35.80    1.20
  -3   1  -8   39.30    2.80
  -4  -1  -8  547.95   14.90
  -4  -1  -8  546.05   17.10
  -4   1  -8  550.34   14.10
  -4   1  -8  542.75   16.60
  -5  -1  -8   36.90    4.30
  -5  -1  -8   38.70    3.10
  -5   1  -8   38.10    4.10
  -5   1  -8   38.30    2.50
  -6  -1  -8   21.00    4.10
  -6  -1  -8   21.20    2.70
  -6   1  -8   24.50    3.70
  -6   1  -8   27.20    2.70
  -7  -1  -8  183.18    7.80
  -7  -1  -8  186.08    9.90
  -7   1  -8  172.98    8.90
  -8  -1  -8    3.90    2.80
  -8   1  -8    2.40    2.40
  -9  -1  -8   26.20    5.10
  -9   1  -8   30.60    4.90
 -10  -1  -8   12.30    4.30
 -10   1  -8   10.90    3.90
  10  -2  -8   62.49    8.00
  10   2  -8   57.19    7.80
   9  -2  -8    2.40    3.30
   9   2  -8    1.40    3.00
   8  -2  -8   51.49    6.20
   8   2  -8   29.50    5.00
  -8   2   8   45.90    4.70
   7  -2  -8  789.72   25.70
   7   2  -8  794.02   25.70
  -7   2   8  776.32   22.80
   6  -2  -8  190.08    9.50
  -6   2   8  187.68    7.60
   6   2  -8  181.38    9.30
  -5  -2   8  199.38    6.00
   5  -2  -8  215.08    9.40
   5   2  -8  195.58    9.00
  -5   2   8  189.68    7.30
   5   2  -8  179.78    8.30
   4  -2  -8   10.40    2.20
   4  -2  -8   11.40    1.50
  -4  -2   8   11.00    0.70
  -4   2   8    8.10    1.60
   4   2  -8    8.00    2.10
   4   2  -8   14.70    2.40
   3  -2  -8   95.99    5.10
   3  -2  -8   93.39    3.60
   3   2  -8   97.49    4.90
  -3   2   8   94.69    4.10
   3   2  -8   91.19    5.00
   2  -2  -8  763.82   19.80
   2  -2  -8  773.72   21.50
  -2   2   8  788.62   20.30
   2   2  -8  770.42   21.20
   2   2  -8  773.12   21.40
   1  -2  -8 1644.64   40.70
   1  -2  -8 1617.84   41.60
   1   2  -8 1654.53   41.50
   1   2  -8 1677.83   40.20
   1   2  -8 1649.73   41.70
   0  -2  -8  697.83   18.80
   0  -2  -8  725.23   19.00
   0   2  -8  708.93   19.20
   0   2  -8  722.23   18.50
  -1  -2  -8  830.92   22.20
   1  -2   8  813.82   20.30
  -1  -2  -8  823.72   21.20
  -1   2  -8  818.22   21.80
  -2  -2  -8 1244.78   33.10
  -2  -2  -8 1219.68   31.30
  -2   2  -8 1301.17   32.50
  -3  -2  -8   69.29    3.20
  -3  -2  -8   70.19    4.30
  -3   2  -8   68.09    3.80
  -4  -2  -8  117.49    6.30
  -4  -2  -8  130.09    5.10
  -4   2  -8  121.79    3.80
  -4   2  -8  120.89    5.70
  -5  -2  -8  281.37   11.30
  -5  -2  -8  289.37    9.50
  -5   2  -8  266.87    8.10
  -5   2  -8  272.37   10.10
  -6  -2  -8    1.60    2.30
  -6  -2  -8   -0.40    1.70
  -6   2  -8    2.10    1.90
  -7  -2  -8   30.90    3.70
  -7  -2  -8   28.40    4.60
  -7   2  -8   25.30    3.90
  -8  -2  -8  138.59    9.00
  -8   2  -8  123.49    7.50
  -9  -2  -8   23.70    5.00
  -9   2  -8   26.10    4.50
 -10  -2  -8   -2.00    2.70
 -10   2  -8    0.00    3.10
 -10  -3   8   10.70    4.50
  10  -3  -8   12.30    4.20
   9  -3  -8   10.80    3.90
   8  -3  -8   76.89    7.80
  -8   3   8   80.89    5.80
   8   3  -8   95.39    7.40
   7  -3  -8   29.00    4.70
  -7   3   8   36.80    4.10
   7   3  -8   33.80    5.10
   6  -3  -8   13.70    3.20
   6   3  -8    8.20    2.70
  -6   3   8    7.10    2.20
   5  -3  -8  361.16   13.50
  -5   3   8  355.06   11.80
   5   3  -8  352.86   13.10
   5   3  -8  344.27   13.20
   4  -3  -8  374.66   13.50
  -4   3   8  397.76   12.20
   4   3  -8  390.96   13.50
   4   3  -8  378.76   13.30
   3  -3  -8  294.17   10.70
   3  -3  -8  294.17    8.30
  -3   3   8  314.57    9.80
   3   3  -8  313.87   10.90
   3   3  -8  301.77   10.60
   2  -3  -8 1018.90   25.60
   2  -3  -8 1036.80   27.90
   2   3  -8 1020.10   27.70
   2   3  -8 1021.80   27.80
  -2   3   8 1063.59   27.10
  -1  -3   8  746.83   20.80
   1  -3  -8  747.13   20.90
   1  -3  -8  775.72   19.80
   1   3  -8  796.92   21.30
   1   3  -8  769.62   19.50
   0  -3   8   63.09    3.00
   0  -3  -8   61.49    3.20
   0  -3  -8   61.49    3.10
   0   3  -8   61.49    3.10
   0   3  -8   60.49    3.30
  -1  -3  -8  103.89    4.30
   1  -3   8  114.79    3.70
  -1   3  -8  111.89    4.70
  -1   3  -8  111.69    4.90
   2  -3   8  301.37    7.50
  -2  -3  -8  289.67    9.00
  -2  -3  -8  288.97   10.20
  -2   3  -8  293.77    9.40
  -3  -3  -8   30.70    3.50
  -3  -3  -8   24.20    2.40
  -3   3  -8   25.50    2.70
   4  -3   8  194.68    5.60
  -4  -3  -8  200.58    7.30
  -4  -3  -8  205.68    9.10
  -4   3  -8  209.68    7.70
  -5  -3  -8   20.90    3.70
  -5  -3  -8   32.50    3.30
  -5   3  -8   31.60    3.40
  -6  -3  -8   59.79    6.30
  -6  -3  -8   51.89    4.10
  -6   3  -8   45.40    4.40
  -7  -3  -8   60.69    6.70
  -7  -3  -8   60.39    4.70
  -7   3  -8   59.29    4.80
  -8  -3  -8   20.40    4.50
  -8  -3  -8   21.10    3.50
  -8   3  -8   20.60    4.60
  -8   3  -8   14.30    3.10
  -9  -3  -8   30.20    5.60
  -9   3  -8   30.30    5.60
 -10  -3  -8   26.90    5.70
 -10   3  -8   40.00    7.20
 -10  -4   8   -6.70    2.90
  10  -4  -8   -1.00    2.70
   9  -4  -8   44.40    6.70
  -9  -4   8   39.20    6.50
  -9   4   8   41.70    6.20
   8  -4  -8  123.19    8.90
  -8  -4   8  104.99    9.90
  -8   4   8  102.89    6.90
  -7  -4   8    5.00    3.10
   7  -4  -8    1.50    2.10
  -7   4   8    3.70    2.10
  -6  -4   8   78.39    6.60
   6  -4  -8   83.79    6.50
  -6   4   8   77.89    5.30
   5  -4  -8  264.67   11.30
  -5  -4   8  257.67   11.60
   5   4  -8  275.27   11.40
  -5   4   8  260.27   10.00
  -4  -4   8    1.70    1.70
   4  -4  -8    3.90    1.80
   4   4  -8    5.00    1.90
  -4   4   8    3.10    1.60
  -3  -4   8    9.70    2.20
   3  -4  -8    8.00    0.60
   3  -4  -8    3.90    1.50
  -3   4   8    7.90    1.70
   3   4  -8    5.00    1.60
   2  -4  -8  106.39    3.50
   2  -4  -8  104.49    5.30
  -2   4   8  112.49    5.10
   2   4  -8  102.49    5.40
   1  -4  -8 1125.09   28.10
   1  -4  -8 1122.39   29.60
  -1  -4   8 1076.89   29.40
   1   4  -8 1128.79   29.80
   1   4  -8 1108.29   28.20
   0  -4  -8  169.78    6.00
   0  -4   8  159.68    5.80
   0  -4  -8  157.48    6.10
   0   4  -8  151.38    5.80
   0   4  -8  155.58    6.20
   1  -4   8 1303.27   32.40
  -1  -4  -8 1300.57   34.20
  -1  -4  -8 1297.77   33.50
  -1   4  -8 1310.97   34.10
  -1   4  -8 1292.47   33.60
  -2  -4  -8  115.49    4.90
  -2  -4  -8  107.89    5.70
   2  -4   8  114.49    3.80
  -2   4  -8  122.59    5.80
  -2   4  -8  121.19    5.10
  -3  -4  -8   55.29    3.50
   3  -4   8   58.19    2.40
  -3   4  -8   65.29    4.60
  -3   4  -8   61.89    3.60
   4  -4   8  165.08    5.90
  -4  -4  -8  173.78    6.90
  -4   4  -8  170.88    6.80
  -4   4  -8  185.18    8.50
  -5  -4  -8   23.00    3.00
  -5   4  -8   24.10    3.90
  -5   4  -8   22.30    2.80
  -6  -4  -8  121.89    6.40
  -6   4  -8  119.29    6.10
  -6   4  -8  108.89    7.40
  -7  -4  -8   50.19    4.90
  -7  -4  -8   44.00    5.90
  -7   4  -8   45.60    4.50
  -7   4  -8   41.50    5.70
  -8  -4  -8    7.70    3.50
  -8  -4  -8    2.40    2.20
  -8   4  -8    6.90    3.50
  -9  -4  -8    3.20    3.50
  -9   4  -8    1.10    3.00
 -10  -4  -8    1.00    3.90
 -10   4  -8   -3.30    3.10
   9  -5  -8    8.40    3.70
  -9  -5   8    4.40    3.80
  -9   5   8    3.00    2.80
  -8  -5   8   66.29    7.80
   8  -5  -8   71.09    7.70
  -8   5   8   84.89    6.50
  -7  -5   8   79.79    7.90
   7  -5  -8   64.49    7.00
  -7   5   8   86.99    6.20
   6  -5  -8  123.39    8.00
  -6  -5   8  134.49    8.50
  -6   5   8  130.09    7.20
  -5  -5   8   -1.60    1.90
   5  -5  -8    1.90    1.90
  -5   5   8    0.50    1.70
   4  -5  -8   31.00    4.00
  -4  -5   8   31.30    4.00
   4   5  -8   35.40    4.40
  -4   5   8   34.70    3.70
   3  -5  -8  887.11   25.40
  -3  -5   8  862.51   25.40
   3   5  -8  844.52   25.30
  -3   5   8  869.61   24.40
   2  -5  -8    4.50    1.60
  -2  -5   8    1.20    1.30
   2  -5  -8    4.10    0.70
  -2   5   8    2.50    1.20
   2   5  -8    1.70    1.20
   1  -5  -8   21.80    2.80
  -1  -5   8   23.10    2.60
   1  -5  -8   18.60    1.90
   1   5  -8   16.00    2.40
   1   5  -8   18.40    2.00
   0  -5  -8  634.74   18.20
   0  -5  -8  636.74   17.80
   0  -5   8  621.14   17.60
   0   5  -8  639.94   17.90
   0   5  -8  636.94   18.50
   1  -5   8  183.48    6.20
  -1  -5  -8  182.88    6.90
  -1  -5  -8  184.58    7.40
  -1   5  -8  183.48    7.10
  -1   5  -8  172.88    7.20
   2  -5   8  478.85   13.40
  -2  -5  -8  496.75   14.70
  -2   5  -8  514.45   15.90
  -2   5  -8  492.95   14.60
   3  -5   8   10.10    1.30
  -3  -5  -8    6.90    1.70
  -3   5  -8   11.20    1.90
  -3   5  -8   10.20    2.20
  -4  -5  -8   53.59    3.70
  -4   5  -8   43.00    4.90
  -4   5  -8   55.39    3.60
  -5  -5  -8   -0.30    1.60
  -5   5  -8   -3.00    1.10
  -5   5  -8   -1.90    1.80
  -6  -5  -8   16.50    3.10
  -6   5  -8   16.00    2.80
  -6   5  -8   12.90    3.60
  -7  -5  -8  159.18    8.10
  -7   5  -8  144.19    9.20
  -7   5  -8  143.49    7.80
  -8  -5  -8   14.70    3.40
  -8  -5  -8   20.80    4.70
  -8   5  -8   13.10    4.00
  -9  -5  -8   11.30    4.80
  -9   5  -8    3.90    3.50
   9  -6  -8    0.00    2.90
  -9  -6   8   -1.30    3.40
  -9   6   8   -1.20    2.80
   8  -6  -8   17.20    4.30
  -8  -6   8   10.20    3.90
  -8   6   8   14.30    3.70
  -7  -6   8   24.40    4.80
   7  -6  -8   18.00    4.50
  -7   6   8   17.90    3.90
   6  -6  -8    3.80    2.90
  -6  -6   8    0.00    2.80
  -6   6   8    2.80    2.80
   5  -6  -8   34.40    5.00
  -5  -6   8   33.00    4.80
  -5   6   8   42.80    4.80
  -4  -6   8   -0.70    1.70
   4  -6  -8   -1.70    1.60
   4   6  -8    1.30    1.70
  -4   6   8   -4.50    1.40
  -3  -6   8   11.10    2.50
   3  -6  -8   15.80    3.00
  -3   6   8   10.70    2.30
   3   6  -8   14.80    3.00
   2  -6  -8  355.36   12.50
   2  -6  -8  365.96    9.80
   2   6  -8  325.97   12.40
  -2   6   8  345.47   12.10
   1  -6  -8   57.89    4.00
   1  -6  -8   55.79    3.00
  -1  -6   8   58.49    3.90
   1   6  -8   68.29    3.70
   1   6  -8   61.49    4.30
   0  -6  -8  887.71   24.40
   0  -6  -8  866.51   23.90
   0  -6   8  886.01   23.80
   0   6  -8  877.41   24.10
   0   6  -8  850.61   24.50
  -1  -6  -8  699.83   20.40
   1  -6   8  720.53   19.50
  -1   6  -8  698.83   20.80
  -1   6  -8  740.43   20.70
   2  -6   8  162.68    6.00
  -2  -6  -8  167.68    7.00
  -2   6  -8  176.98    7.90
  -2   6  -8  179.28    7.00
   3  -6   8    4.30    1.20
  -3  -6  -8    4.50    1.80
  -3   6  -8    4.00    1.50
  -3   6  -8    7.60    2.20
  -4  -6  -8    0.90    1.60
  -4   6  -8    3.00    2.00
  -4   6  -8    0.90    1.30
  -5  -6  -8  152.38    7.50
  -5   6  -8  158.08    9.00
  -5   6  -8  161.28    6.90
  -6  -6  -8   45.10    4.80
  -6   6  -8   44.80    5.70
  -6   6  -8   41.20    4.10
  -7  -6  -8   -3.40    2.10
  -7   6  -8    1.40    2.60
  -8  -6  -8    4.20    2.90
  -8   6  -8   10.00    4.00
  -9  -6  -8    6.30    3.40
  -9  -6  -8    7.30    3.50
  -9   6  -8    0.60    3.80
  -9  -7   8   76.19    9.30
  -9   7   8   76.59    8.10
   8  -7  -8    3.40    3.40
  -8  -7   8    1.40    3.00
  -8   7   8   -0.10    2.80
   7  -7  -8   20.40    4.70
  -7   7   8   16.00    3.80
   6  -7  -8  214.08   11.60
  -6  -7   8  224.98   11.70
  -6   7   8  219.68   10.50
  -5  -7   8  191.48   10.30
   5  -7  -8  197.78   10.40
  -5   7   8  184.28    9.30
  -4  -7   8   81.09    6.10
   4  -7  -8   78.99    6.00
  -4   7   8   71.39    5.40
   4   7  -8   76.59    6.10
   3  -7  -8  351.16   13.30
  -3  -7   8  358.16   13.30
  -3   7   8  339.97   12.80
   3   7  -8  347.57   13.70
   2  -7  -8  282.17   10.90
  -2  -7   8  241.88   10.30
  -2   7   8  291.07   11.00
   2   7  -8  286.67   11.40
   1  -7  -8    2.30    1.50
  -1  -7   8    4.90    1.80
   1  -7  -8    4.80    1.30
   1   7  -8    6.20    2.20
   1   7  -8    2.00    1.40
   0  -7  -8 1094.59   29.80
   0  -7  -8 1078.69   30.40
   0  -7   8 1136.79   29.80
   0   7  -8 1122.19   30.90
   0   7  -8 1108.89   30.20
  -1  -7  -8 1292.67   34.70
   1  -7   8 1283.47   33.50
  -1   7  -8 1296.97   34.70
  -1   7  -8 1275.87   35.00
   2  -7   8   -1.40    0.90
  -2  -7  -8    3.80    2.00
  -2   7  -8   -1.30    1.60
  -2   7  -8    2.00    1.50
   3  -7   8   54.59    4.10
  -3  -7  -8   70.69    4.80
  -3   7  -8   72.39    5.60
  -3   7  -8   63.39    4.20
  -4  -7  -8  546.45   17.40
  -4   7  -8  544.45   16.40
  -4   7  -8  516.75   18.70
  -5  -7  -8    0.40    2.30
  -5   7  -8    0.10    2.70
  -5   7  -8   -1.40    1.70
  -6  -7  -8   12.10    3.20
  -6   7  -8    7.20    3.50
  -7  -7  -8    3.20    2.60
  -7   7  -8    6.70    3.30
  -8  -7  -8   88.59    7.30
  -8   7  -8   80.89    8.80
  -8  -8   8   71.79    8.40
   8  -8  -8   77.99    9.10
  -8   8   8   70.59    7.60
   7  -8  -8   17.10    4.70
  -7  -8   8    8.10    4.20
  -7   8   8   16.10    4.10
  -6  -8   8   60.79    7.00
   6  -8  -8   57.19    7.20
  -6   8   8   57.59    6.50
  -5  -8   8   70.69    7.20
   5  -8  -8   77.09    7.70
  -5   8   8   75.89    7.10
  -4  -8   8   18.40    3.80
   4  -8  -8   35.90    5.00
   4   8  -8   28.40    4.90
  -4   8   8   33.70    4.70
   3  -8  -8   36.40    4.80
  -3  -8   8   31.20    4.20
  -3   8   8   37.10    4.50
   3   8  -8   34.00    4.90
  -2  -8   8   46.00    4.80
   2  -8  -8   42.80    4.70
   2   8  -8   46.30    5.30
  -1  -8   8  250.77    9.90
   1  -8  -8  250.37   10.30
   1   8  -8  248.38    9.50
   1   8  -8  278.17   11.10
   0  -8  -8   27.20    3.60
   0  -8   8   35.10    3.60
   0   8  -8   24.40    3.40
   0   8  -8   25.80    3.70
  -1  -8  -8   18.90    3.20
   1  -8   8   13.70    2.30
  -1   8  -8   14.70    2.90
  -1   8  -8   13.10    3.00
  -2  -8  -8   46.40    4.70
   2  -8   8   42.00    3.80
  -2   8  -8   46.90    5.00
  -2   8  -8   42.40    4.20
  -3  -8  -8  323.97   12.10
  -3   8  -8  317.17   13.00
  -3   8  -8  320.77   11.50
  -4  -8  -8   54.49    5.50
  -4   8  -8   54.19    4.30
  -4   8  -8   63.19    6.40
  -5  -8  -8    0.30    2.00
  -5   8  -8   -1.90    2.10
  -6  -8  -8   16.90    3.80
  -6   8  -8   14.50    4.50
  -7  -8  -8    8.70    3.50
  -7   8  -8    8.80    3.70
  -8  -8  -8    1.20    2.80
  -8   8  -8    4.90    3.60
   7  -9  -8    5.60    3.70
  -7  -9   8    7.40    4.30
  -7   9   8    4.80    3.30
   6  -9  -8   40.90    6.50
  -6  -9   8   34.50    5.80
  -6   9   8   43.60    6.00
  -5  -9   8    8.20    3.40
   5  -9  -8    9.30    4.00
  -5   9   8    6.60    3.20
   4  -9  -8   97.59    7.50
  -4  -9   8  113.09    7.60
  -4   9   8   94.09    7.00
  -3  -9   8   14.70    3.30
   3  -9  -8   12.30    3.50
   3   9  -8   10.60    3.20
  -3   9   8    6.10    2.50
   2  -9  -8  117.49    7.20
  -2  -9   8  118.19    7.00
   2   9  -8  103.49    7.10
  -1  -9   8   27.60    3.60
   1  -9  -8   16.00    3.20
   1   9  -8   25.30    3.60
   1   9  -8   20.30    3.80
   0  -9   8    1.80    1.80
   0  -9  -8    0.00    2.00
   0   9  -8    5.70    2.40
   0   9  -8    4.30    2.30
  -1  -9  -8   80.29    5.60
   1  -9   8   77.89    4.80
  -1   9  -8   85.19    5.70
  -1   9  -8   70.69    5.30
   2  -9   8    3.30    1.70
  -2  -9  -8    2.60    2.20
  -2   9  -8    0.70    2.20
  -2   9  -8    1.40    1.60
  -3  -9  -8   22.70    3.80
  -3   9  -8   22.60    4.30
  -3   9  -8   21.00    3.30
  -4  -9  -8  265.17   11.40
  -4   9  -8  304.37   13.30
  -5  -9  -8   17.90    3.70
  -5   9  -8   28.80    5.30
  -6  -9  -8    1.40    2.60
  -6   9  -8    3.70    3.10
  -7  -9  -8   -1.70    2.80
  -7   9  -8    3.60    3.50
   7 -10  -8    0.80    3.30
  -7 -10   8    4.30    4.10
  -7  10   8    0.20    3.40
  -6 -10   8   -2.70    3.20
   6 -10  -8    5.40    3.50
  -6  10   8    3.70    3.00
  -5 -10   8  112.19    8.80
   5 -10  -8  108.99    8.80
  -5  10   8  131.49    9.00
  -4 -10   8   -0.50    2.80
   4 -10  -8   -3.90    1.90
  -4  10   8    1.70    2.90
  -3 -10   8   33.40    4.90
   3 -10  -8   25.00    4.60
  -3  10   8   23.70    4.30
  -2 -10   8   46.40    5.20
   2 -10  -8   49.60    6.00
   2  10  -8   42.30    5.70
   1 -10  -8   47.50    5.60
  -1 -10   8   46.40    5.00
   1  10  -8   42.00    5.60
   1  10  -8   49.70    5.10
   0 -10  -8  272.27   11.80
   0 -10   8  293.17   11.00
   0  10  -8  282.47   11.50
   0  10  -8  271.87   11.90
   1 -10   8    4.70    2.10
  -1 -10  -8   10.80    3.30
  -1  10  -8    5.50    2.60
  -1  10  -8    5.70    2.50
  -2 -10  -8   12.00    3.20
  -2  10  -8   12.90    3.00
  -2  10  -8   10.60    3.10
  -3 -10  -8   74.79    6.00
  -3  10  -8   88.19    7.20
  -4 -10  -8   22.70    4.00
  -4  10  -8   31.70    5.40
  -5 -10  -8    3.70    2.60
  -5  10  -8    2.20    3.10
  -6 -10  -8   46.90    6.20
  -6  10  -8   52.39    7.50
   6 -11  -8   -1.80    3.00
  -6 -11   8    4.00    3.80
  -6  11   8   -3.40    2.70
   5 -11  -8   67.49    8.40
  -5 -11   8   56.89    7.00
  -5  11   8   69.79    7.90
   4 -11  -8   28.60    5.50
  -4 -11   8   31.60    5.60
  -4  11   8   35.60    5.60
  -3 -11   8    2.40    2.70
   3 -11  -8    6.60    3.10
   2 -11  -8   95.19    7.30
  -2 -11   8   97.29    7.00
   2  11  -8   99.29    8.00
   1 -11  -8   49.90    6.00
  -1 -11   8   56.59    5.80
   1  11  -8   53.39    6.60
   0 -11  -8   16.50    3.80
   0 -11   8   17.20    3.30
   0  11  -8   18.90    4.00
   0  11  -8   16.50    3.60
  -1 -11  -8   59.19    6.40
   1 -11   8   53.19    5.20
  -1  11  -8   50.89    5.70
  -1  11  -8   49.50    5.60
  -2 -11  -8   69.09    6.80
  -2  11  -8   62.99    6.70
  -3 -11  -8   -2.00    2.10
  -3  11  -8   -0.50    2.70
  -4 -11  -8   -2.80    2.30
  -4  11  -8   -3.90    2.60
  -5 -11  -8    1.00    2.70
  -5  11  -8   -1.60    3.10
  -4 -12   8   93.09    8.70
   4 -12  -8   81.49    9.00
   3 -12  -8   39.20    6.50
  -3 -12   8   33.10    5.50
   2 -12  -8    9.60    3.70
  -2 -12   8   10.30    3.50
  -1 -12   8    1.30    2.40
   1 -12  -8   -5.80    2.40
   0 -12   8   -0.20    2.10
   0 -12  -8    0.70    2.60
   0  12  -8    3.40    3.60
   0  12  -8    2.80    2.70
  -1 -12  -8  100.29    7.80
  -1  12  -8   87.99    7.10
  -2 -12  -8   17.20    4.60
  -2  12  -8   19.70    4.40
  -3 -12  -8    2.30    3.00
  -3  12  -8    5.00    3.30
  -4 -12  -8   33.90    5.40
  -4  12  -8   20.50    5.20
  -2 -13   8   43.40    5.70
   2 -13  -8   28.30    5.30
  -1 -13   8   10.50    3.40
   1 -13  -8    4.50    3.40
   0 -13  -8   13.90    4.50
  -1 -13  -8    1.10    2.90
  -1  13  -8    0.30    2.90
  10   0  -9    1.50    3.10
   9   0  -9    0.00    2.80
   8   0  -9   -1.60    2.10
   7   0  -9   -2.70    1.70
   6   0  -9    0.70    1.90
  -6   0   9    2.30    1.20
  -5   0   9    1.80    1.00
   5   0  -9    1.50    1.70
   5   0  -9    2.20    1.30
   4   0  -9    1.10    1.30
  -4   0   9    1.60    0.70
   4   0  -9   -0.20    0.80
   3   0  -9   -0.30    0.70
   3   0  -9    0.30    0.90
   2   0  -9   -0.60    0.70
   2   0  -9    0.40    0.80
   1   0  -9   -3.00    0.50
   1   0  -9   -1.20    0.90
   0   0  -9    0.80    0.60
   0   0  -9    0.00    0.60
  -1   0  -9    0.70    0.40
  -1   0  -9   -0.10    0.70
  -2   0  -9    0.40    0.40
  -2   0  -9    0.30    1.00
  -3   0  -9    0.50    0.50
  -3   0  -9    0.80    1.00
  -4   0  -9   -0.60    1.10
  -4   0  -9   -0.10    0.60
  -5   0  -9    2.40    2.20
  -5   0  -9    0.90    1.30
  -6   0  -9    4.60    1.60
  -6   0  -9   -0.90    1.90
  -7   0  -9    2.90    2.40
  -8   0  -9   -0.80    2.10
  -9   0  -9    1.40    2.80
 -10   0  -9    3.40    3.20
  10  -1  -9  145.29   10.40
  10   1  -9  137.79   10.70
   9  -1  -9   -0.40    2.60
   9   1  -9   -1.20    2.60
   8  -1  -9    5.20    3.00
   8   1  -9    6.20    3.10
   7  -1  -9   37.60    5.10
  -7   1   9   40.50    3.70
   7   1  -9   43.90    5.70
   6  -1  -9  400.56   15.40
  -6  -1   9  413.06   12.80
   6   1  -9  409.66   15.50
  -6   1   9  410.76   12.60
   5  -1  -9  194.78    9.00
  -5  -1   9  187.48    5.80
   5   1  -9  194.88    9.00
   5   1  -9  191.88    8.10
  -5   1   9  190.78    6.80
   4  -1  -9  190.88    8.50
  -4  -1   9  200.68    5.50
   4  -1  -9  199.88    7.10
   4   1  -9  192.98    8.50
  -4   1   9  200.48    6.60
   4   1  -9  206.28    8.00
   3  -1  -9 1238.78   33.10
   3  -1  -9 1232.08   31.20
  -3   1   9 1234.78   30.60
   3   1  -9 1172.38   32.80
   2  -1  -9  147.89    6.20
   2  -1  -9  146.39    5.20
   2   1  -9  141.19    6.00
   2   1  -9  150.88    5.80
   1  -1  -9    3.30    1.10
   1  -1  -9    7.90    1.30
   1   1  -9    4.90    1.20
   1   1  -9    4.10    1.10
   0  -1  -9   46.80    2.50
   0   1  -9   49.10    2.50
   0   1  -9   53.59    2.90
  -1  -1  -9  242.68    8.00
  -1  -1  -9  223.68    6.90
  -1   1  -9  241.08    7.80
  -1   1  -9  230.28    6.50
  -2  -1  -9  421.56   11.20
  -2  -1  -9  408.96   12.90
  -2   1  -9  421.56   12.60
  -3  -1  -9   27.50    1.70
  -3  -1  -9   22.60    2.80
  -3   1  -9   25.70    2.80
  -4  -1  -9  371.76   13.00
  -4  -1  -9  372.86   10.60
  -4   1  -9  375.96    9.70
  -4   1  -9  369.66   12.40
  -5  -1  -9  117.89    6.70
  -5  -1  -9  118.29    5.00
  -5   1  -9  116.99    6.50
  -5   1  -9  125.69    4.40
  -6  -1  -9  698.33   22.50
  -6  -1  -9  714.03   19.70
  -6   1  -9  694.83   21.60
  -7  -1  -9   -0.60    2.20
  -7   1  -9    1.90    2.10
  -8  -1  -9   20.20    4.20
  -8   1  -9   26.60    4.40
  -9  -1  -9  124.59    9.20
  -9   1  -9  135.49    8.40
 -10  -1  -9    1.40    2.90
 -10   1  -9    6.30    3.50
  10  -2  -9   26.10    5.40
  10   2  -9   19.50    5.40
   9  -2  -9   31.60    5.40
   9   2  -9   39.40    6.20
   8  -2  -9  205.78   11.30
   8   2  -9  219.88   11.60
   7  -2  -9   61.49    6.70
  -7   2   9   54.69    4.30
   7   2  -9   57.39    6.40
   6  -2  -9  101.59    6.90
   6   2  -9  110.39    7.10
  -6   2   9  104.99    5.30
   5  -2  -9  190.18    8.90
  -5  -2   9  183.38    5.30
  -5   2   9  189.48    7.10
   5   2  -9  188.18    8.80
   4  -2  -9 1611.24   40.30
   4  -2  -9 1595.84   43.10
  -4   2   9 1614.24   40.60
   4   2  -9 1598.94   42.30
   4   2  -9 1594.14   42.90
   3  -2  -9  393.36   13.10
   3  -2  -9  389.16   11.10
   3   2  -9  402.86   12.70
  -3   2   9  392.56   11.40
   3   2  -9  378.86   12.90
   2  -2  -9 1714.33   43.80
   2  -2  -9 1806.12   45.80
   2   2  -9 1799.92   45.60
   2   2  -9 1799.72   45.40
   1  -2  -9  579.24   15.30
   1  -2  -9  552.04   16.10
   1   2  -9  579.54   16.00
   1   2  -9  558.24   16.10
   0  -2  -9  948.11   24.90
   0  -2  -9  970.90   24.90
   0   2  -9  951.80   24.40
   0   2  -9  949.01   25.10
   1  -2   9 3086.39   73.79
  -1  -2  -9 3105.99   75.89
  -1  -2  -9 3046.70   74.79
  -1   2  -9 3063.69   75.49
  -2  -2  -9    1.20    0.70
  -2  -2  -9    2.70    1.30
  -2   2  -9    1.80    1.00
  -3  -2  -9  300.77   10.80
  -3  -2  -9  303.27    9.00
  -3   2  -9  299.87   10.00
  -4  -2  -9 1269.77   32.30
  -4  -2  -9 1269.57   35.00
  -4   2  -9 1255.67   33.70
  -5  -2  -9   11.40    2.10
  -5  -2  -9    8.30    2.70
  -5   2  -9    9.50    2.20
  -6  -2  -9  415.76   15.80
  -6  -2  -9  422.06   13.30
  -6   2  -9  420.46   14.50
  -7  -2  -9  165.48    9.50
  -7  -2  -9  173.18    7.60
  -7   2  -9  181.38    8.70
  -8  -2  -9   16.10    3.90
  -8   2  -9   12.90    3.10
  -9  -2  -9    4.20    3.30
  -9   2  -9    4.30    2.70
 -10  -2  -9   18.70    5.00
 -10   2  -9   14.40    5.40
  10  -3  -9    0.90    3.20
 -10  -3   9    1.50    3.30
   9  -3  -9   23.10    5.10
   8  -3  -9    0.20    2.30
   8   3  -9    1.00    2.70
  -8   3   9   -1.00    2.00
   7  -3  -9   39.60    5.50
  -7   3   9   45.00    4.30
   7   3  -9   24.50    4.60
   6  -3  -9   69.29    5.90
   6   3  -9   63.29    6.30
  -6   3   9   62.09    4.50
   5  -3  -9  134.49    7.60
  -5   3   9  138.89    6.20
   5   3  -9  127.99    7.10
   5   3  -9  145.59    7.80
   4  -3  -9   19.80    1.50
   4  -3  -9   14.80    2.80
  -4   3   9   10.90    2.00
   4   3  -9   16.50    2.80
   4   3  -9   11.30    2.50
   3  -3  -9   25.40    1.60
   3  -3  -9   31.30    3.50
   3   3  -9   27.20    3.20
   3   3  -9   31.30    3.50
  -3   3   9   23.50    2.40
   2  -3  -9   99.49    5.00
   2  -3  -9  101.49    3.70
   2   3  -9  102.79    5.10
   2   3  -9  100.79    5.00
   1  -3  -9 2110.09   51.89
   1  -3  -9 2138.39   53.19
   1   3  -9 2047.90   53.19
   1   3  -9 2144.99   51.49
   0  -3   9   68.69    3.20
   0  -3  -9   68.09    3.40
   0  -3  -9   73.49    3.60
   0   3  -9   68.29    3.30
   0   3  -9   63.09    3.50
  -1  -3  -9   13.60    1.70
   1  -3   9   18.80    1.30
  -1   3  -9   18.50    2.20
  -2  -3  -9  256.67    8.20
   2  -3   9  260.77    6.50
  -2  -3  -9  260.57    9.50
  -2   3  -9  260.77    8.80
  -3  -3  -9  230.48    9.50
  -3  -3  -9  244.78    8.00
  -3   3  -9  248.18    8.60
  -4  -3  -9  126.59    5.30
  -4  -3  -9  123.49    6.90
  -4   3  -9  128.59    5.90
  -5  -3  -9  242.88    8.80
  -5  -3  -9  256.57   11.10
  -5   3  -9  237.58    9.20
  -6  -3  -9   87.79    5.10
  -6  -3  -9   87.69    6.60
  -6   3  -9   87.19    5.50
  -7  -3  -9  141.49    7.10
  -7  -3  -9  151.88    9.20
  -7   3  -9  142.59    7.50
  -8  -3  -9    3.90    3.00
  -8   3  -9    0.90    2.00
  -8   3  -9    1.20    2.60
  -9  -3  -9    4.50    3.30
  -9   3  -9    6.80    4.70
  -9   3  -9   12.40    4.70
 -10  -3  -9   13.20    5.10
 -10   3  -9   22.80    6.00
 -10  -4   9   37.30    7.10
  10  -4  -9   34.50    6.40
   9  -4  -9    3.00    3.10
  -9  -4   9    5.30    3.90
   8  -4  -9  100.19    8.00
  -8  -4   9  108.09    9.00
  -8   4   9  102.69    7.00
   7  -4  -9    9.90    3.50
  -7  -4   9    8.50    3.50
  -7   4   9   13.60    2.90
   6  -4  -9  401.86   15.90
  -6   4   9  413.26   14.00
   5  -4  -9 1367.46   38.90
  -5   4   9 1357.26   36.70
   5   4  -9 1389.46   38.70
   4  -4  -9  129.69    7.10
   4   4  -9  128.19    7.00
  -4   4   9  131.49    6.10
   3  -4  -9  557.64   17.90
   3  -4  -9  575.94   14.60
  -3  -4   9  580.44   18.20
  -3   4   9  582.04   16.90
   3   4  -9  581.84   18.00
   2  -4  -9  225.68    8.80
   2  -4  -9  233.88    6.70
   2   4  -9  234.38    6.60
   2   4  -9  212.88    8.70
   1  -4  -9  140.79    6.10
   1  -4  -9  148.39    5.10
  -1  -4   9  149.69    6.10
   1   4  -9  146.39    6.30
   1   4  -9  136.39    5.00
   0  -4  -9   32.50    2.50
   0  -4   9   31.60    2.30
   0  -4  -9   24.90    2.20
   0   4  -9   28.10    2.20
   0   4  -9   27.90    2.90
  -1  -4  -9 1551.64   40.60
   1  -4   9 1580.04   38.70
  -1  -4  -9 1568.94   39.90
  -1   4  -9 1563.84   40.50
  -1   4  -9 1563.24   40.20
   2  -4   9   43.50    1.90
  -2  -4  -9   41.50    3.50
  -2  -4  -9   40.10    2.80
  -2   4  -9   44.90    3.10
  -2   4  -9   45.10    3.50
   3  -4   9  419.66   11.00
  -3  -4  -9  421.26   12.80
  -3  -4  -9  426.06   14.60
  -3   4  -9  429.26   14.60
  -3   4  -9  433.16   13.10
  -4  -4  -9   95.69    4.80
  -4  -4  -9  100.79    6.30
  -4   4  -9   93.59    6.00
  -4   4  -9   85.39    4.80
  -5  -4  -9    0.80    2.10
  -5  -4  -9   -0.20    1.30
  -5   4  -9    1.90    1.50
  -5   4  -9    1.80    2.00
  -6  -4  -9   37.30    4.10
  -6  -4  -9   34.20    5.20
  -6   4  -9   36.50    5.30
  -6   4  -9   41.40    4.20
  -7  -4  -9   29.90    5.10
  -7   4  -9   30.70    5.00
  -7   4  -9   37.00    4.20
  -8  -4  -9   20.10    3.60
  -8  -4  -9   16.20    4.30
  -8   4  -9    7.90    3.60
  -8   4  -9   14.10    3.10
  -9  -4  -9   40.10    6.60
  -9   4  -9   39.10    6.70
   9  -5  -9   15.40    4.70
  -9  -5   9   23.10    5.40
  -9   5   9   22.00    6.10
   8  -5  -9    1.50    3.10
  -8  -5   9   -1.10    3.10
  -8   5   9    3.30    2.70
  -7  -5   9   92.89    8.70
   7  -5  -9   71.79    7.70
  -7   5   9   87.79    6.20
   6  -5  -9   55.19    6.30
  -6  -5   9   47.00    5.70
  -6   5   9   46.60    4.70
  -5  -5   9   62.19    6.20
   5  -5  -9   69.29    5.60
   5   5  -9   65.09    5.40
  -5   5   9   60.89    4.80
  -4  -5   9  203.08    9.60
   4  -5  -9  203.58    9.50
  -4   5   9  212.88    8.70
   4   5  -9  213.08    9.70
  -3  -5   9  128.39    7.00
   3  -5  -9  143.99    7.20
   3   5  -9  143.19    7.30
  -3   5   9  152.28    6.80
   2  -5  -9   75.69    2.90
   2  -5  -9   76.79    4.70
   2   5  -9   73.49    4.70
   2   5  -9   77.79    3.30
   1  -5  -9   37.30    3.10
  -1  -5   9   45.80    3.30
   1  -5  -9   41.10    2.50
   1   5  -9   44.20    3.40
   1   5  -9   43.80    2.70
   0  -5  -9  135.09    5.70
   0  -5   9  137.79    5.50
   0  -5  -9  132.59    5.90
   0   5  -9  130.89    6.10
   0   5  -9  139.99    5.70
  -1  -5  -9   16.80    2.30
  -1  -5  -9   17.80    2.50
   1  -5   9   19.70    1.90
  -1   5  -9   14.20    2.20
  -1   5  -9   17.30    2.50
   2  -5   9  189.68    6.10
  -2  -5  -9  191.38    7.20
  -2   5  -9  201.78    7.50
  -3  -5  -9    6.40    1.60
   3  -5   9    5.10    0.90
  -3   5  -9    3.50    1.50
  -3   5  -9    3.90    1.80
  -4  -5  -9   44.80    3.70
  -4   5  -9   52.89    3.70
  -4   5  -9   57.39    5.60
  -5  -5  -9   13.90    2.70
  -5   5  -9   14.20    2.50
  -5   5  -9    9.10    2.90
  -6  -5  -9    5.00    2.30
  -6   5  -9   -1.20    1.50
  -6   5  -9   -2.00    2.10
  -7  -5  -9   41.60    6.10
  -7  -5  -9   43.20    4.80
  -7   5  -9   46.70    6.10
  -7   5  -9   42.80    4.40
  -8  -5  -9    6.40    2.70
  -8  -5  -9    4.50    3.30
  -8   5  -9    4.50    3.20
  -9  -5  -9   15.10    4.70
  -9   5  -9    7.00    3.80
   9  -6  -9    0.90    3.40
  -9  -6   9    6.10    4.00
  -9   6   9    3.20    3.10
  -8  -6   9   -2.60    2.50
   8  -6  -9   -0.80    2.10
  -8   6   9   -0.70    2.30
  -7  -6   9  254.87   13.30
   7  -6  -9  256.07   13.30
  -7   6   9  279.77   11.90
   6  -6  -9  975.60   31.20
  -6  -6   9 1004.80   31.50
  -6   6   9  982.20   29.10
   5  -6  -9   -0.50    1.90
  -5  -6   9    1.70    2.10
   5   6  -9    0.10    1.80
  -5   6   9   -0.80    1.90
  -4  -6   9  132.29    7.80
   4  -6  -9  137.99    7.70
   4   6  -9  133.79    7.70
  -4   6   9  126.29    6.90
  -3  -6   9  103.09    6.30
   3  -6  -9  100.79    6.20
   3   6  -9  117.09    6.80
  -3   6   9   97.79    5.70
   2  -6  -9  546.45   17.10
   2   6  -9  514.55   14.70
   2   6  -9  509.55   17.10
  -1  -6   9  175.28    7.30
   1  -6  -9  168.28    7.50
   1  -6  -9  167.48    6.10
   1   6  -9  183.78    7.90
   1   6  -9  171.58    6.60
   0  -6  -9    0.60    1.10
   0  -6  -9    1.20    1.30
   0  -6   9    4.50    1.40
   0   6  -9    0.70    1.20
   0   6  -9    1.80    1.50
   1  -6   9    1.80    1.10
  -1  -6  -9    1.80    1.50
  -1  -6  -9    2.80    1.40
  -1   6  -9    2.60    1.70
  -1   6  -9    0.70    1.20
  -2  -6  -9  525.35   15.60
   2  -6   9  476.15   14.10
  -2   6  -9  529.75   15.70
  -3  -6  -9  140.59    6.50
  -3   6  -9  147.59    6.40
  -3   6  -9  135.49    7.40
  -4  -6  -9  302.17   11.00
  -4   6  -9  301.07   12.70
  -4   6  -9  299.67   10.50
  -5  -6  -9  549.25   17.60
  -5   6  -9  569.14   17.00
  -5   6  -9  532.25   19.50
  -6  -6  -9    8.00    2.60
  -6   6  -9   11.50    2.50
  -6   6  -9    5.00    2.80
  -7  -6  -9   22.00    3.80
  -7   6  -9   16.80    4.30
  -8  -6  -9   80.59    6.60
  -8  -6  -9   81.49    9.10
  -8   6  -9   68.79    8.20
  -9  -6  -9    6.00    3.90
  -9   6  -9    7.70    4.70
  -9  -7   9   25.50    6.60
   9  -7  -9   27.40    5.90
  -9   7   9   20.80    4.80
  -8  -7   9   -0.10    3.30
   8  -7  -9    0.10    2.80
  -8   7   9   -0.60    2.50
   7  -7  -9   12.30    4.00
  -7  -7   9   18.40    4.60
  -7   7   9   18.00    3.80
  -6  -7   9    4.80    3.20
   6  -7  -9    0.90    2.50
  -6   7   9    2.20    2.50
   5  -7  -9  160.78    9.50
  -5  -7   9  178.78    9.90
  -5   7   9  155.38    8.50
   4  -7  -9  153.48    8.70
  -4  -7   9  142.59    8.50
  -4   7   9  164.68    8.10
   4   7  -9  154.48    8.80
  -3  -7   9    8.10    2.40
   3  -7  -9    2.20    1.80
   3   7  -9    4.60    2.30
  -3   7   9    0.30    1.90
  -2  -7   9    1.60    1.10
   2  -7  -9    7.50    2.30
   2   7  -9    6.40    2.20
  -1  -7   9   28.50    3.30
   1  -7  -9   19.90    3.20
   1  -7  -9   16.20    2.10
   1   7  -9   19.00    2.60
   1   7  -9   17.70    3.00
   0  -7  -9   70.59    4.70
   0  -7   9   67.29    4.20
   0  -7  -9   69.09    4.30
   0   7  -9   66.19    4.40
   0   7  -9   70.69    5.00
  -1  -7  -9   32.30    3.80
   1  -7   9   23.10    2.70
  -1  -7  -9   26.70    3.60
  -1   7  -9   32.00    3.70
  -1   7  -9   33.20    3.80
   2  -7   9  156.88    6.20
  -2  -7  -9  155.48    7.20
  -2   7  -9  167.28    7.30
  -3  -7  -9   73.09    5.00
  -3   7  -9   65.59    5.30
  -3   7  -9   71.79    4.60
  -4  -7  -9    8.20    2.70
  -4   7  -9    5.20    3.20
  -4   7  -9    6.00    2.20
  -5  -7  -9   38.50    4.60
  -5   7  -9   30.60    4.90
  -5   7  -9   35.70    3.90
  -6  -7  -9   17.20    3.40
  -6   7  -9   24.60    4.80
  -7  -7  -9    6.00    2.90
  -7   7  -9    8.50    3.60
  -8  -7  -9    5.90    3.20
  -8  -7  -9    7.80    3.70
  -8   7  -9    4.70    3.60
  -8  -8   9    9.10    4.50
   8  -8  -9   10.10    4.40
  -8   8   9    3.00    3.40
  -7  -8   9  131.09   10.20
   7  -8  -9  164.38   10.70
  -7   8   9  145.79    8.90
   6  -8  -9   80.79    8.40
  -6   8   9   58.79    6.30
  -5  -8   9   47.90    5.90
   5  -8  -9   47.70    6.20
  -5   8   9   52.19    5.80
   4  -8  -9   11.60    3.60
  -4  -8   9    6.50    2.70
  -4   8   9    9.60    3.00
   4   8  -9    6.70    3.20
  -3  -8   9  150.08    8.10
   3  -8  -9  128.29    7.80
  -3   8   9  121.79    7.20
   3   8  -9  128.39    8.20
   2  -8  -9   52.09    5.30
   2   8  -9   54.09    5.70
   1  -8  -9  117.29    6.60
  -1  -8   9  112.59    6.20
   1   8  -9  105.59    5.60
   1   8  -9  116.99    7.00
   0  -8  -9    2.50    2.00
   0  -8   9    6.00    2.00
   0  -8  -9    8.40    2.10
   0   8  -9   12.70    2.90
   0   8  -9    5.80    2.20
   1  -8   9  143.99    6.20
  -1  -8  -9  138.09    7.10
  -1   8  -9  136.69    7.10
  -1   8  -9  131.99    7.10
  -2  -8  -9  172.58    8.20
   2  -8   9  159.28    6.80
  -2   8  -9  174.48    7.90
  -3  -8  -9   -0.90    1.80
  -3   8  -9   -0.90    2.10
  -3   8  -9    0.60    1.80
  -4  -8  -9   14.40    3.00
  -4   8  -9   16.10    3.90
  -4   8  -9   13.90    2.70
  -5  -8  -9  143.19    8.00
  -5   8  -9  144.29    9.30
  -6  -8  -9    2.40    2.70
  -6   8  -9   13.20    3.90
  -7  -8  -9    1.60    3.00
  -7   8  -9    4.90    3.70
  -8  -8  -9   37.00    5.70
  -8   8  -9   25.30    6.00
   7  -9  -9    9.70    4.10
  -7  -9   9   -1.20    3.00
  -7   9   9    1.50    2.80
  -6  -9   9   -0.30    2.80
   6  -9  -9   -1.20    2.80
  -6   9   9    1.50    2.80
  -5  -9   9    0.10    2.50
   5  -9  -9    9.80    3.90
  -5   9   9    2.00    2.60
  -4  -9   9   50.19    5.90
   4  -9  -9   75.29    7.70
  -4   9   9   61.69    6.40
   4   9  -9   51.49    6.50
  -3  -9   9   68.59    5.60
   3  -9  -9   63.29    6.70
   3   9  -9   68.89    7.00
  -3   9   9   58.29    6.00
   2  -9  -9    6.30    2.90
  -2  -9   9    0.90    1.20
   2   9  -9    6.60    2.70
  -1  -9   9  481.55   16.10
   1  -9  -9  497.95   17.10
   1   9  -9  483.25   15.90
   1   9  -9  486.15   17.50
   0  -9  -9  613.24   20.30
   0  -9   9  653.63   19.50
   0   9  -9  642.84   20.00
   0   9  -9  651.13   20.90
  -1  -9  -9   30.00    4.30
   1  -9   9   24.30    3.10
  -1   9  -9   27.40    4.10
  -1   9  -9   25.90    3.80
  -2  -9  -9  269.57   11.10
  -2   9  -9  265.37   10.70
  -3  -9  -9  170.38    8.60
  -3   9  -9  169.58    9.30
  -3   9  -9  178.48    8.10
  -4  -9  -9   10.20    2.90
  -4   9  -9   12.30    3.70
  -5  -9  -9   12.20    3.20
  -5   9  -9   11.60    4.10
  -6  -9  -9    1.70    3.00
  -6   9  -9   -0.90    2.80
  -7  -9  -9  127.49    8.60
  -7   9  -9  134.89   10.50
  -6 -10   9   19.60    4.90
   6 -10  -9   27.20    5.60
  -6  10   9   24.20    5.30
  -5 -10   9  139.99    9.70
   5 -10  -9  132.59   10.00
  -5  10   9  129.99    9.20
  -4 -10   9    1.10    3.00
   4 -10  -9    1.00    2.90
  -4  10   9   -1.20    2.60
  -3 -10   9   -1.20    2.30
   3 -10  -9   -0.70    2.30
   3  10  -9    0.80    2.40
   2 -10  -9   21.50    4.10
   2  10  -9   28.60    4.80
   1 -10  -9    1.60    2.30
  -1 -10   9   -0.10    1.90
   1  10  -9   -0.10    1.70
   1  10  -9    1.80    2.50
   0 -10  -9   12.10    3.30
   0 -10   9    5.60    2.20
   0  10  -9   14.40    3.50
   0  10  -9    9.00    2.80
  -1 -10  -9   50.99    5.50
  -1  10  -9   57.29    5.80
  -1  10  -9   45.70    5.40
  -2 -10  -9   50.09    5.70
  -2  10  -9   43.60    4.90
  -3 -10  -9  154.68    8.70
  -3  10  -9  155.68    9.40
  -4  10  -9   20.60    4.60
  -5 -10  -9   -1.50    2.30
  -5  10  -9    0.70    2.70
  -6 -10  -9   62.09    6.80
  -6  10  -9   64.39    7.70
  -5 -11   9    2.00    3.40
   5 -11  -9   -1.80    2.60
  -5  11   9   -0.90    2.80
   4 -11  -9   69.09    8.10
  -4 -11   9   58.59    7.10
  -4  11   9   66.99    7.60
  -3 -11   9    8.10    3.50
   3 -11  -9   13.90    3.90
   2 -11  -9   13.00    4.00
  -2 -11   9    2.70    1.80
   2  11  -9   11.80    4.00
   1 -11  -9   40.00    5.50
  -1 -11   9   36.00    4.60
   1  11  -9   40.60    5.70
   0 -11   9    0.60    1.80
   0 -11  -9   -2.20    2.10
   0  11  -9    1.10    2.20
   0  11  -9    1.30    2.20
  -1 -11  -9   37.40    5.30
  -1  11  -9   32.50    4.80
  -1  11  -9   34.40    4.80
  -2 -11  -9   41.60    5.40
  -3 -11  -9   15.10    3.90
  -3  11  -9   21.00    4.70
  -4 -11  -9   15.60    3.70
  -4  11  -9   22.20    4.90
  -5 -11  -9    0.90    3.10
  -5  11  -9    3.20    3.40
  -4 -12   9    2.50    3.20
   4 -12  -9    2.20    3.80
  -3 -12   9   33.80    5.20
   3 -12  -9   45.10    6.80
   2 -12  -9   16.10    4.60
  -2 -12   9    6.80    2.50
   1 -12  -9    1.80    2.70
  -1 -12   9   -0.70    2.30
   1  12  -9    2.60    3.00
   0 -12   9   20.60    3.80
   0 -12  -9   10.50    3.90
   0  12  -9   18.40    4.40
   0  12  -9   27.40    5.30
  -1 -12  -9   62.59    7.00
  -1  12  -9   51.69    6.20
  -2 -12  -9    8.00    3.60
  -2  12  -9    1.70    1.80
  -3 -12  -9   -2.20    2.90
  -3  12  -9    2.80    3.40
  -4 -12  -9   18.40    4.70
  -4  12  -9   18.00    4.70
  -1 -13   9   15.80    4.00
   1 -13  -9   26.30    5.20
   0 -13  -9   83.59    8.20
  -1 -13  -9    3.90    3.30
  10   0 -10   56.09    7.90
   9   0 -10  151.58   10.30
   8   0 -10    8.20    3.10
   7   0 -10  359.66   14.90
  -6   0  10  978.70   25.40
   6   0 -10  967.80   29.70
   5   0 -10   45.10    3.50
  -5   0  10   44.40    2.50
   5   0 -10   42.60    4.60
   4   0 -10   83.49    5.30
  -4   0  10   89.09    3.30
   4   0 -10   96.19    4.70
   3   0 -10 1287.37   34.60
   3   0 -10 1259.07   33.10
   2   0 -10 1719.43   44.50
   2   0 -10 1735.93   43.60
   1   0 -10  292.67   10.00
   1   0 -10  394.46   10.90
   0   0 -10   97.49    4.10
   0   0 -10   87.39    3.80
  -1   0 -10  611.94   17.00
  -1   0 -10  593.24   15.70
  -2   0 -10 4483.05  109.59
  -2   0 -10 4478.85  107.19
  -3   0 -10  711.73   17.60
  -3   0 -10  699.83   20.40
  -4   0 -10    1.20    1.40
  -4   0 -10    0.90    0.70
  -5   0 -10 1584.64   39.40
  -5   0 -10 1593.54   42.90
  -6   0 -10  285.17   11.70
  -7   0 -10   27.40    4.40
  -8   0 -10  442.06   17.00
  -9   0 -10    8.40    3.40
 -10   0 -10    9.30    4.00
  10  -1 -10   12.70    4.50
  10   1 -10    0.50    3.70
   9  -1 -10    0.50    2.80
   9   1 -10    3.30    3.40
   8  -1 -10   54.49    6.70
   8   1 -10   51.69    6.30
   7  -1 -10   -3.10    1.60
   7   1 -10    0.10    2.20
   6  -1 -10   59.29    6.20
   6   1 -10   51.19    5.80
  -6   1  10   55.59    3.60
   5  -1 -10   -0.60    1.40
   5  -1 -10    0.70    1.00
  -5  -1  10   -0.80    0.50
  -5   1  10    0.10    0.90
   5   1 -10    2.30    1.70
   5   1 -10    0.00    0.90
   4  -1 -10   26.80    2.60
   4  -1 -10   20.00    3.00
   4   1 -10   28.30    3.20
   4   1 -10   25.10    3.30
  -4   1  10   23.00    1.80
   3  -1 -10  730.33   21.50
   3  -1 -10  739.13   19.90
   3   1 -10  731.73   21.50
   2  -1 -10 1143.79   29.20
   2  -1 -10 1166.38   30.60
   2   1 -10 1121.69   29.90
   2   1 -10 1117.59   30.30
   1  -1 -10 2073.79   51.49
   1  -1 -10 2014.90   50.79
   1   1 -10 2031.20   51.19
   1   1 -10 2082.99   51.39
   0  -1 -10  502.35   14.00
   0   1 -10  496.35   13.70
   0   1 -10  500.65   14.30
  -1  -1 -10  111.29    4.10
  -1  -1 -10  119.49    5.00
  -1   1 -10  115.39    4.90
  -1   1 -10  110.99    3.80
  -2  -1 -10  227.58    6.80
  -2  -1 -10  234.78    8.50
  -2   1 -10  226.48    8.10
  -3  -1 -10  279.67   10.30
  -3  -1 -10  295.07    8.20
  -3   1 -10  284.17    9.90
  -4  -1 -10   -0.40    0.80
  -4  -1 -10    0.50    1.30
  -4   1 -10    1.10    0.50
  -4   1 -10   -0.60    1.20
  -5  -1 -10  134.39    7.30
  -5  -1 -10  132.09    5.20
  -5   1 -10  127.19    5.30
  -5   1 -10  130.99    6.80
  -6  -1 -10   47.90    3.40
  -6  -1 -10   42.20    5.10
  -6   1 -10   54.89    5.40
  -7  -1 -10   32.30    4.80
  -7   1 -10   37.80    4.80
  -8  -1 -10    1.70    2.80
  -8   1 -10   -2.40    2.30
  -9  -1 -10    4.70    3.40
  -9   1 -10    0.90    2.90
 -10  -1 -10   -0.40    3.00
 -10   1 -10   -2.80    2.30
  10  -2 -10   14.70    4.50
  10   2 -10   13.70    4.60
   9  -2 -10    8.40    3.50
   9   2 -10   12.00    4.30
   8  -2 -10  127.19    8.80
   8   2 -10  130.39    9.10
   7  -2 -10  102.29    7.50
  -7   2  10  108.79    5.80
   7   2 -10  116.09    8.10
   6  -2 -10  363.16   14.50
  -6   2  10  365.66   11.80
   6   2 -10  344.07   14.20
   5  -2 -10   10.30    2.60
   5   2 -10   14.00    3.00
   5   2 -10    4.90    1.60
  -5   2  10   13.80    2.10
   4  -2 -10  260.87   10.70
   4  -2 -10  268.97    8.60
   4   2 -10  267.07   10.20
  -4   2  10  278.07    8.80
   4   2 -10  267.87   10.60
   3  -2 -10   45.50    3.60
   3  -2 -10   45.30    2.60
   3   2 -10   41.70    4.10
   3   2 -10   42.60    3.30
  -3   2  10   45.20    2.70
   2  -2 -10    3.00    1.30
   2  -2 -10    4.70    1.00
   2   2 -10    3.50    1.20
   2   2 -10    4.00    1.40
   1  -2 -10  195.88    7.40
   1  -2 -10  213.78    6.80
   1   2 -10  207.88    7.30
   1   2 -10  205.28    7.40
   0  -2 -10  548.85   15.20
   0  -2 -10  531.75   15.20
   0   2 -10  537.95   15.50
   0   2 -10  540.95   14.70
  -1  -2 -10  797.82   21.00
  -1  -2 -10  812.62   22.00
  -1   2 -10  789.92   21.70
  -2  -2 -10  161.68    5.50
  -2  -2 -10  159.78    6.80
  -2   2 -10  153.28    6.20
  -3  -2 -10   10.40    1.40
  -3  -2 -10   10.20    2.20
  -3   2 -10   12.00    2.00
  -4  -2 -10   38.20    2.70
  -4  -2 -10   30.70    3.70
  -4   2 -10   42.40    3.50
  -5  -2 -10  622.04   20.30
  -5  -2 -10  633.74   17.40
  -5   2 -10  604.24   18.90
  -6  -2 -10   12.50    3.40
  -6  -2 -10   20.90    2.80
  -6   2 -10   13.80    3.10
  -7  -2 -10    1.10    2.30
  -7   2 -10    2.40    2.30
  -8  -2 -10   30.20    5.40
  -8   2 -10   26.70    4.30
  -9  -2 -10   11.60    4.10
  -9   2 -10   15.10    3.90
 -10  -2 -10    6.40    3.90
 -10   2 -10    0.50    3.20
 -10  -3  10   -1.50    3.50
  10  -3 -10    1.90    3.50
   9  -3 -10   37.10    6.20
   9   3 -10   38.00    6.10
   8  -3 -10    2.10    2.90
   8   3 -10   -4.40    2.40
   7  -3 -10  157.68    9.40
   7   3 -10  148.79    9.10
  -7   3  10  152.48    7.30
   6  -3 -10   92.59    6.70
  -6   3  10   93.59    5.30
   6   3 -10   90.59    6.80
   5  -3 -10   69.19    5.70
   5   3 -10   77.59    5.90
  -5   3  10   74.19    4.40
   5   3 -10   76.89    5.40
   4  -3 -10  308.87   12.00
   4  -3 -10  295.47    9.00
  -4   3  10  308.87   10.10
   4   3 -10  309.47   11.80
   4   3 -10  306.27   11.60
   3  -3 -10  450.95   12.30
   3  -3 -10  441.56   14.80
  -3   3  10  439.96   13.30
   3   3 -10  457.35   14.70
   3   3 -10  459.05   14.80
   2  -3 -10    0.80    0.90
   2  -3 -10    0.50    0.60
   2   3 -10   -0.10    0.90
   2   3 -10    0.20    0.90
   2   3 -10    0.90    0.40
   1  -3 -10 2533.15   61.69
   1  -3 -10 2516.05   62.89
   1   3 -10 2536.15   62.99
   1   3 -10 2489.55   61.09
   1   3 -10 2482.75   62.29
   0  -3 -10  796.82   21.10
   0  -3  10  756.92   20.40
   0  -3 -10  770.02   20.90
   0   3 -10  778.22   21.40
   0   3 -10  762.22   20.70
  -1  -3 -10    0.50    0.80
   1  -3  10    0.40    0.60
  -1  -3 -10    0.20    0.60
  -1   3 -10    1.20    1.00
  -2  -3 -10 1906.71   46.40
  -2  -3 -10 1808.92   48.10
  -2   3 -10 1855.61   47.20
  -3  -3 -10  697.03   21.30
  -3  -3 -10  705.23   19.10
  -3   3 -10  714.23   20.10
  -4  -3 -10   14.30    2.00
  -4  -3 -10   13.20    2.80
  -4   3 -10   14.20    2.40
  -5  -3 -10   21.70    2.70
  -5  -3 -10   27.00    4.10
  -5   3 -10   26.40    3.30
  -6  -3 -10  119.29    5.90
  -6  -3 -10  110.99    7.70
  -6   3 -10  104.99    6.30
  -7  -3 -10   54.89    4.40
  -7  -3 -10   53.99    6.60
  -7   3 -10   52.09    5.20
  -8  -3 -10   11.70    3.80
  -8   3 -10    8.30    2.70
  -9  -3 -10   21.00    5.10
  -9   3 -10   22.30    4.20
  -9   3 -10   23.40    5.40
 -10  -4  10   -1.40    3.40
  10  -4 -10   -2.60    2.50
  -9  -4  10    2.10    3.20
   9  -4 -10   -0.20    2.50
  -8  -4  10  209.98   12.30
   8  -4 -10  200.28   11.80
  -8   4  10  198.48    9.50
   7  -4 -10   -0.50    2.30
  -7   4  10    1.10    2.00
   6  -4 -10   22.80    4.10
  -6   4  10   21.60    3.30
   5  -4 -10   13.00    3.20
  -5   4  10   10.90    2.50
   5   4 -10   10.30    3.00
   4  -4 -10   26.20    3.80
   4   4 -10   20.40    3.30
  -4   4  10   23.20    3.00
   3  -4 -10    1.90    0.60
  -3  -4  10   -0.10    1.30
   3  -4 -10    2.40    1.60
  -3   4  10    0.80    1.10
   3   4 -10    2.30    1.50
  -2  -4  10   43.40    3.40
   2  -4 -10   45.90    2.30
   2  -4 -10   46.90    3.60
   2   4 -10   43.30    3.50
   2   4 -10   43.80    2.00
   1  -4 -10   72.69    4.10
   1  -4 -10   63.99    3.20
  -1  -4  10   64.29    3.80
   1   4 -10   68.79    3.10
   1   4 -10   60.49    4.00
   0  -4  10  305.77    9.70
   0  -4 -10  322.47   10.10
   0  -4 -10  318.17   10.40
   0   4 -10  303.87    9.90
   0   4 -10  327.77   10.70
  -1  -4 -10   43.40    3.40
  -1  -4 -10   46.70    3.10
   1  -4  10   45.10    2.40
  -1   4 -10   46.60    3.30
  -1   4 -10   45.10    3.30
   2  -4  10  215.18    6.10
  -2  -4 -10  217.28    7.60
  -2  -4 -10  217.78    8.80
  -2   4 -10  219.28    8.10
  -3  -4 -10   20.30    3.30
  -3  -4 -10   24.30    2.50
  -3   4 -10   25.40    3.40
  -3   4 -10   25.20    2.90
  -4  -4 -10  129.09    5.70
  -4  -4 -10  128.99    7.40
  -4   4 -10  133.49    6.00
  -4   4 -10  120.49    7.00
  -5  -4 -10    0.80    2.40
  -5  -4 -10    5.40    1.90
  -5   4 -10    4.90    2.20
  -5   4 -10    4.10    1.80
  -6  -4 -10  123.29    6.20
  -6  -4 -10  115.79    7.90
  -6   4 -10  121.39    8.20
  -6   4 -10  113.99    6.30
  -7  -4 -10   15.90    4.30
  -7  -4 -10   11.40    2.70
  -7   4 -10   13.90    3.80
  -7   4 -10   14.10    3.00
  -8  -4 -10    8.90    3.70
  -8   4 -10    8.10    2.80
  -8   4 -10   11.60    3.90
  -9  -4 -10   45.20    7.10
  -9   4 -10   49.99    7.10
   9  -5 -10   13.00    4.30
  -9  -5  10   18.10    5.10
   8  -5 -10   41.90    6.50
  -8  -5  10   54.99    7.40
  -8   5  10   52.29    5.80
   7  -5 -10  120.79    8.80
  -7  -5  10  126.39    9.00
  -7   5  10  125.49    7.30
   6  -5 -10    8.50    3.20
  -6  -5  10    4.70    2.80
  -6   5  10    7.70    2.60
  -5  -5  10   26.80    4.40
   5  -5 -10   27.70    4.50
  -5   5  10   32.40    4.00
   5   5 -10   25.90    4.20
   4  -5 -10  153.38    8.20
  -4  -5  10  161.98    8.30
   4   5 -10  151.68    8.10
  -4   5  10  158.68    7.20
  -3  -5  10 1073.49   30.50
   3  -5 -10 1043.30   30.40
   3   5 -10 1063.49   30.50
  -3   5  10 1067.89   29.20
   2  -5 -10  318.17    9.00
   2  -5 -10  325.07   11.60
  -2  -5  10  308.77   11.30
   2   5 -10  330.47   11.80
   2   5 -10  311.57    9.20
   1  -5 -10   41.40    3.30
   1  -5 -10   42.00    2.60
  -1  -5  10   47.80    3.40
   1   5 -10   40.60    3.40
   1   5 -10   46.40    2.70
   0  -5 -10  442.06   13.70
   0  -5  10  445.76   13.00
   0  -5 -10  427.96   13.20
   0   5 -10  432.86   13.20
   0   5 -10  430.06   13.90
  -1  -5 -10  861.41   23.60
   1  -5  10  861.51   22.30
  -1  -5 -10  846.32   24.10
  -1   5 -10  845.82   23.80
  -1   5 -10  858.51   24.10
   2  -5  10    1.40    0.70
  -2  -5 -10    0.50    0.60
  -2  -5 -10    0.60    1.10
  -2   5 -10   -0.10    0.70
  -2   5 -10    2.00    1.40
  -3  -5 -10    3.50    1.30
  -3  -5 -10    0.70    1.90
  -3   5 -10    3.10    1.50
  -3   5 -10    2.10    1.60
  -4  -5 -10   92.09    4.90
  -4  -5 -10   90.69    6.50
  -4   5 -10   88.79    4.90
  -4   5 -10   91.59    6.20
  -5  -5 -10    3.60    2.80
  -5  -5 -10    4.70    2.00
  -5   5 -10    5.10    2.00
  -5   5 -10    5.20    2.80
  -6  -5 -10  189.88    8.50
  -6  -5 -10  205.18   11.00
  -6   5 -10  203.68    8.60
  -6   5 -10  204.68   10.80
  -7  -5 -10    2.20    2.10
  -7  -5 -10   -0.80    2.30
  -7   5 -10   -3.20    1.70
  -7   5 -10    0.80    1.80
  -8  -5 -10   -1.40    2.30
  -8  -5 -10    0.50    3.10
  -8   5 -10   -0.80    2.80
  -9  -5 -10   58.29    8.00
  -9   5 -10   57.39    8.10
   9  -6 -10    0.70    2.90
  -9  -6  10    2.00    3.80
   8  -6 -10    5.50    3.50
  -8  -6  10    9.30    4.00
  -8   6  10    1.50    2.70
  -7  -6  10   15.00    4.50
   7  -6 -10   19.00    4.50
  -7   6  10   27.40    4.40
   6  -6 -10   23.20    4.80
  -6  -6  10   22.20    4.80
  -6   6  10   21.80    4.10
  -5  -6  10   15.30    3.50
   5  -6 -10   11.00    3.30
   5   6 -10    8.20    3.00
  -5   6  10    9.90    2.60
  -4  -6  10  259.57   11.40
   4  -6 -10  258.07   11.40
   4   6 -10  247.68   11.30
  -4   6  10  265.17   10.40
   3  -6 -10   40.40    4.60
  -3  -6  10   39.70    4.60
   3   6 -10   39.00    4.70
  -3   6  10   40.50    4.10
  -2  -6  10   61.99    4.60
   2  -6 -10   66.49    4.80
   2   6 -10   65.19    4.80
   2   6 -10   64.39    3.30
  -1  -6  10    2.00    1.30
   1  -6 -10    0.00    0.90
   1  -6 -10   -2.70    0.70
   1   6 -10   -0.40    1.20
   1   6 -10    0.90    1.10
   0  -6 -10  291.47   10.30
   0  -6 -10  276.07    9.70
   0  -6  10  286.67    9.60
   0   6 -10  263.37   10.30
   0   6 -10  274.37    9.70
  -1  -6 -10  254.17    9.40
   1  -6  10  257.97    8.40
  -1  -6 -10  249.08    9.70
  -1   6 -10  262.77    9.80
  -1   6 -10  251.77    9.60
  -2  -6 -10   22.70    2.90
  -2  -6 -10   29.80    3.80
   2  -6  10   25.10    2.10
  -2   6 -10   27.00    3.10
  -3  -6 -10   26.30    4.00
  -3  -6 -10   28.10    3.20
  -3   6 -10   30.10    4.10
  -3   6 -10   30.30    3.30
  -4  -6 -10   18.80    4.00
  -4  -6 -10   16.80    2.90
  -4   6 -10   15.90    2.70
  -4   6 -10   18.50    3.60
  -5  -6 -10    4.30    3.00
  -5  -6 -10    5.10    2.30
  -5   6 -10    1.70    2.00
  -5   6 -10    5.70    3.20
  -6  -6 -10    3.90    2.30
  -6  -6 -10    6.00    3.10
  -6   6 -10    5.50    2.90
  -6   6 -10    7.30    2.30
  -7  -6 -10   23.90    5.10
  -7  -6 -10   28.60    4.10
  -7   6 -10   23.80    4.90
  -8  -6 -10    6.50    4.20
  -8  -6 -10    3.00    2.90
  -8   6 -10    2.10    3.30
  -9  -6 -10   46.40    7.70
  -9   6 -10   39.00    6.70
  -8  -7  10   -0.10    3.30
   8  -7 -10    1.80    3.40
  -8   7  10   -2.10    2.20
  -7  -7  10   83.49    8.90
   7  -7 -10   76.89    8.60
  -7   7  10   78.29    6.60
  -6  -7  10   36.50    5.70
   6  -7 -10   37.60    5.80
  -6   7  10   43.10    5.20
  -5  -7  10   18.10    4.30
   5  -7 -10   17.20    3.90
   5   7 -10   19.60    4.20
  -5   7  10   16.40    3.40
  -4  -7  10   31.40    4.70
   4  -7 -10   36.40    5.00
  -4   7  10   37.90    4.60
   4   7 -10   36.60    5.10
   3  -7 -10   70.59    5.60
  -3  -7  10   61.69    5.30
  -3   7  10   61.39    4.80
   3   7 -10   54.99    5.80
  -2  -7  10  129.79    6.80
   2  -7 -10  137.19    7.30
   2   7 -10  140.59    7.50
   2   7 -10  132.69    5.70
  -1  -7  10   82.19    5.00
   1  -7 -10   74.99    5.20
   1  -7 -10   82.19    4.40
   1   7 -10   75.19    5.30
   1   7 -10   81.79    4.50
   0  -7  10  638.04   18.30
   0  -7 -10  637.74   19.30
   0  -7 -10  630.04   18.40
   0   7 -10  602.54   18.50
   0   7 -10  607.74   19.40
  -1  -7 -10 1128.09   32.50
   1  -7  10 1185.68   31.10
  -1  -7 -10 1171.18   32.40
  -1   7 -10 1232.48   32.90
  -1   7 -10 1198.18   32.80
  -2  -7 -10 1149.89   31.90
   2  -7  10 1021.60   29.10
  -2  -7 -10 1095.99   30.40
  -2   7 -10 1143.49   30.60
  -3  -7 -10   39.60    4.20
  -3   7 -10   51.69    5.30
  -3   7 -10   38.60    3.90
  -4  -7 -10  380.26   13.40
  -4   7 -10  383.76   13.00
  -4   7 -10  386.46   15.10
  -5  -7 -10   66.39    5.30
  -5   7 -10   66.99    6.80
  -5   7 -10   62.99    4.60
  -6  -7 -10   42.70    5.00
  -6   7 -10   48.00    6.50
  -7  -7 -10   14.40    4.60
  -7  -7 -10   17.40    3.70
  -7   7 -10   20.40    4.80
  -8  -7 -10    9.50    4.10
  -8  -7 -10    5.30    3.30
  -8   7 -10    9.40    3.80
   8  -8 -10   77.19    9.40
  -8  -8  10   73.89    8.70
  -8   8  10   76.79    7.90
   7  -8 -10   64.59    8.30
  -7  -8  10   54.59    7.40
  -7   8  10   64.69    7.00
  -6  -8  10   30.20    5.50
   6  -8 -10   26.60    5.30
  -6   8  10   32.00    5.00
  -5  -8  10  107.79    8.00
   5  -8 -10  109.19    8.40
  -5   8  10  109.89    7.30
  -4  -8  10  149.19    8.60
   4  -8 -10  136.99    8.60
  -4   8  10  132.59    7.80
   4   8 -10  134.69    8.70
  -3  -8  10   36.20    4.70
   3  -8 -10   36.40    4.90
   3   8 -10   38.90    5.10
   2  -8 -10   65.99    6.40
  -2  -8  10   70.99    5.40
   2   8 -10   65.59    5.60
   1  -8 -10    0.40    1.90
  -1  -8  10    2.20    1.90
   1   8 -10   -1.20    1.30
   1   8 -10   -0.30    2.10
   0  -8  10  275.57   10.10
   0  -8 -10  285.37   11.10
   0  -8 -10  269.67   10.10
   0   8 -10  277.17   11.30
   0   8 -10  282.97   10.60
  -1  -8 -10    4.90    2.10
   1  -8  10    3.90    1.70
  -1  -8 -10    4.60    2.20
  -1   8 -10    5.30    2.30
  -1   8 -10    4.20    2.30
  -2  -8 -10   -0.20    1.80
  -2  -8 -10    2.90    2.30
  -2   8 -10    0.90    1.50
  -2   8 -10    3.10    2.10
  -3  -8 -10  127.09    7.10
  -3   8 -10  131.59    7.80
  -3   8 -10  127.69    6.70
  -4  -8 -10  281.07   11.20
  -4   8 -10  271.47   10.50
  -4   8 -10  253.57   12.20
  -5  -8 -10   49.60    5.20
  -5   8 -10   60.39    6.80
  -6  -8 -10   29.00    4.40
  -6   8 -10   25.70    5.20
  -7  -8 -10   24.80    4.40
  -7  -8 -10   29.10    5.80
  -7   8 -10   27.80    5.80
  -8  -8 -10    5.20    3.90
  -8  -8 -10    0.80    3.10
  -8   8 -10    0.30    3.30
  -7  -9  10   31.10    6.00
   7  -9 -10   30.40    6.20
  -7   9  10   30.60    5.40
  -6  -9  10   27.90    5.30
   6  -9 -10   31.30    6.20
  -6   9  10   24.80    4.60
  -5  -9  10   21.30    4.60
   5  -9 -10   18.30    4.60
  -5   9  10   15.60    3.80
  -4  -9  10    5.20    3.00
   4  -9 -10    4.40    2.90
   4   9 -10    1.30    2.60
  -4   9  10    3.20    3.00
  -3  -9  10   15.50    3.50
   3  -9 -10   18.90    4.10
   3   9 -10   13.00    3.80
  -2  -9  10   56.69    5.50
   2  -9 -10   62.39    6.20
   2   9 -10   66.79    6.70
   1  -9 -10    6.50    2.70
  -1  -9  10    1.90    2.00
   1   9 -10    4.30    2.00
   1   9 -10    1.00    2.00
   0  -9  10   75.49    5.00
   0  -9 -10   66.19    5.40
   0   9 -10   71.69    5.90
   0   9 -10   75.39    5.40
   1  -9  10  134.39    6.30
  -1  -9 -10  141.39    7.50
  -1  -9 -10  128.79    7.10
  -1   9 -10  134.39    7.30
  -1   9 -10  127.69    7.30
  -2  -9 -10   11.80    3.20
  -2   9 -10   11.40    2.80
  -2   9 -10    4.30    2.40
  -3  -9 -10   46.40    5.20
  -3   9 -10   59.89    6.40
  -3   9 -10   58.29    5.40
  -4  -9 -10   83.69    6.30
  -4   9 -10   82.69    8.00
  -5  -9 -10   29.60    4.50
  -5   9 -10   30.70    5.50
  -6  -9 -10    8.70    3.50
  -6   9 -10    8.30    3.90
  -7  -9 -10   40.10    5.60
  -7   9 -10   43.20    7.00
   6 -10 -10    4.00    3.40
  -6 -10  10    7.80    4.10
  -6  10  10    3.70    3.50
   5 -10 -10   10.80    4.40
  -5 -10  10   19.40    4.60
  -5  10  10   17.10    4.50
   4 -10 -10   10.20    4.10
  -4 -10  10    5.10    3.00
  -4  10  10    4.20    3.20
   3 -10 -10    0.10    2.40
  -3 -10  10   -0.30    2.50
   3  10 -10    2.80    3.00
   2 -10 -10   38.10    5.30
  -2 -10  10   24.70    4.00
   2  10 -10   39.00    5.50
   1 -10 -10   38.10    5.10
  -1 -10  10   43.80    4.70
   1  10 -10   50.79    5.80
   0 -10 -10   52.09    5.70
   0 -10  10   49.00    4.70
   0  10 -10   49.90    5.70
   0  10 -10   42.50    5.00
  -1 -10 -10   40.10    4.90
  -1  10 -10   39.90    5.00
  -1  10 -10   38.40    4.80
  -2  10 -10   21.30    4.00
  -2  10 -10   20.20    3.70
  -3 -10 -10  118.59    7.40
  -3  10 -10  110.49    8.10
  -4 -10 -10   17.80    3.90
  -4  10 -10   18.70    4.60
  -5 -10 -10    0.30    2.70
  -5  10 -10   -1.50    2.60
  -6 -10 -10   21.10    4.50
  -6  10 -10   23.80    5.50
   5 -11 -10    7.90    4.10
  -5 -11  10    8.70    3.70
  -5  11  10   17.80    4.70
   4 -11 -10   46.70    7.00
  -4 -11  10   44.10    5.90
  -3 -11  10    9.80    3.40
   3 -11 -10    7.20    3.50
   3  11 -10    8.70    4.00
  -2 -11  10  175.78    9.40
   2 -11 -10  178.88   10.20
   2  11 -10  183.98   10.70
   1 -11 -10  148.19    9.10
  -1 -11  10  144.49    8.00
   1  11 -10  130.99    9.00
   0 -11  10   19.50    3.50
   0 -11 -10   21.30    4.20
   0  11 -10   24.40    4.50
   0  11 -10   27.20    4.20
  -1 -11 -10    8.10    3.30
  -1  11 -10   13.90    3.40
  -1  11 -10    9.50    3.20
  -2 -11 -10   44.40    5.60
  -2  11 -10   37.90    5.30
  -3 -11 -10    6.70    3.00
  -3  11 -10    6.60    3.50
  -4 -11 -10   -1.10    2.80
  -4  11 -10   -2.00    2.70
  -5 -11 -10   12.60    3.90
  -5  11 -10    9.20    4.10
  -4 -12  10   21.70    5.10
   4 -12 -10   29.40    6.00
   3 -12 -10  190.78   11.80
  -3 -12  10  192.88   10.80
   2 -12 -10   -1.20    2.90
  -2 -12  10   -2.50    2.30
   2  12 -10    2.30    3.30
   1 -12 -10   21.60    5.10
  -1 -12  10   12.70    3.50
   1  12 -10   11.40    4.30
   0 -12 -10   24.80    4.90
   0  12 -10   31.80    5.30
  -1 -12 -10   35.80    5.60
  -1  12 -10   47.80    5.80
  -2 -12 -10   81.89    8.10
  -2  12 -10   71.99    7.70
  -3 -12 -10   -0.80    3.10
  -3  12 -10    2.30    3.10
  10   0 -11    4.70    4.00
   9   0 -11    1.60    2.80
   8   0 -11   -2.10    1.90
   7   0 -11    0.40    2.20
   6   0 -11    6.10    2.70
  -5   0  11    0.90    0.80
   5   0 -11    4.80    2.10
   5   0 -11    2.50    1.40
   4   0 -11    1.50    1.30
   4   0 -11   -0.10    1.00
   3   0 -11    0.30    1.00
   3   0 -11    0.40    1.10
   2   0 -11    0.00    0.80
   2   0 -11   -0.90    0.60
   1   0 -11   -1.50    0.70
   1   0 -11    4.00    1.20
   0   0 -11   -0.70    0.60
   0   0 -11   -1.40    0.60
  -1   0 -11    1.50    0.70
  -1   0 -11    0.60    1.00
  -2   0 -11    1.70    1.40
  -2   0 -11    0.20    0.60
  -3   0 -11   -0.90    0.80
  -3   0 -11   -0.50    0.40
  -4   0 -11   -1.30    1.10
  -4   0 -11    3.20    0.80
  -5   0 -11    4.00    2.20
  -5   0 -11    1.10    1.10
  -6   0 -11   -0.40    2.50
  -7   0 -11    0.90    2.20
  -8   0 -11    2.80    2.90
  -9   0 -11    0.50    2.90
 -10   0 -11    1.40    3.50
  10  -1 -11  120.29   10.20
  10   1 -11  122.79   10.40
   9  -1 -11   -0.70    3.00
   9   1 -11    2.50    2.80
   8  -1 -11   -1.40    2.20
   8   1 -11   -1.60    1.90
   7  -1 -11    9.50    3.40
   7   1 -11    8.20    3.20
   6  -1 -11  187.68    9.90
   6   1 -11  198.68   10.10
   6   1 -11  203.58    9.20
  -6   1  11  199.58    7.20
   5  -1 -11  168.58    8.70
   5  -1 -11  172.58    7.10
   5   1 -11  172.78    8.80
   5   1 -11  175.48    7.90
  -5   1  11  175.98    6.10
   4  -1 -11   47.50    3.10
   4  -1 -11   40.90    4.30
   4   1 -11   37.10    4.10
  -4   1  11   45.00    2.50
   4   1 -11   44.50    3.40
   3  -1 -11  968.40   27.50
   3  -1 -11  987.00   25.90
   3   1 -11  970.70   27.50
   2  -1 -11 1187.18   33.00
   2  -1 -11 1241.78   31.80
   2   1 -11 1268.97   32.60
   2   1 -11 1247.78   33.00
   1  -1 -11  268.27    9.10
   1  -1 -11  273.47    8.60
   1   1 -11  276.87    9.10
   1   1 -11  261.57    8.90
   0  -1 -11 1865.71   50.39
   0  -1 -11 2067.49   50.39
   0   1 -11 2028.40   50.69
   0   1 -11 2115.09   50.19
  -1  -1 -11  296.97    8.90
  -1  -1 -11  304.97   10.00
  -1   1 -11  298.87    9.90
  -1   1 -11  309.37    8.60
  -2  -1 -11   23.40    1.70
  -2  -1 -11   26.10    2.90
  -2   1 -11   25.40    1.10
  -2   1 -11   29.60    2.90
  -3  -1 -11 1302.07   31.80
  -3  -1 -11 1247.48   34.50
  -3   1 -11 1287.17   34.20
  -4  -1 -11  258.87   10.30
  -4  -1 -11  252.67    7.60
  -4   1 -11  258.77    9.90
  -5  -1 -11   54.09    5.40
  -5  -1 -11   47.70    2.90
  -5   1 -11   56.19    5.20
  -6  -1 -11  793.32   25.50
  -6   1 -11  845.52   25.00
  -7  -1 -11    3.20    2.60
  -7   1 -11    1.00    2.10
  -8  -1 -11    3.00    2.90
  -8   1 -11    5.70    3.00
  -9  -1 -11  123.39    9.30
  -9   1 -11  138.09    8.70
 -10  -1 -11    5.10    4.00
 -10   1 -11   11.80    3.90
  10  -2 -11   25.30    5.80
  10   2 -11   24.30    5.50
   9  -2 -11    9.00    3.90
   9   2 -11   11.00    4.30
   8  -2 -11  101.29    8.20
   8   2 -11  102.29    8.10
   7  -2 -11   53.19    6.40
   7   2 -11   45.50    5.90
   6  -2 -11   28.80    4.70
   6   2 -11   21.80    4.10
  -6   2  11   34.20    3.50
   6   2 -11   29.90    4.30
   5  -2 -11  290.87   12.20
   5  -2 -11  288.77    9.70
   5   2 -11  307.57   12.30
  -5   2  11  295.67    9.60
   4  -2 -11  518.45   14.70
   4  -2 -11  503.85   17.10
   4   2 -11  525.85   16.50
  -4   2  11  510.35   14.60
   4   2 -11  506.45   17.00
   3  -2 -11  256.77    8.30
   3  -2 -11  265.47   10.20
   3   2 -11  253.27    9.90
   3   2 -11  264.17    9.70
   2  -2 -11   16.40    1.80
   2  -2 -11   11.00    2.00
   2   2 -11   14.50    2.10
   2   2 -11   10.90    2.00
   2   2 -11   14.50    0.80
   1  -2 -11  908.31   24.50
   1  -2 -11  900.81   23.60
   1   2 -11  896.21   24.50
   1   2 -11  885.81   24.10
   0  -2 -11   11.20    1.70
   0  -2 -11   10.30    1.60
   0   2 -11   11.20    1.50
   0   2 -11    9.50    1.70
  -1  -2 -11  150.98    5.40
  -1  -2 -11  143.79    6.00
  -1   2 -11  140.99    5.90
  -1   2 -11  138.99    4.40
  -2  -2 -11   44.90    2.50
  -2  -2 -11   39.80    3.30
  -2   2 -11   44.30    3.30
  -3  -2 -11  288.07   10.80
  -3  -2 -11  273.47    8.50
  -3   2 -11  283.17   10.00
  -4  -2 -11  613.24   19.50
  -4  -2 -11  603.54   16.50
  -4   2 -11  611.74   18.50
  -5  -2 -11  278.07   11.90
  -5  -2 -11  303.47    9.50
  -5   2 -11  295.37   11.20
  -6  -2 -11  106.49    7.20
  -6  -2 -11   96.89    5.00
  -6   2 -11  104.09    6.50
  -7  -2 -11  144.79    9.00
  -7   2 -11  126.09    7.60
  -8  -2 -11    9.50    3.40
  -8   2 -11    7.30    2.80
  -9  -2 -11    2.60    3.30
  -9   2 -11   15.90    4.00
  10  -3 -11   -2.40    2.80
   9  -3 -11   22.40    5.30
   9   3 -11   25.70    5.50
   8  -3 -11   21.50    4.70
   8   3 -11   32.60    5.50
   7  -3 -11   57.29    6.60
  -7   3  11   53.39    4.50
   7   3 -11   61.29    6.80
   6  -3 -11  620.24   21.40
   6   3 -11  620.94   20.80
  -6   3  11  603.84   18.30
   6   3 -11  601.14   21.10
   5  -3 -11   32.10    4.50
   5   3 -11   36.70    4.60
   5   3 -11   37.10    4.60
  -5   3  11   36.40    3.50
   4  -3 -11  328.87    9.70
   4  -3 -11  326.87   12.70
  -4   3  11  310.97   10.50
   4   3 -11  324.37   12.40
   4   3 -11  338.87   12.30
   3  -3 -11  288.87   10.90
   3  -3 -11  276.97    8.60
   3   3 -11  288.27   10.70
   3   3 -11  286.17   10.60
   2  -3 -11  682.03   18.20
   2  -3 -11  674.53   20.10
   2   3 -11  683.63   16.80
   2   3 -11  690.33   20.10
   2   3 -11  681.23   19.90
   1  -3 -11 1645.44   42.80
   1  -3 -11 1675.53   41.60
   1   3 -11 1660.63   42.90
   1   3 -11 1654.43   42.30
   1   3 -11 1646.04   41.00
   0  -3 -11  137.79    5.70
   0  -3  11  132.89    5.20
   0  -3 -11  140.39    5.60
   0   3 -11  136.49    5.90
  -1  -3 -11 1217.48   31.30
   1  -3  11 1222.08   30.10
  -1   3 -11 1192.38   31.90
  -2  -3 -11  143.19    5.60
  -2  -3 -11  139.49    6.60
  -2   3 -11  145.69    6.20
  -3  -3 -11    1.60    1.10
  -3  -3 -11    3.50    1.80
  -3   3 -11    3.60    1.50
  -4  -3 -11  469.65   14.00
  -4  -3 -11  497.55   16.80
  -4   3 -11  490.75   15.40
  -5  -3 -11   89.69    6.30
  -5  -3 -11   79.99    4.50
  -5   3 -11   86.69    5.30
  -6  -3 -11  253.37   12.10
  -6  -3 -11  258.27    9.40
  -6   3 -11  261.97   10.50
  -7  -3 -11   -0.40    2.20
  -7   3 -11    1.50    2.20
  -8  -3 -11    0.40    2.50
  -8   3 -11    0.10    2.10
  -9  -3 -11   36.00    6.20
  -9   3 -11   35.50    6.50
  -9   3 -11   30.90    4.80
   9  -4 -11    0.00    2.90
  -9  -4  11   -2.40    3.20
  -8  -4  11   87.59    9.10
   8  -4 -11   69.49    8.00
   7  -4 -11    3.70    2.70
  -7   4  11    7.00    2.50
   6  -4 -11   17.90    3.80
   6   4 -11   12.50    3.50
   6   4 -11   18.90    3.90
  -6   4  11   16.10    3.10
   5  -4 -11  137.59    8.00
  -5   4  11  135.59    6.50
   5   4 -11  123.19    7.60
   5   4 -11  128.99    7.70
   4  -4 -11  257.67   11.10
   4   4 -11  268.77   11.10
   4   4 -11  269.87   11.00
  -4   4  11  275.47    9.80
   3  -4 -11  470.45   12.90
   3  -4 -11  472.95   16.00
   3   4 -11  487.85   15.90
   2  -4 -11   90.49    3.60
  -2  -4  11   79.89    4.90
   2  -4 -11   89.29    5.10
   2   4 -11   87.09    3.10
   2   4 -11   78.49    4.90
  -1  -4  11    2.80    1.30
   1  -4 -11    1.40    1.10
   1  -4 -11    3.00    1.10
   1   4 -11    1.60    0.90
   1   4 -11    2.70    1.30
   0  -4 -11  254.57    9.10
   0  -4  11  265.37    8.60
   0  -4 -11  252.47    8.80
   0   4 -11  272.37    9.50
   0   4 -11  265.97    8.80
   1  -4  11  160.28    5.40
  -1  -4 -11  169.18    6.60
  -1  -4 -11  161.88    6.90
  -1   4 -11  166.08    6.80
  -1   4 -11  157.18    6.80
  -2  -4 -11   94.39    4.50
   2  -4  11   84.79    2.80
  -2  -4 -11   88.19    5.30
  -2   4 -11   84.89    4.70
  -3  -4 -11   65.19    4.90
  -3  -4 -11   73.79    4.00
  -3   4 -11   79.59    5.20
  -3   4 -11   67.49    4.20
  -4  -4 -11    2.80    1.40
  -4  -4 -11    2.80    2.30
  -4   4 -11    1.20    1.70
  -5  -4 -11  179.48    9.40
  -5  -4 -11  167.88    7.00
  -5   4 -11  155.58    7.40
  -6  -4 -11   84.69    5.20
  -6  -4 -11   78.59    6.70
  -6   4 -11   82.99    6.90
  -6   4 -11   80.69    5.60
  -7  -4 -11   72.69    7.80
  -7  -4 -11   62.49    4.90
  -7   4 -11   65.99    7.40
  -7   4 -11   72.99    5.50
  -8  -4 -11    1.10    3.00
  -8   4 -11    0.30    2.00
  -8   4 -11   -0.40    2.70
  -9  -4 -11   -3.20    3.20
  -9   4 -11   -3.20    3.30
  -9  -5  11    1.30    4.00
   9  -5 -11    1.50    3.40
   8  -5 -11   10.60    3.70
  -8  -5  11    2.50    3.30
  -8   5  11    0.20    2.30
  -7  -5  11   20.50    4.80
   7  -5 -11   13.60    3.90
  -7   5  11   20.10    3.80
   6  -5 -11    5.80    2.80
  -6  -5  11    7.50    3.40
  -6   5  11    4.60    2.30
   5  -5 -11   -1.60    1.80
  -5  -5  11    5.20    2.90
  -5   5  11    0.20    1.60
   5   5 -11    4.90    2.30
  -4  -5  11    9.80    2.90
   4  -5 -11    8.40    2.80
   4   5 -11    6.40    2.30
  -4   5  11    1.30    1.70
   3  -5 -11   70.99    5.20
  -3  -5  11   71.69    5.10
   3   5 -11   60.59    4.90
   2  -5 -11   13.30    1.50
   2  -5 -11   13.30    2.50
  -2  -5  11   11.20    2.40
   2   5 -11   13.40    1.50
   2   5 -11    9.90    2.40
  -1  -5  11    7.50    1.80
   1  -5 -11    4.80    1.60
   1  -5 -11    4.70    1.20
   1   5 -11    6.70    1.30
   1   5 -11    3.00    1.60
   0  -5  11  396.46   11.70
   0  -5 -11  357.46   12.20
   0  -5 -11  370.46   11.80
   0   5 -11  366.66   11.70
   0   5 -11  366.86   12.50
   1  -5  11  479.35   13.00
  -1  -5 -11  456.15   14.20
  -1  -5 -11  450.35   14.60
  -1   5 -11  461.05   14.60
  -1   5 -11  436.16   14.40
  -2  -5 -11  409.56   12.30
   2  -5  11  351.16   10.30
  -2   5 -11  411.66   12.70
  -2   5 -11  344.27   12.90
  -3  -5 -11    1.40    1.40
  -3  -5 -11   -0.50    1.70
  -3   5 -11    1.20    1.30
  -3   5 -11    0.90    2.00
  -4  -5 -11   24.00    3.00
  -4  -5 -11   26.10    4.40
  -4   5 -11   23.40    3.20
  -4   5 -11   28.60    4.40
  -5  -5 -11  177.98    7.70
  -5  -5 -11  187.08   10.20
  -5   5 -11  168.98    9.50
  -5   5 -11  178.58    7.80
  -6  -5 -11    6.10    2.90
  -6  -5 -11    7.90    2.40
  -6   5 -11    1.10    2.60
  -6   5 -11    2.80    2.10
  -7  -5 -11    6.90    3.50
  -7  -5 -11    4.20    2.20
  -7   5 -11    1.20    2.10
  -7   5 -11    6.00    3.50
  -8  -5 -11   13.70    4.50
  -8   5 -11    7.60    3.80
  -9  -5 -11    9.20    4.30
  -9   5 -11   -1.10    3.10
   9  -6 -11  213.38   13.30
  -9  -6  11  200.78   13.60
   8  -6 -11    0.40    2.50
  -8  -6  11    5.40    3.80
  -8   6  11    2.90    2.70
  -7  -6  11   66.09    8.10
   7  -6 -11   66.99    7.90
  -7   6  11   60.69    6.10
  -6  -6  11  198.68   11.40
   6  -6 -11  197.38   11.30
  -6   6  11  198.38    9.50
   5  -6 -11   67.89    7.00
  -5  -6  11   61.69    6.50
  -5   6  11   73.49    5.20
   5   6 -11   66.49    6.80
  -4  -6  11   10.30    2.90
   4  -6 -11   19.00    3.80
   4   6 -11   16.50    3.40
  -4   6  11   16.00    3.00
   3  -6 -11  363.46   13.80
  -3  -6  11  361.86   13.60
   3   6 -11  349.47   13.70
  -2  -6  11   31.30    3.70
   2  -6 -11   35.80    4.30
   2   6 -11   35.00    4.20
   2   6 -11   29.50    2.30
   1  -6 -11   29.00    2.70
   1  -6 -11   23.70    3.30
  -1  -6  11   29.30    3.30
   1   6 -11   26.20    3.60
   1   6 -11   30.10    2.90
   0  -6  11  204.28    7.60
   0  -6 -11  203.88    8.40
   0  -6 -11  201.78    7.80
   0   6 -11  188.38    8.40
   0   6 -11  196.98    7.80
  -1  -6 -11   26.90    3.30
   1  -6  11   24.30    2.50
  -1  -6 -11   20.50    3.00
  -1   6 -11   16.60    2.80
  -1   6 -11   22.60    3.20
  -2  -6 -11  490.95   16.80
  -2  -6 -11  515.55   15.80
  -2   6 -11  507.25   16.80
  -2   6 -11  505.55   16.00
  -3  -6 -11   71.19    4.40
  -3  -6 -11   69.39    5.70
  -3   6 -11   72.29    5.60
  -3   6 -11   60.39    4.40
  -4  -6 -11   24.00    4.40
  -4  -6 -11   15.60    2.70
  -4   6 -11   15.10    3.70
  -4   6 -11   17.20    3.00
  -5  -6 -11  229.78   11.60
  -5  -6 -11  229.38    9.50
  -5   6 -11  235.18    9.50
  -5   6 -11  239.08   11.70
  -6  -6 -11    3.90    2.20
  -6  -6 -11    6.30    3.40
  -6   6 -11    7.00    2.40
  -6   6 -11    2.90    2.80
  -7  -6 -11   12.00    3.00
  -7  -6 -11   10.60    4.30
  -7   6 -11    6.90    3.40
  -8  -6 -11   48.50    7.20
  -8   6 -11   58.09    7.80
  -8  -7  11   73.39    8.80
   8  -7 -11   74.89    9.00
  -8   7  11   68.59    6.90
  -7  -7  11   -2.60    2.70
   7  -7 -11   -0.10    2.50
  -7   7  11    0.90    2.20
  -6  -7  11    3.90    3.50
   6  -7 -11   -0.60    2.60
  -6   7  11    0.90    2.60
   5  -7 -11  113.79    8.10
  -5  -7  11  122.79    8.50
   5   7 -11  105.89    8.00
  -5   7  11  112.59    7.20
   4  -7 -11  201.98   10.30
  -4  -7  11  187.28    9.90
   4   7 -11  204.78   10.40
  -4   7  11  182.98    8.90
   3  -7 -11   84.19    6.20
  -3  -7  11   85.79    6.10
   3   7 -11   88.89    6.50
   2  -7 -11    1.50    1.80
  -2  -7  11    1.90    1.90
   2   7 -11    2.20    2.40
   1  -7 -11   30.10    4.00
  -1  -7  11   32.30    3.60
   1   7 -11   35.00    3.40
   1   7 -11   36.20    4.50
   0  -7  11   71.09    4.40
   0  -7 -11   66.99    4.30
   0  -7 -11   59.79    4.70
   0   7 -11   71.39    4.60
   0   7 -11   77.09    5.40
   1  -7  11   98.19    4.80
  -1  -7 -11   94.89    5.90
  -1  -7 -11   95.09    5.80
  -1   7 -11   95.89    5.90
  -1   7 -11   96.89    6.10
  -2  -7 -11   49.80    4.20
  -2  -7 -11   46.00    5.20
  -2   7 -11   48.40    5.10
  -2   7 -11   44.10    4.40
  -3  -7 -11   10.80    2.60
  -3  -7 -11    3.80    2.00
  -3   7 -11   13.80    2.60
  -3   7 -11   11.30    3.00
  -4  -7 -11   18.70    3.10
  -4  -7 -11   27.50    4.70
  -4   7 -11   24.70    4.20
  -4   7 -11   18.90    3.20
  -5  -7 -11   16.90    4.10
  -5  -7 -11   10.60    2.70
  -5   7 -11   12.80    2.80
  -5   7 -11    6.10    2.90
  -6  -7 -11   14.40    3.20
  -6  -7 -11   14.50    4.20
  -6   7 -11    8.40    3.60
  -7  -7 -11   -0.80    2.10
  -7  -7 -11   -0.20    2.80
  -7   7 -11    2.50    3.20
  -8  -7 -11    8.70    4.20
  -8  -7 -11   -3.30    2.60
  -8   7 -11    1.10    3.30
   8  -8 -11   27.60    6.10
  -8  -8  11   34.30    6.70
  -8   8  11   28.90    5.40
   7  -8 -11   26.40    5.80
  -7  -8  11   20.30    5.50
  -7   8  11   26.30    4.70
  -6  -8  11  132.09    9.40
   6  -8 -11  127.49    9.60
  -6   8  11  142.29    8.60
   5  -8 -11   51.59    6.70
  -5  -8  11   42.20    6.00
  -5   8  11   35.70    4.90
   5   8 -11   45.80    6.60
  -4  -8  11    4.90    2.60
   4  -8 -11    0.60    2.20
  -4   8  11    0.40    2.10
   4   8 -11    3.80    2.80
  -3  -8  11   27.50    4.30
   3  -8 -11   35.00    4.90
   3   8 -11   24.30    4.40
   2  -8 -11   73.99    6.00
  -2  -8  11   88.19    5.90
   2   8 -11   76.89    6.10
   1  -8 -11  605.04   20.10
  -1  -8  11  625.24   19.30
   1   8 -11  621.34   20.60
   1   8 -11  640.24   18.70
   0  -8  11  257.07    9.60
   0  -8 -11  250.97   10.40
   0  -8 -11  255.67   10.60
   0   8 -11  237.28    9.70
   0   8 -11  253.47   10.90
  -1  -8 -11   20.20    3.30
   1  -8  11   22.20    2.70
  -1  -8 -11   19.30    3.30
  -1   8 -11   20.10    3.40
  -1   8 -11   17.10    3.20
  -2  -8 -11   17.70    3.40
  -2  -8 -11   12.50    3.10
  -2   8 -11   12.30    3.00
  -2   8 -11   13.60    3.20
  -3  -8 -11    9.00    3.10
  -3  -8 -11    5.70    2.50
  -3   8 -11    5.30    2.20
  -3   8 -11    5.30    2.80
  -4  -8 -11   95.69    6.10
  -4  -8 -11   85.29    7.00
  -4   8 -11   83.49    5.60
  -4   8 -11   96.89    7.30
  -5  -8 -11  129.99    8.90
  -5  -8 -11  123.39    7.30
  -5   8 -11  112.69    8.60
  -6  -8 -11    3.80    3.20
  -6  -8 -11    0.20    2.30
  -6   8 -11    2.80    3.20
  -7  -8 -11    9.70    3.70
  -7  -8 -11   11.10    4.40
  -7   8 -11    7.60    3.90
  -7  -9  11   -0.90    3.20
   7  -9 -11    3.20    3.90
  -7   9  11    0.50    3.20
   6  -9 -11    5.90    3.90
  -6  -9  11    0.40    3.40
  -6   9  11    6.40    3.40
  -5  -9  11   23.40    5.00
   5  -9 -11   18.30    4.90
  -5   9  11   25.50    4.80
   4  -9 -11  173.28   10.30
  -4  -9  11  173.38    9.90
   4   9 -11  181.28   10.80
  -4   9  11  150.58    8.90
   3  -9 -11   74.79    6.40
  -3  -9  11   63.09    6.30
   3   9 -11   69.79    7.30
   2  -9 -11    4.30    2.60
  -2  -9  11    5.90    2.60
   2   9 -11    3.00    2.30
   1  -9 -11   22.20    4.00
  -1  -9  11   29.70    3.90
   1   9 -11   26.20    4.30
   0  -9  11  159.28    7.50
   0  -9 -11  165.48    8.60
   0   9 -11  152.58    8.40
   0   9 -11  162.88    7.90
  -1  -9 -11   12.80    3.00
  -1  -9 -11   17.90    3.30
  -1   9 -11   20.90    3.70
  -1   9 -11   24.10    4.00
  -2  -9 -11  154.38    8.40
  -2  -9 -11  162.28    8.50
  -2   9 -11  147.89    8.40
  -2   9 -11  150.18    7.90
  -3  -9 -11  193.98    9.40
  -3  -9 -11  203.98   10.60
  -3   9 -11  216.38    9.60
  -3   9 -11  206.78   10.60
  -4  -9 -11    4.20    2.60
  -4  -9 -11    0.30    2.20
  -4   9 -11    5.90    3.30
  -5  -9 -11   15.60    3.80
  -5  -9 -11    9.40    3.60
  -5   9 -11   12.60    4.00
  -6  -9 -11    8.00    3.70
  -6  -9 -11    1.60    2.70
  -6   9 -11    4.70    3.40
  -7  -9 -11   26.10    4.80
  -7  -9 -11   17.10    5.30
  -7   9 -11   21.70    5.50
  -6 -10  11    4.80    3.50
   6 -10 -11    8.70    4.20
  -6  10  11    2.10    3.20
  -5 -10  11  251.97   13.30
   5 -10 -11  262.07   14.10
  -5  10  11  270.87   13.00
   4 -10 -11  127.59    9.40
  -4 -10  11  109.29    8.30
   4  10 -11  110.19    8.90
   3 -10 -11   15.90    4.30
  -3 -10  11    9.90    3.40
   3  10 -11   13.30    4.20
  -2 -10  11   30.20    4.40
   2 -10 -11   33.50    5.00
   2  10 -11   40.10    5.60
  -1 -10  11   29.80    4.10
   1 -10 -11   32.10    4.90
   1  10 -11   35.80    5.40
   0 -10 -11    1.90    2.50
   0 -10  11    3.40    2.00
   0  10 -11    1.90    2.30
   0  10 -11    1.20    2.50
  -1 -10 -11   -1.10    2.20
  -1  10 -11    4.10    2.50
  -1  10 -11    3.20    2.30
  -2 -10 -11    2.40    2.50
  -2 -10 -11    6.70    2.70
  -2  10 -11    7.30    2.80
  -2  10 -11    8.60    3.20
  -3 -10 -11   33.80    5.30
  -3 -10 -11   31.80    4.70
  -3  10 -11   37.40    5.50
  -4 -10 -11    1.30    2.30
  -4 -10 -11    1.20    2.40
  -4  10 -11    1.20    2.90
  -5 -10 -11   14.60    4.30
  -5 -10 -11   10.10    3.70
  -5  10 -11   10.70    4.20
  -6 -10 -11   15.20    4.80
  -6 -10 -11    1.30    2.70
  -6  10 -11    7.50    4.40
   5 -11 -11    6.00    4.30
  -5 -11  11    9.80    4.20
   4 -11 -11    7.00    3.90
  -4 -11  11    5.30    3.30
   3 -11 -11    4.80    3.30
  -3 -11  11    3.60    3.20
   3  11 -11    1.60    3.50
   2 -11 -11   22.30    4.70
  -2 -11  11   15.10    3.70
   2  11 -11   21.40    4.80
  -1 -11  11   27.40    4.20
   1 -11 -11   33.60    5.60
   1  11 -11   27.30    5.20
   0 -11 -11    3.80    2.90
   0  11 -11   -0.50    2.50
  -1 -11 -11   93.59    7.10
  -1  11 -11   84.79    6.80
  -1  11 -11   95.89    7.00
  -2 -11 -11    8.00    3.30
  -2  11 -11    3.80    2.70
  -3 -11 -11   33.60    5.00
  -3  11 -11   26.00    4.80
  -4 -11 -11   14.00    3.80
  -4 -11 -11   18.00    4.30
  -4  11 -11   15.90    4.40
  -5 -11 -11    5.40    3.70
  -5 -11 -11    0.30    2.90
  -5  11 -11   -2.10    3.30
  -3 -12  11   12.60    4.10
   3 -12 -11   14.50    4.50
   2 -12 -11   12.40    4.10
  -2 -12  11    8.10    3.50
   2  12 -11    7.40    3.70
   1 -12 -11   20.20    4.60
  -1 -12  11   10.70    4.50
   1  12 -11   27.00    5.30
   0 -12 -11   -2.20    2.50
   0  12 -11    2.70    3.10
  -1 -12 -11   -0.30    2.90
  -1  12 -11    4.10    3.30
  -2 -12 -11   -2.10    2.70
  -2  12 -11    2.40    3.20
  -3 -12 -11    6.90    3.60
  -3  12 -11    3.80    3.20
  10   0 -12    0.60    3.70
   9   0 -12   88.59    9.30
   8   0 -12   -2.10    2.00
   7   0 -12   42.60    5.70
   6   0 -12 1192.98   35.70
   6   0 -12 1218.78   33.70
   5   0 -12 1119.29   32.70
   5   0 -12 1116.19   30.90
   4   0 -12  685.33   19.70
   4   0 -12  663.43   21.10
   3   0 -12  835.42   24.60
   3   0 -12  852.31   23.40
   2   0 -12  663.13   18.40
   2   0 -12  637.54   19.20
   1   0 -12   57.89    3.50
   1   0 -12   57.09    3.40
   0   0 -12  555.34   15.80
   0   0 -12  532.75   15.30
  -1   0 -12  420.56   12.10
  -1   0 -12  455.55   13.60
  -2   0 -12 1315.47   32.70
  -2   0 -12 1327.17   35.10
  -3   0 -12  254.87    7.00
  -3   0 -12  247.98    9.60
  -4   0 -12   66.79    4.60
  -4   0 -12   58.89    2.40
  -5   0 -12 1088.29   31.30
  -6   0 -12  526.95   18.20
  -7   0 -12   44.00    5.40
  -8   0 -12  220.58   11.20
  -9   0 -12    3.20    3.40
  10  -1 -12   73.59    9.10
  10   1 -12   71.19    8.80
   9  -1 -12   10.80    4.10
   9   1 -12    7.60    3.70
   8  -1 -12    6.60    3.30
   8   1 -12    8.70    3.30
   7  -1 -12  114.49    8.00
   7   1 -12  119.59    8.10
   6  -1 -12  267.37   12.60
   6   1 -12  284.47   11.50
   6   1 -12  292.57   12.80
   5  -1 -12  207.08    8.10
   5  -1 -12  205.68    9.90
   5   1 -12  210.38    9.00
  -5   1  12  199.38    6.80
   5   1 -12  203.98    9.90
   4  -1 -12    1.40    1.40
   4  -1 -12    2.70    1.20
   4   1 -12    1.90    1.40
   4   1 -12    1.20    1.20
   3  -1 -12   78.89    5.00
   3  -1 -12   79.19    4.20
   3   1 -12   88.49    5.20
   2  -1 -12   75.89    4.60
   2  -1 -12   81.39    3.90
   2   1 -12   80.69    4.40
   2   1 -12   71.59    4.50
   1  -1 -12   91.69    4.20
   1  -1 -12   88.09    4.50
   1   1 -12   94.19    4.50
   1   1 -12   85.09    4.40
   0  -1 -12 1235.08   32.60
   0  -1 -12 1277.07   33.00
   0   1 -12 1271.27   33.10
   0   1 -12 1281.37   32.40
  -1  -1 -12   10.90    1.50
  -1  -1 -12    7.80    1.70
  -1   1 -12   10.20    1.30
  -1   1 -12   10.20    1.90
  -2  -1 -12    0.70    0.70
  -2  -1 -12    0.70    1.30
  -2   1 -12    2.60    1.40
  -2   1 -12   -0.10    0.40
  -3  -1 -12   52.79    4.20
  -3  -1 -12   50.29    2.60
  -3   1 -12   53.39    3.80
  -4  -1 -12  303.97    8.70
  -4  -1 -12  289.67   11.40
  -4   1 -12  300.97   11.10
  -5  -1 -12   47.60    5.20
  -5  -1 -12   41.10    2.70
  -5   1 -12   48.00    5.10
  -6  -1 -12    9.50    3.40
  -6   1 -12   10.70    3.10
  -7  -1 -12   29.80    4.70
  -7   1 -12   16.30    3.50
  -8  -1 -12  188.98   10.80
  -8   1 -12  186.78   10.20
  -9  -1 -12   -0.70    3.00
  -9   1 -12    1.50    3.00
  10  -2 -12    8.00    3.90
  10   2 -12    3.00    3.70
   9  -2 -12  107.79   10.40
   9   2 -12  126.99    9.60
   8  -2 -12   19.80    4.50
   8   2 -12   25.70    5.10
   7  -2 -12   18.10    4.00
   7   2 -12   13.50    3.70
   6  -2 -12  573.04   20.70
   6   2 -12  577.44   19.60
   6   2 -12  574.94   20.40
  -6   2  12  596.14   17.00
   5  -2 -12  112.89    7.20
   5  -2 -12  119.89    5.40
  -5   2  12  114.79    5.10
   5   2 -12  109.59    7.10
   4  -2 -12  126.99    7.00
   4  -2 -12  127.09    5.40
   4   2 -12  139.19    6.90
   4   2 -12  130.59    7.00
   3  -2 -12  235.08    7.90
   3  -2 -12  219.68    9.40
   3   2 -12  238.18    9.50
   3   2 -12  238.38    9.10
   2  -2 -12   73.69    3.60
   2  -2 -12   71.09    4.40
   2   2 -12   70.99    2.40
   2   2 -12   64.19    4.20
   2   2 -12   75.19    4.30
   1  -2 -12  347.77   11.50
   1  -2 -12  352.86   10.70
   1   2 -12  347.17   11.50
   1   2 -12  355.96   11.20
   0  -2 -12   64.79    3.70
   0  -2 -12   71.19    3.80
   0   2 -12   68.89    4.00
   0   2 -12   66.79    3.30
  -1  -2 -12  316.07   10.70
  -1  -2 -12  327.07    9.90
  -1   2 -12  319.77    8.90
  -1   2 -12  315.27   10.60
  -2  -2 -12  543.55   14.90
  -2  -2 -12  549.85   16.80
  -2   2 -12  526.65   16.10
  -3  -2 -12  479.15   13.40
  -3  -2 -12  479.55   15.80
  -3   2 -12  488.65   15.30
  -4  -2 -12  449.46   15.60
  -4  -2 -12  451.05   12.80
  -4   2 -12  453.65   14.80
  -5  -2 -12  119.89    5.10
  -5  -2 -12  124.39    7.30
  -5   2 -12  119.19    6.60
  -6  -2 -12   22.30    4.10
  -6   2 -12   21.40    3.60
  -7  -2 -12   47.60    6.00
  -7   2 -12   51.09    5.40
  -8  -2 -12   92.69    7.60
  -8   2 -12   98.29    7.20
  -9  -2 -12    7.10    3.60
  -9   2 -12    8.80    3.50
  10  -3 -12    3.70    3.40
   9  -3 -12   37.40    6.30
   9   3 -12   28.40    5.70
   8  -3 -12   31.50    5.60
   8   3 -12   28.90    5.30
   7  -3 -12    6.30    2.80
   7   3 -12   10.00    3.50
   6  -3 -12   91.49    7.10
  -6   3  12   88.19    5.10
   6   3 -12   75.69    6.50
   6   3 -12   86.29    6.50
   5  -3 -12   63.49    6.40
   5   3 -12   63.19    6.30
   5   3 -12   66.29    5.30
  -5   3  12   51.19    3.70
   4  -3 -12  403.76   12.00
   4  -3 -12  410.66   15.10
  -4   3  12  418.76   12.80
   4   3 -12  421.96   14.60
   4   3 -12  419.16   14.90
   3  -3 -12  176.78    6.20
   3  -3 -12  178.58    8.20
   3   3 -12  172.68    8.00
   3   3 -12  188.88    8.20
   2  -3 -12   12.50    2.30
   2  -3 -12   10.20    1.50
   2   3 -12    9.90    2.20
   2   3 -12   11.50    2.20
   2   3 -12    9.70    0.90
   1  -3 -12  369.86   12.30
   1  -3 -12  388.66   11.40
   1   3 -12  371.86   10.70
   1   3 -12  375.56   12.40
   1   3 -12  365.26   11.70
   0  -3 -12  435.86   13.30
   0  -3 -12  433.76   13.10
   0   3 -12  432.26   13.60
  -1  -3 -12  577.44   16.30
   1  -3  12  559.84   14.90
  -1   3 -12  565.34   16.80
  -2  -3 -12  590.94   18.20
  -2  -3 -12  580.34   16.50
  -2   3 -12  604.44   17.60
  -3  -3 -12  687.53   20.90
  -3  -3 -12  677.83   18.60
  -3   3 -12  667.13   19.80
  -4  -3 -12   25.30    3.90
  -4  -3 -12   23.00    2.50
  -4   3 -12   23.00    3.20
  -5  -3 -12    7.70    2.60
  -5  -3 -12    5.30    1.70
  -5   3 -12    6.20    2.20
  -6  -3 -12   77.69    4.70
  -6  -3 -12   85.59    7.00
  -6   3 -12   87.19    5.90
  -7  -3 -12    7.20    3.20
  -7   3 -12    4.50    2.60
  -8  -3 -12   15.60    4.50
  -8   3 -12   14.40    3.30
  -9  -3 -12    6.30    3.70
  -9   3 -12    4.70    4.20
  -9   3 -12    4.10    2.90
  -9  -4  12   12.50    4.50
   9  -4 -12   10.40    4.10
   8  -4 -12   37.10    6.20
   7  -4 -12   39.80    6.00
  -7   4  12   40.00    4.40
   7   4 -12   39.90    5.70
   6  -4 -12   16.20    3.90
   6   4 -12   15.10    3.60
  -6   4  12   15.60    2.80
   6   4 -12   17.20    3.90
   5  -4 -12  563.74   20.10
   5   4 -12  591.74   19.90
   5   4 -12  586.54   19.90
  -5   4  12  578.74   17.60
   4  -4 -12  215.98    9.90
   4   4 -12  191.98    9.10
  -4   4  12  190.58    7.80
   4   4 -12  193.18    9.10
   3  -4 -12  356.86   10.30
   3  -4 -12  358.36   13.20
   3   4 -12  344.17   12.90
   3   4 -12  361.66   12.80
  -2  -4  12  275.57   10.40
   2  -4 -12  281.57    8.60
   2  -4 -12  268.57   10.50
   2   4 -12  273.67   10.50
   2   4 -12  282.67    7.70
  -1  -4  12  178.48    7.10
   1  -4 -12  176.18    6.40
   1  -4 -12  170.68    7.40
   1   4 -12  167.48    7.40
   1   4 -12  172.98    6.00
   0  -4  12    1.70    1.10
   0  -4 -12    1.80    1.20
   0  -4 -12    1.70    1.20
   0   4 -12    0.30    1.00
   0   4 -12    3.60    1.60
   1  -4  12  706.93   18.50
  -1  -4 -12  727.73   20.10
  -1  -4 -12  717.73   20.70
  -1   4 -12  700.03   20.50
  -1   4 -12  696.23   20.40
  -2  -4 -12  462.05   13.90
  -2  -4 -12  461.85   15.30
  -2   4 -12  469.25   15.30
  -2   4 -12  469.75   14.70
  -3  -4 -12 1196.38   31.50
  -3  -4 -12 1226.68   34.10
  -3   4 -12 1185.18   32.50
  -4  -4 -12  602.84   17.10
  -4  -4 -12  593.24   19.90
  -4   4 -12  570.44   17.90
  -5  -4 -12   87.19    6.90
  -5  -4 -12   87.79    4.90
  -5   4 -12   83.09    5.50
  -6  -4 -12   46.10    3.80
  -6  -4 -12   41.40    5.60
  -6   4 -12   56.49    5.30
  -7  -4 -12   73.29    7.70
  -7   4 -12   65.79    7.40
  -7   4 -12   64.99    5.50
  -8  -4 -12    0.30    2.80
  -8   4 -12   -3.00    1.90
  -8   4 -12   -3.10    2.40
  -9  -4 -12    4.50    4.00
  -9   4 -12    5.40    3.80
   9  -5 -12   -0.20    3.20
  -9  -5  12   20.40    5.70
   8  -5 -12   -1.70    2.50
  -8  -5  12   -1.20    3.00
  -7  -5  12   62.19    7.50
   7  -5 -12   56.69    7.10
  -7   5  12   61.19    5.70
   6  -5 -12    5.20    2.90
  -6  -5  12    6.00    3.20
  -6   5  12    8.70    2.50
   6   5 -12    4.50    2.50
  -5  -5  12  108.89    7.60
   5  -5 -12  123.59    7.90
  -5   5  12  119.69    6.40
   5   5 -12  127.39    8.00
   4  -5 -12   46.70    5.30
  -4  -5  12   51.69    5.40
  -4   5  12   61.99    4.30
   4   5 -12   48.30    5.30
  -3  -5  12    3.20    1.90
   3  -5 -12    4.00    2.10
   3   5 -12    3.50    2.00
   2  -5 -12  308.57   11.70
  -2  -5  12  311.07   11.40
   2  -5 -12  297.07    9.10
   2   5 -12  297.37    9.30
   2   5 -12  301.77   11.70
   1  -5 -12   70.99    3.70
   1  -5 -12   67.69    4.50
  -1  -5  12   70.69    4.30
   1   5 -12   66.39    4.60
   1   5 -12   63.09    3.40
   0  -5 -12  181.78    7.70
   0  -5  12  181.68    6.90
   0  -5 -12  173.98    7.10
   0   5 -12  185.38    7.90
   0   5 -12  184.28    7.20
   1  -5  12  523.15   14.00
  -1  -5 -12  495.45   15.70
  -1  -5 -12  491.75   15.30
  -1   5 -12  474.55   15.60
  -1   5 -12  499.45   15.80
  -2  -5 -12    6.30    1.60
  -2   5 -12    1.10    1.60
  -2   5 -12    4.60    2.10
  -3  -5 -12   57.89    5.70
  -3  -5 -12   68.29    4.30
  -3   5 -12   57.09    4.40
  -3   5 -12   64.09    5.30
  -4  -5 -12  244.88   11.20
  -4  -5 -12  252.07    9.00
  -4   5 -12  222.68   10.80
  -4   5 -12  223.28    9.20
  -5  -5 -12  216.58    8.60
  -5  -5 -12  210.98   10.90
  -5   5 -12  203.58   10.70
  -5   5 -12  216.08    9.10
  -6  -5 -12    6.10    2.20
  -6  -5 -12    2.60    2.60
  -6   5 -12    1.40    2.70
  -6   5 -12    2.70    2.20
  -7  -5 -12    3.70    3.20
  -7  -5 -12    3.00    2.20
  -7   5 -12    1.60    2.30
  -7   5 -12    5.50    3.20
  -8  -5 -12   35.40    6.20
  -8   5 -12   39.10    6.50
  -9  -5 -12    7.80    4.50
  -9   5 -12   21.40    5.40
  -9  -6  12    2.20    4.20
   9  -6 -12    0.10    3.40
  -8  -6  12    7.20    4.30
   8  -6 -12    7.20    3.70
  -8   6  12    3.70    2.80
  -7  -6  12   -1.30    2.90
   7  -6 -12   -0.50    2.70
  -7   6  12    1.30    2.40
   6  -6 -12   68.89    7.70
  -6  -6  12   60.29    7.00
   6   6 -12   68.19    7.60
  -6   6  12   63.29    5.50
  -5  -6  12    5.70    3.10
   5  -6 -12    7.10    3.00
   5   6 -12    5.80    2.70
  -5   6  12    5.40    2.50
   4  -6 -12    5.10    2.90
  -4  -6  12    2.20    2.00
  -4   6  12    4.70    2.20
   4   6 -12    0.60    1.90
   3  -6 -12    6.00    2.20
  -3  -6  12    2.10    1.70
   3   6 -12    6.30    2.50
   2  -6 -12    8.90    2.70
  -2  -6  12   10.10    2.40
   2   6 -12    9.50    2.60
  -1  -6  12   55.59    4.10
   1  -6 -12   52.09    4.40
   1  -6 -12   60.59    3.50
   1   6 -12   60.59    4.80
   1   6 -12   54.79    3.50
   0  -6 -12  590.24   18.40
   0  -6 -12  585.44   17.60
   0  -6  12  597.64   17.30
   0   6 -12  589.34   17.70
   0   6 -12  621.74   19.10
   1  -6  12    4.60    1.40
  -1  -6 -12    4.20    2.00
  -1  -6 -12    5.20    1.90
  -1   6 -12    8.00    2.20
  -1   6 -12    6.00    2.20
  -2  -6 -12   48.60    4.10
  -2  -6 -12   45.80    4.90
  -2   6 -12   47.60    4.70
  -2   6 -12   50.59    4.10
  -3  -6 -12   31.80    3.60
  -3  -6 -12   25.70    4.00
  -3   6 -12   23.90    4.10
  -3   6 -12   28.70    3.50
  -4  -6 -12   33.00    4.80
  -4  -6 -12   25.10    3.20
  -4   6 -12   29.90    3.80
  -4   6 -12   27.00    4.40
  -5  -6 -12    4.60    2.10
  -5  -6 -12    3.40    2.80
  -5   6 -12    2.20    2.40
  -5   6 -12    5.00    2.30
  -6  -6 -12    3.00    3.30
  -6  -6 -12   -0.20    2.00
  -6   6 -12    1.90    3.10
  -6   6 -12    4.30    2.30
  -7  -6 -12   25.10    4.00
  -7  -6 -12   29.60    5.60
  -7   6 -12   27.10    5.30
  -8  -6 -12   20.00    5.40
  -8   6 -12   28.10    5.60
   8  -7 -12    8.30    4.10
  -8  -7  12    4.50    4.30
  -8   7  12   11.00    3.60
   7  -7 -12  183.38   12.00
  -7  -7  12  182.38   11.80
  -7   7  12  172.18    9.40
  -6  -7  12   78.39    8.20
   6  -7 -12   96.59    9.30
  -6   7  12   70.99    6.20
   5  -7 -12  112.39    8.40
  -5  -7  12  116.39    8.20
  -5   7  12  109.39    7.10
   5   7 -12   92.09    7.80
   4  -7 -12  414.46   16.50
  -4  -7  12  405.06   16.00
   4   7 -12  419.66   16.60
  -4   7  12  420.26   15.10
   3  -7 -12  106.59    7.10
   3   7 -12  107.69    7.10
   2  -7 -12  793.42   24.60
  -2  -7  12  805.52   24.00
   2   7 -12  780.02   24.90
   1  -7 -12   29.90    4.00
  -1  -7  12   29.80    3.50
   1   7 -12   33.30    4.40
   1   7 -12   33.50    3.30
   0  -7 -12   40.10    3.90
   0  -7  12   43.90    3.60
   0  -7 -12   32.10    4.00
   0   7 -12   31.40    3.50
   0   7 -12   39.40    4.60
   1  -7  12 1181.88   30.70
  -1  -7 -12 1144.09   32.40
  -1  -7 -12 1166.78   32.40
  -1   7 -12 1163.58   32.50
  -1   7 -12 1168.98   32.80
  -2  -7 -12  658.53   20.00
  -2  -7 -12  653.63   21.00
  -2   7 -12  664.53   20.20
  -2   7 -12  636.74   20.80
  -3  -7 -12   36.40    4.00
  -3   7 -12   30.80    4.50
  -3   7 -12   30.50    3.80
  -4  -7 -12   19.50    3.30
  -4  -7 -12   27.30    4.80
  -4   7 -12   24.70    3.60
  -4   7 -12   31.30    4.70
  -5  -7 -12   56.89    6.80
  -5  -7 -12   50.39    4.90
  -5   7 -12   50.39    6.20
  -5   7 -12   40.70    4.40
  -6  -7 -12   33.80    4.40
  -6  -7 -12   27.70    5.30
  -6   7 -12   27.40    5.00
  -7  -7 -12   -0.50    3.10
  -7  -7 -12   -1.70    2.30
  -7   7 -12   -0.10    2.80
  -8  -7 -12    0.30    3.10
  -8   7 -12    4.00    3.60
  -8  -8  12   11.80    4.60
   8  -8 -12   10.00    4.70
  -7  -8  12   74.19    8.60
   7  -8 -12   77.09    9.10
  -7   8  12   80.99    6.70
   6  -8 -12   25.90    5.50
  -6  -8  12   20.20    5.10
  -6   8  12   14.80    4.00
   5  -8 -12  170.68   10.40
  -5  -8  12  159.18    9.90
  -5   8  12  150.48    8.80
   5   8 -12  169.18   10.60
   4  -8 -12   82.39    7.00
  -4  -8  12   83.29    6.90
   4   8 -12   81.59    8.10
   3  -8 -12   59.49    6.50
   3   8 -12   65.69    6.70
   2  -8 -12   12.70    3.30
  -2  -8  12   19.70    3.40
   2   8 -12   13.40    3.60
   1  -8 -12   -0.10    1.80
  -1  -8  12    0.80    1.70
   1   8 -12   -0.80    1.80
   0  -8 -12   79.59    5.60
   0  -8  12   74.39    4.80
   0   8 -12   75.39    5.20
   0   8 -12   81.69    6.10
  -1  -8 -12   26.00    3.80
  -1  -8 -12   23.40    3.50
  -1   8 -12   30.70    4.00
  -1   8 -12   22.00    3.50
  -2  -8 -12   58.89    4.90
  -2  -8 -12   60.99    5.20
  -2   8 -12   70.69    5.70
  -2   8 -12   63.79    5.30
  -3  -8 -12   72.99    5.60
  -3  -8 -12   64.19    6.50
  -3   8 -12   66.39    6.70
  -3   8 -12   68.29    5.20
  -4  -8 -12  242.18   12.00
  -4  -8 -12  209.88    9.60
  -4   8 -12  236.88   11.50
  -4   8 -12  227.28    9.70
  -5  -8 -12   16.20    4.30
  -5  -8 -12   20.10    3.70
  -5   8 -12   11.00    3.70
  -6  -8 -12    1.70    3.40
  -6  -8 -12    1.80    2.50
  -6   8 -12    2.10    3.00
  -7  -8 -12   64.49    6.60
  -7  -8 -12   49.90    7.30
  -7   8 -12   48.50    7.20
   7  -9 -12   11.50    4.80
  -7  -9  12    7.70    4.50
  -7   9  12    6.10    3.50
   6  -9 -12   -2.80    3.00
  -6  -9  12   -5.60    2.60
  -6   9  12   -3.00    2.10
  -5  -9  12   29.80    5.40
   5  -9 -12   31.90    5.90
   5   9 -12   33.10    6.00
  -5   9  12   17.00    3.90
   4  -9 -12   62.49    7.20
  -4  -9  12   60.69    6.60
   4   9 -12   80.39    8.50
   3  -9 -12    5.50    2.90
  -3  -9  12   -1.00    1.30
   3   9 -12    5.70    2.90
   2  -9 -12   19.10    4.10
  -2  -9  12   23.50    3.90
   2   9 -12   14.10    3.70
   1  -9 -12   -0.40    1.90
  -1  -9  12    0.00    1.80
   1   9 -12    1.20    2.30
   0  -9  12   -0.60    1.50
   0  -9 -12   -0.70    1.80
   0   9 -12    0.70    1.80
   0   9 -12    0.10    1.80
  -1  -9 -12   75.89    5.80
  -1   9 -12   69.29    5.50
  -1   9 -12   79.89    6.00
  -2  -9 -12    0.30    2.00
  -2  -9 -12   -4.10    1.90
  -2   9 -12    1.90    2.00
  -2   9 -12   -0.10    2.10
  -3  -9 -12  105.49    7.50
  -3  -9 -12   91.19    6.30
  -3   9 -12   99.39    6.50
  -3   9 -12   75.89    6.70
  -4  -9 -12   15.90    4.00
  -4  -9 -12   22.20    3.90
  -4   9 -12   22.10    4.60
  -5  -9 -12   26.80    5.10
  -5  -9 -12   24.20    4.00
  -5   9 -12   29.30    5.20
  -6  -9 -12   10.00    3.50
  -6  -9 -12    5.40    3.60
  -6   9 -12    4.80    3.80
   6 -10 -12    4.00    3.60
  -6 -10  12    5.60    4.00
  -6  10  12    0.10    3.30
  -5 -10  12   11.50    3.80
   5 -10 -12   14.30    5.00
  -4 -10  12   15.90    4.10
   4 -10 -12   11.70    4.10
   4  10 -12   10.20    4.20
   3 -10 -12   23.10    4.70
   3  10 -12   33.30    5.60
   2 -10 -12   85.59    8.20
  -2 -10  12   81.69    6.40
   2  10 -12   84.69    7.10
  -1 -10  12    0.30    2.00
   1 -10 -12    2.40    2.50
   1  10 -12    0.30    2.60
   0 -10 -12   41.50    5.40
   0  10 -12   25.30    4.40
  -1 -10 -12  115.99    7.50
  -1  10 -12  119.69    7.60
  -1  10 -12  118.59    7.40
  -2 -10 -12    5.80    3.00
  -2  10 -12    0.00    2.30
  -2  10 -12    6.10    2.80
  -3 -10 -12    0.90    2.50
  -3 -10 -12    3.80    2.80
  -3  10 -12    3.00    2.60
  -4 -10 -12   80.49    8.40
  -4 -10 -12   74.79    6.20
  -4  10 -12   69.69    7.60
  -5 -10 -12   48.80    7.00
  -5 -10 -12   45.10    5.70
  -5  10 -12   43.80    6.40
  -5 -11  12   23.00    5.30
   5 -11 -12   17.30    5.20
   4 -11 -12    8.70    4.10
  -4 -11  12    9.70    3.80
   3 -11 -12    4.10    3.20
  -3 -11  12   -2.20    1.40
   3  11 -12    0.00    3.10
   2 -11 -12   26.70    5.40
  -2 -11  12   33.10    4.80
   2  11 -12   31.50    5.50
   1 -11 -12  191.88   10.80
  -1 -11  12  179.08    9.20
   1  11 -12  186.18   10.90
   0 -11 -12  216.28   11.10
   0  11 -12  216.28   11.40
  -1 -11 -12  134.49    8.50
  -1  11 -12  119.39    8.10
  -1  11 -12  122.79    8.00
  -2 -11 -12   64.99    6.70
  -2  11 -12   80.09    7.60
  -3 -11 -12   82.19    7.70
  -3  11 -12   52.29    6.60
  -4 -11 -12   15.00    4.40
  -4 -11 -12   20.90    4.80
  -4  11 -12   17.50    4.70
   3 -12 -12   54.59    7.40
   3  12 -12   59.59    8.10
   2 -12 -12    8.60    3.90
  -2 -12  12    5.40    3.40
   2  12 -12    9.90    4.20
   1 -12 -12   12.20    4.30
   1  12 -12    3.30    3.70
   0 -12 -12   13.50    4.50
   0  12 -12   21.10    4.60
  -1 -12 -12    6.30    3.30
  -2 -12 -12   30.60    5.30
  -2  12 -12   39.00    5.70
  10   0 -13   -4.40    3.00
   9   0 -13    2.20    3.40
   8   0 -13   -2.50    2.20
   7   0 -13    4.90    2.80
   6   0 -13   -1.30    2.10
   6   0 -13    1.10    1.70
   5   0 -13    1.60    1.50
   5   0 -13    2.60    2.10
   4   0 -13    0.50    1.30
   4   0 -13    0.60    1.10
   3   0 -13    0.10    1.20
   3   0 -13   -0.80    0.80
   2   0 -13    0.90    1.30
   2   0 -13   -0.50    0.90
   1   0 -13   -0.80    0.80
   1   0 -13    0.00    0.80
   0   0 -13    6.30    1.60
  -1   0 -13    1.20    1.10
  -1   0 -13    0.20    0.60
  -2   0 -13   -0.50    1.10
  -2   0 -13   -0.30    0.70
  -3   0 -13   -0.10    1.10
  -3   0 -13    0.00    0.50
  -4   0 -13   -0.70    1.80
  -5   0 -13    0.60    2.30
  -6   0 -13   -0.30    2.50
  -7   0 -13    1.80    2.50
  -8   0 -13   -3.10    2.30
  -9   0 -13    2.70    3.00
  10  -1 -13   10.00    4.40
  10   1 -13   15.10    4.90
   9  -1 -13   37.50    6.30
   9   1 -13   32.20    5.90
   8  -1 -13    2.90    3.00
   8   1 -13    0.00    2.10
   7  -1 -13   40.90    5.90
   7   1 -13   39.50    5.60
   6  -1 -13   88.49    5.30
   6  -1 -13   66.99    6.90
   6   1 -13   79.19    6.70
   6   1 -13   75.99    5.70
   5  -1 -13  609.84   18.10
   5  -1 -13  589.24   20.30
   5   1 -13  608.34   19.10
   5   1 -13  578.34   20.10
   4  -1 -13    1.70    1.50
   4  -1 -13   -0.50    1.10
   4   1 -13    2.70    1.40
   4   1 -13   -0.10    1.40
   3  -1 -13    1.60    1.00
   3  -1 -13    0.70    1.20
   3   1 -13    1.90    1.50
   3   1 -13    0.10    0.60
   2  -1 -13  842.22   24.00
   2  -1 -13  813.82   22.60
   2   1 -13  859.91   23.40
   2   1 -13  817.42   23.70
   1  -1 -13  818.52   22.00
   1  -1 -13  794.32   22.50
   1   1 -13  789.52   22.30
   1   1 -13  814.42   22.40
   0  -1 -13   47.60    3.20
   0  -1 -13   51.59    3.20
   0   1 -13   50.69    3.40
   0   1 -13   46.80    2.90
  -1  -1 -13  191.08    7.40
  -1  -1 -13  189.28    6.50
  -1   1 -13  183.98    6.10
  -1   1 -13  179.68    7.20
  -2  -1 -13  711.93   19.00
  -2  -1 -13  710.03   21.00
  -2   1 -13  719.33   18.00
  -2   1 -13  744.03   21.00
  -3  -1 -13  101.69    6.00
  -3  -1 -13  111.49    4.10
  -3   1 -13  110.29    5.70
  -4  -1 -13  170.18    8.20
  -4  -1 -13  168.78    5.50
  -4   1 -13  153.58    7.60
  -5  -1 -13  615.14   20.20
  -5   1 -13  614.24   19.70
  -6  -1 -13  251.97   11.40
  -6   1 -13  247.78   11.00
  -7  -1 -13   27.20    4.60
  -7   1 -13   25.20    4.20
  -8  -1 -13   19.40    4.70
  -8   1 -13   14.20    4.00
  -9  -1 -13   33.40    5.70
  -9   1 -13   28.90    4.90
  10  -2 -13    4.50    4.00
  10   2 -13   -1.00    3.40
   9  -2 -13   14.10    4.40
   9   2 -13   14.70    4.50
   8  -2 -13   64.49    7.60
   8   2 -13   59.69    7.20
   7  -2 -13   72.59    7.40
   7   2 -13   73.49    7.40
   6  -2 -13  173.68   10.00
   6   2 -13  186.38   10.00
   6   2 -13  176.58    9.10
   5  -2 -13   41.90    5.10
   5  -2 -13   40.90    3.30
   5   2 -13   48.00    5.50
  -5   2  13   42.80    3.10
   4  -2 -13  281.87   11.70
   4  -2 -13  277.87    9.50
   4   2 -13  298.87   11.20
   4   2 -13  276.37   11.40
   3  -2 -13  982.40   28.00
   3  -2 -13  936.71   25.50
   3   2 -13  976.10   27.20
   3   2 -13  941.21   27.50
   2  -2 -13  324.87   10.00
   2  -2 -13  298.47   11.10
   2   2 -13  309.67   11.00
   2   2 -13  315.37   11.10
   1  -2 -13  843.02   22.10
   1  -2 -13  793.92   22.80
   1   2 -13  819.82   22.90
   1   2 -13  782.02   22.30
   0  -2 -13  220.98    7.90
   0  -2 -13  209.98    7.90
   0   2 -13  220.68    7.40
   0   2 -13  225.28    8.30
  -1  -2 -13  342.77   10.60
  -1  -2 -13  338.67   11.40
  -1   2 -13  349.67   11.50
  -1   2 -13  337.37    9.60
  -2  -2 -13    3.10    1.60
  -2  -2 -13    3.50    1.20
  -2   2 -13    7.10    1.80
  -3  -2 -13  154.68    5.60
  -3  -2 -13  148.59    7.30
  -3   2 -13  147.59    6.80
  -4  -2 -13   30.40    4.00
  -4  -2 -13   22.90    2.30
  -4   2 -13   21.70    3.20
  -5  -2 -13   11.50    3.20
  -5  -2 -13    9.80    1.80
  -5   2 -13    7.30    2.70
  -6  -2 -13   60.99    6.70
  -6   2 -13   63.89    5.50
  -7  -2 -13   83.39    6.90
  -7   2 -13   79.89    6.30
  -8  -2 -13   43.30    6.10
  -8   2 -13   57.39    6.30
  -9  -2 -13    1.30    3.00
  -9   2 -13   -1.40    2.50
   9  -3 -13   22.40    5.40
   9   3 -13   21.20    4.80
   8  -3 -13   30.70    5.80
   8   3 -13   29.70    5.30
   7  -3 -13   28.30    5.00
   7   3 -13   24.80    4.80
   6  -3 -13   15.90    3.80
  -6   3  13   13.40    2.40
   6   3 -13   16.70    3.60
   6   3 -13   17.80    3.90
   5  -3 -13   68.49    6.60
   5   3 -13   61.09    6.00
  -5   3  13   55.99    3.80
   5   3 -13   50.39    5.60
   4  -3 -13   29.10    2.40
   4  -3 -13   29.40    4.00
   4   3 -13   29.00    4.20
   4   3 -13   30.90    4.20
   3  -3 -13  131.89    7.10
   3  -3 -13  145.69    5.60
   3   3 -13  145.89    7.30
   3   3 -13  147.29    7.20
   2  -3 -13  587.84   16.20
   2  -3 -13  563.84   18.00
   2   3 -13  571.64   14.50
   2   3 -13  555.54   17.50
   2   3 -13  588.74   18.00
   1  -3 -13   -0.10    1.00
   1  -3 -13    1.70    1.10
   1   3 -13   -0.10    1.10
   1   3 -13    1.30    0.80
   1   3 -13    1.60    1.40
   0  -3 -13  878.21   23.90
   0  -3 -13  880.31   24.10
   0   3 -13  861.71   24.40
   1  -3  13  302.97    8.70
  -1  -3 -13  297.87    9.90
  -1   3 -13  298.67   10.50
  -2  -3 -13  149.69    7.10
  -2  -3 -13  142.39    5.80
  -2   3 -13  140.79    6.50
  -3  -3 -13  699.33   21.10
  -3  -3 -13  669.43   18.50
  -3   3 -13  639.94   19.70
  -4  -3 -13   32.30    2.90
  -4  -3 -13   33.80    4.60
  -4   3 -13   33.10    3.80
  -5  -3 -13   16.30    3.70
  -5  -3 -13   15.00    2.20
  -5   3 -13   15.10    3.20
  -6  -3 -13  216.28   11.00
  -6   3 -13  212.38    9.70
  -7  -3 -13    1.20    2.60
  -7   3 -13    0.70    2.40
  -8  -3 -13   19.00    4.80
  -8   3 -13   17.70    3.70
  -9  -3 -13   13.10    4.60
  -9   3 -13   23.00    4.40
   9  -4 -13   69.69    8.80
  -9  -4  13   82.19    9.50
   8  -4 -13   32.70    5.90
   7  -4 -13   48.20    6.40
  -7   4  13   69.29    8.30
   7   4 -13   46.40    6.10
   6  -4 -13   16.30    4.00
   6   4 -13   15.10    3.60
   6   4 -13   16.70    3.70
  -6   4  13   22.10    3.20
   5  -4 -13   76.59    6.30
   5   4 -13   74.49    6.20
   5   4 -13   78.09    6.00
  -5   4  13   67.09    4.60
   4  -4 -13  203.58    9.90
   4   4 -13  215.28    9.90
   4   4 -13  207.18    9.60
   3  -4 -13   60.49    3.10
   3  -4 -13   59.09    5.00
   3   4 -13   59.99    4.70
   3   4 -13   56.29    5.20
   2  -4 -13  148.99    5.70
   2  -4 -13  162.78    7.50
   2   4 -13  144.99    7.20
   1  -4 -13  507.45   16.10
  -1  -4  13  496.65   15.50
   1  -4 -13  518.55   14.80
   1   4 -13  490.15   16.00
   1   4 -13  508.75   14.10
   0  -4 -13  145.39    6.10
   0  -4 -13  131.89    6.20
   0  -4  13  145.19    5.80
   0   4 -13  143.39    6.60
   0   4 -13  137.69    5.90
  -1  -4 -13  183.78    7.90
   1  -4  13  187.38    6.10
  -1  -4 -13  181.08    7.40
  -1   4 -13  192.98    7.90
  -1   4 -13  191.48    7.80
  -2  -4 -13  930.71   24.50
  -2  -4 -13  883.91   25.90
  -2   4 -13  863.21   25.10
  -3  -4 -13    5.30    2.50
  -3  -4 -13    5.80    1.90
  -3   4 -13    8.70    2.40
  -4  -4 -13   67.89    5.80
  -4  -4 -13   73.39    4.30
  -4   4 -13   76.09    5.20
  -5  -4 -13   25.30    4.60
  -5  -4 -13   29.00    3.20
  -5   4 -13   26.60    3.80
  -6  -4 -13    1.00    1.80
  -6  -4 -13    0.60    2.50
  -6   4 -13    2.10    2.10
  -7  -4 -13  113.49    8.80
  -7   4 -13  113.59    7.10
  -7   4 -13  113.99    8.60
  -8  -4 -13    1.70    3.10
  -8   4 -13    0.50    2.60
  -8   4 -13    2.60    3.20
  -9  -4 -13    4.00    4.10
  -9   4 -13   -0.50    3.00
   9  -5 -13    0.30    3.30
  -9  -5  13   -1.70    3.40
   8  -5 -13    2.50    3.50
  -8  -5  13    7.90    4.30
   7  -5 -13   10.00    3.90
  -7  -5  13   22.40    5.30
  -7   5  13   12.70    3.10
  -6  -5  13   67.19    7.60
   6  -5 -13   53.19    6.80
  -6   5  13   54.09    4.70
   6   5 -13   58.69    6.70
   5  -5 -13   74.69    6.40
  -5  -5  13   75.79    7.60
   5   5 -13   77.79    6.30
  -5   5  13   72.39    5.10
  -4  -5  13    5.20    2.30
   4  -5 -13    6.20    2.50
   4   5 -13    6.90    2.40
   3  -5 -13   14.50    3.10
   3   5 -13   14.80    3.10
   2  -5 -13  205.18    9.20
  -2  -5  13  199.78    8.80
   2  -5 -13  195.68    6.90
   2   5 -13  231.18    9.50
   1  -5 -13  180.98    6.80
   1  -5 -13  186.08    8.20
  -1  -5  13  189.78    7.80
   1   5 -13  181.48    6.60
   1   5 -13  173.28    8.20
   0  -5 -13 1196.68   32.30
   0  -5  13 1180.08   31.10
   0  -5 -13 1190.88   31.60
   0   5 -13 1176.28   31.40
   0   5 -13 1152.88   32.50
   1  -5  13  514.55   14.10
  -1  -5 -13  501.75   15.60
  -1  -5 -13  501.85   16.10
  -1   5 -13  494.65   16.10
  -1   5 -13  511.55   16.00
  -2  -5 -13    0.20    0.80
  -2  -5 -13    0.40    1.30
  -2   5 -13   -1.60    1.60
  -2   5 -13    0.60    1.70
  -3  -5 -13  715.63   20.50
  -3  -5 -13  704.53   22.50
  -3   5 -13  699.53   22.50
  -3   5 -13  722.63   21.30
  -4  -5 -13   20.50    2.90
  -4  -5 -13   27.20    4.30
  -4   5 -13   22.60    3.30
  -4   5 -13   26.90    4.30
  -5  -5 -13   80.09    5.00
  -5  -5 -13   68.99    7.00
  -5   5 -13   84.99    7.20
  -5   5 -13   81.99    5.70
  -6  -5 -13  141.09    9.30
  -6  -5 -13  150.38    7.00
  -6   5 -13  139.29    9.20
  -6   5 -13  139.19    7.50
  -7  -5 -13   -1.10    3.00
  -7   5 -13   -0.90    2.70
  -7   5 -13    2.00    2.20
  -8  -5 -13   -2.60    2.70
  -8   5 -13    1.30    3.50
   8  -6 -13    5.30    4.10
  -8  -6  13    5.80    4.00
  -7  -6  13   49.99    7.00
   7  -6 -13   52.29    7.20
  -7   6  13   46.90    5.40
  -6  -6  13  302.37   14.50
   6  -6 -13  299.57   14.50
  -6   6  13  295.67   12.10
   6   6 -13  312.37   14.70
   5  -6 -13  327.77   14.60
  -5  -6  13  333.07   14.40
  -5   6  13  312.87   12.20
   5   6 -13  302.17   13.90
  -4  -6  13   -1.00    2.10
   4  -6 -13    0.90    2.10
   4   6 -13    0.30    1.80
   3  -6 -13  138.29    8.00
   3   6 -13  128.39    7.60
  -2  -6  13  203.08    9.00
   2  -6 -13  199.18    9.40
   2   6 -13  202.48    9.40
   1  -6 -13  203.78    9.20
   1  -6 -13  213.88    7.60
  -1  -6  13  211.98    8.60
   1   6 -13  209.88    7.60
   1   6 -13  214.48    9.50
   0  -6 -13    9.80    2.40
   0  -6 -13    9.30    2.20
   0  -6  13    8.70    2.00
   0   6 -13    5.20    2.30
   0   6 -13    7.60    2.00
  -1  -6 -13   -0.90    1.70
   1  -6  13    0.00    1.60
  -1  -6 -13    2.40    1.90
  -1   6 -13    1.50    1.90
  -1   6 -13    1.70    1.90
  -2  -6 -13   35.00    3.80
  -2  -6 -13   31.50    4.10
  -2   6 -13   22.90    4.00
  -2   6 -13   29.00    3.70
  -3  -6 -13    4.80    2.10
  -3  -6 -13    1.60    2.40
  -3   6 -13    0.00    2.30
  -3   6 -13    6.40    2.40
  -4  -6 -13   -0.90    1.70
  -4  -6 -13    4.20    2.50
  -4   6 -13    2.30    2.30
  -4   6 -13    3.10    2.30
  -5  -6 -13   96.59    7.70
  -5  -6 -13   88.99    5.50
  -5   6 -13  103.09    7.50
  -5   6 -13   81.39    5.70
  -6  -6 -13   50.29    6.80
  -6  -6 -13   36.90    4.20
  -6   6 -13   57.69    5.30
  -6   6 -13   49.00    6.50
  -7  -6 -13    3.40    3.10
  -7  -6 -13    3.60    3.50
  -7   6 -13    7.30    3.60
  -8  -6 -13   -1.30    3.20
  -8   6 -13   -2.20    2.90
   8  -7 -13   37.50    6.90
  -8  -7  13   40.50    7.50
  -8   7  13   38.30    6.30
   7  -7 -13   12.40    4.30
  -7  -7  13    5.70    3.70
  -7   7  13   13.10    3.70
  -6  -7  13   -0.60    3.10
   6  -7 -13    0.30    2.50
   6   7 -13    0.30    2.80
  -6   7  13    0.10    2.50
  -5  -7  13  137.09    9.40
   5  -7 -13  128.09    9.10
  -5   7  13  147.79    8.10
   5   7 -13  142.39    9.50
  -4  -7  13   62.89    6.30
   4  -7 -13   57.69    6.50
   4   7 -13   63.19    7.00
  -3  -7  13   34.50    4.60
   3  -7 -13   58.99    6.20
   3   7 -13   59.99    6.20
   2  -7 -13    5.10    2.40
  -2  -7  13    4.20    2.30
   2   7 -13    8.60    2.90
  -1  -7  13   35.50    3.80
   1  -7 -13   32.00    4.40
   1   7 -13   37.10    4.60
   0  -7 -13   24.20    3.10
   0  -7 -13   19.90    3.40
   0  -7  13   22.80    3.00
   0   7 -13   26.00    4.00
   0   7 -13   20.00    3.00
  -1  -7 -13   15.40    3.10
  -1  -7 -13   11.40    2.80
  -1   7 -13    8.40    2.80
  -1   7 -13    9.80    2.80
  -2  -7 -13   30.50    4.30
  -2  -7 -13   32.80    3.90
  -2   7 -13   33.30    4.10
  -2   7 -13   29.20    4.30
  -3  -7 -13   52.99    4.40
  -3   7 -13   52.39    5.00
  -3   7 -13   38.30    5.10
  -4  -7 -13   12.10    2.90
  -4  -7 -13   12.00    3.40
  -4   7 -13    6.40    2.80
  -4   7 -13    7.50    2.30
  -5  -7 -13   -0.70    2.00
  -5  -7 -13   -0.80    2.60
  -5   7 -13    1.10    3.10
  -5   7 -13    0.70    1.90
  -6  -7 -13   -0.60    2.00
  -6  -7 -13   -2.00    2.50
  -6   7 -13   -3.90    2.50
  -7  -7 -13   -3.00    2.70
  -7  -7 -13   -4.50    1.90
  -7   7 -13   -1.50    3.10
  -7  -8  13    2.60    3.60
   7  -8 -13    7.00    4.10
  -7   8  13    1.80    2.80
  -6  -8  13   80.69    8.50
   6  -8 -13   98.39   10.20
  -6   8  13   89.59    7.10
   5  -8 -13    6.30    3.20
  -5  -8  13    4.30    3.40
  -5   8  13    3.30    2.80
   5   8 -13    0.30    2.50
  -4  -8  13   55.49    6.30
   4  -8 -13   41.60    6.00
   4   8 -13   47.90    6.40
   3  -8 -13   30.00    4.90
  -3  -8  13   16.20    3.30
   3   8 -13   23.60    4.40
  -2  -8  13  345.97   13.10
   2  -8 -13  334.97   13.80
   2   8 -13  336.57   14.10
  -1  -8  13    0.50    1.80
   1  -8 -13   -2.30    1.70
   1   8 -13    0.10    2.00
   0  -8 -13   11.80    3.00
   0  -8  13   17.30    2.70
   0   8 -13   22.00    3.70
   0   8 -13   14.60    2.70
  -1  -8 -13   16.10    3.20
  -1  -8 -13   22.80    3.50
  -1   8 -13   19.40    3.70
  -1   8 -13   17.50    3.30
  -2  -8 -13   86.29    6.40
  -2  -8 -13  103.29    6.40
  -2   8 -13   97.79    6.40
  -2   8 -13   88.69    6.50
  -3  -8 -13    7.00    3.10
  -3  -8 -13    7.70    2.80
  -3   8 -13    2.40    2.00
  -3   8 -13    9.90    2.80
  -4  -8 -13   14.80    3.40
  -4  -8 -13   11.60    3.50
  -4   8 -13   16.10    3.30
  -4   8 -13   20.70    4.60
  -5  -8 -13   51.29    5.40
  -5  -8 -13   40.30    6.00
  -5   8 -13   46.70    6.60
  -5   8 -13   66.59    8.70
  -6  -8 -13   16.60    5.00
  -6  -8 -13   26.80    4.10
  -6   8 -13   26.20    5.30
  -7  -8 -13    6.00    3.20
  -7  -8 -13   18.00    5.60
  -7   8 -13    9.10    4.00
   7  -9 -13   12.20    4.70
  -7  -9  13    2.80    3.70
  -7   9  13    5.20    3.70
   6  -9 -13    0.80    3.00
  -6  -9  13   -4.20    2.50
  -6   9  13    0.50    3.00
  -5  -9  13    3.40    3.10
   5  -9 -13    1.00    3.00
   5   9 -13    0.10    2.70
   4  -9 -13   51.79    6.70
  -4  -9  13   67.39    7.10
   4   9 -13   55.49    7.10
   3  -9 -13   39.30    5.90
  -3  -9  13   39.10    5.20
   3   9 -13   38.10    5.90
   2  -9 -13   42.20    5.50
  -2  -9  13   45.90    5.10
   2   9 -13   43.20    5.70
  -1  -9  13   37.80    4.40
   1  -9 -13   32.30    4.60
   1   9 -13   44.70    5.80
   0  -9 -13  253.47   11.50
   0   9 -13  252.27   11.60
   0   9 -13  254.27   14.10
  -1  -9 -13  190.98    9.40
  -1   9 -13  176.78    8.90
  -1   9 -13  187.88    9.50
  -2  -9 -13    5.40    2.70
  -2  -9 -13    7.20    3.00
  -2   9 -13   10.10    3.00
  -2   9 -13    7.30    2.90
  -3  -9 -13  132.09    7.90
  -3  -9 -13  118.89    8.20
  -3   9 -13  138.49    7.80
  -4  -9 -13  115.59    7.30
  -4   9 -13  124.89    8.90
  -4   9 -13  143.19   11.30
  -5  -9 -13    1.30    2.60
  -5  -9 -13    2.40    2.80
  -5   9 -13    3.70    3.20
  -6  -9 -13   20.50    5.40
  -6  -9 -13   29.20    4.90
  -6   9 -13   17.70    5.20
  -6 -10  13   10.00    4.40
   6 -10 -13    5.70    4.40
   5 -10 -13   11.20    4.30
  -5 -10  13    9.70    3.90
   4 -10 -13   84.59    8.90
  -4 -10  13   79.59    7.90
   4  10 -13   98.99    9.80
   3 -10 -13   26.20    5.20
  -3 -10  13   21.50    4.40
   3  10 -13   30.30    5.80
  -2 -10  13   53.19    5.80
   2 -10 -13   46.40    6.10
   2  10 -13   46.80    6.30
   1 -10 -13   68.39    7.10
  -1 -10  13   67.39    5.40
   1  10 -13   80.59    7.90
   0 -10 -13   98.39    7.20
   0  10 -13   88.59    7.20
  -1 -10 -13   15.60    3.90
  -1  10 -13   15.00    3.50
  -1  10 -13   14.00    3.60
  -2 -10 -13   33.20    4.80
  -2  10 -13   43.40    5.20
  -2  10 -13   27.20    4.60
  -3 -10 -13    0.60    2.50
  -3 -10 -13    4.50    3.10
  -3  10 -13   -0.80    1.50
  -4 -10 -13   18.40    3.90
  -4 -10 -13   16.80    4.40
  -4  10 -13   17.70    4.80
  -5 -10 -13   10.80    3.80
  -5 -10 -13   13.10    3.90
  -5  10 -13    5.30    3.90
  -4 -11  13   20.50    4.60
   4 -11 -13   16.90    4.90
   4  11 -13   15.90    5.40
   3 -11 -13   21.20    5.30
  -3 -11  13   12.90    3.80
   3  11 -13   23.00    5.40
  -2 -11  13   42.50    5.40
   2 -11 -13   52.19    6.80
   2  11 -13   70.39    8.00
   1 -11 -13   11.80    3.70
   1  11 -13   13.10    4.40
   0 -11 -13    4.00    3.10
   0  11 -13   -0.50    2.60
  -1 -11 -13   26.80    4.80
  -1  11 -13   32.20    5.20
  -2 -11 -13   53.49    6.40
  -2  11 -13   59.19    6.50
  -3  11 -13    9.30    3.00
  -4 -11 -13   12.90    4.50
  -4 -11 -13   12.00    4.10
  -4  11 -13   19.60    4.70
   2 -12 -13   92.59    9.40
   2  12 -13   72.69    8.60
   1 -12 -13   59.59    7.20
   1  12 -13   72.49    8.20
   0 -12 -13    6.70    3.90
   0  12 -13   14.70    4.40
  -1 -12 -13    2.50    2.90
  -2 -12 -13   -0.60    2.80
   9   0 -14  143.99   10.40
   8   0 -14    9.70    3.60
   7   0 -14   99.49    7.70
   6   0 -14    5.10    2.20
   6   0 -14    6.80    3.10
   5   0 -14   50.59    5.80
   5   0 -14   60.79    4.60
   4   0 -14   17.70    3.30
   4   0 -14   25.60    3.20
   3   0 -14   55.79    3.90
   3   0 -14   52.19    4.30
   2   0 -14  554.34   16.20
   2   0 -14  445.86   14.90
   1   0 -14   -0.20    0.90
   1   0 -14    0.80    1.00
   0   0 -14  478.45   14.50
   0   0 -14  466.75   14.00
  -1   0 -14   35.30    2.40
  -1   0 -14   34.30    3.00
  -2   0 -14   75.59    4.70
  -2   0 -14   84.39    3.40
  -3   0 -14  384.86   13.20
  -3   0 -14  374.26   10.20
  -4   0 -14   23.80    3.50
  -5   0 -14   13.50    3.40
  -6   0 -14  566.64   19.60
  -7   0 -14   75.59    6.40
  -8   0 -14   12.10    4.00
  -9   0 -14   66.29    7.80
   9  -1 -14   35.80    6.30
   9   1 -14   30.40    6.00
   8  -1 -14   16.30    4.40
   8   1 -14   25.20    5.30
   7  -1 -14   19.90    4.40
   7   1 -14   20.10    4.60
   6  -1 -14   68.59    7.10
   6  -1 -14   72.29    4.90
   6   1 -14   67.09    5.40
   6   1 -14   65.09    6.70
   5  -1 -14   13.10    2.60
   5  -1 -14   19.10    3.80
   5   1 -14   17.00    3.20
   5   1 -14   18.00    3.70
   4  -1 -14   64.39    4.10
   4  -1 -14   74.79    5.60
   4   1 -14   64.89    4.60
   4   1 -14   57.19    4.90
   3  -1 -14  484.65   14.50
   3  -1 -14  457.85   15.80
   3   1 -14  459.75   15.60
   2  -1 -14  223.08    9.20
   2  -1 -14  246.28    8.60
   2   1 -14  240.88    9.00
   2   1 -14  235.78    9.30
   1  -1 -14  296.17   10.00
   1  -1 -14  304.07   10.60
   1   1 -14  302.77   10.40
   1   1 -14  305.57   10.40
   0  -1 -14   17.30    2.40
   0  -1 -14   16.30    2.20
   0   1 -14   20.30    2.60
   0   1 -14   18.60    2.20
  -1  -1 -14  143.79    5.60
  -1  -1 -14  142.59    6.40
  -1   1 -14  137.49    6.30
  -1   1 -14  140.39    5.10
  -2  -1 -14   32.10    3.50
  -2  -1 -14   28.00    2.20
  -2   1 -14   32.40    3.40
  -2   1 -14   33.00    1.70
  -3  -1 -14  133.89    4.80
  -3  -1 -14  140.09    7.00
  -3   1 -14  131.49    6.50
  -4  -1 -14  206.88    9.30
  -4  -1 -14  195.78    6.20
  -4   1 -14  183.98    8.60
  -5  -1 -14   27.80    4.20
  -5   1 -14   24.90    4.10
  -6  -1 -14   22.00    4.50
  -6   1 -14   25.30    4.40
  -7  -1 -14   30.30    5.00
  -7   1 -14   29.80    4.80
  -8  -1 -14    3.00    3.50
  -8   1 -14    4.20    3.30
  -9  -1 -14    1.30    3.40
  -9   1 -14   -1.90    2.70
   9  -2 -14    6.20    3.60
   9   2 -14    0.30    3.00
   8  -2 -14    0.70    3.10
   8   2 -14    3.10    2.90
   7  -2 -14  130.09    9.00
   7   2 -14  126.19    8.70
   6  -2 -14  441.86   17.60
   6   2 -14  455.35   16.70
   6   2 -14  454.75   17.40
   5  -2 -14  238.78    8.90
   5  -2 -14  241.98   11.30
   5   2 -14  223.08   10.80
   4  -2 -14  158.88    8.40
   4  -2 -14  170.28    6.80
   4   2 -14  167.78    8.00
   4   2 -14  163.28    8.50
   3  -2 -14    5.00    1.50
   3  -2 -14    4.70    2.00
   3   2 -14    3.60    2.00
   3   2 -14    5.10    2.10
   2  -2 -14  404.66   12.30
   2  -2 -14  394.96   13.60
   2   2 -14  392.96   13.30
   2   2 -14  397.46   13.30
   1  -2 -14  295.57    9.90
   1  -2 -14  307.27   10.70
   1   2 -14  291.27   10.20
   1   2 -14  300.67   10.60
   0  -2 -14    5.10    1.50
   0  -2 -14    7.10    1.70
   0   2 -14    4.30    1.30
   0   2 -14    5.80    1.70
  -1  -2 -14 1001.60   27.70
  -1  -2 -14 1005.70   26.60
  -1   2 -14  999.10   27.60
  -1   2 -14 1004.40   25.50
  -2  -2 -14  131.39    5.20
  -2  -2 -14  123.49    6.40
  -2   2 -14  132.49    6.20
  -3  -2 -14    6.40    2.20
  -3  -2 -14    9.00    1.60
  -3   2 -14    8.20    2.10
  -4  -2 -14  593.14   19.50
  -4  -2 -14  598.54   16.40
  -4   2 -14  595.04   18.80
  -5  -2 -14   26.90    4.30
  -5   2 -14   18.30    3.30
  -6  -2 -14   43.40    5.50
  -6   2 -14   49.10    5.50
  -7  -2 -14    5.80    3.20
  -7   2 -14    5.20    2.60
  -8  -2 -14   52.79    6.70
  -8   2 -14   50.19    6.10
  -9  -2 -14   26.90    5.60
  -9   2 -14   32.90    5.10
   9  -3 -14   34.00    6.40
   9   3 -14   37.30    6.30
   8  -3 -14   91.59    9.40
   8   3 -14   63.99    7.60
   7  -3 -14    0.20    2.30
   7   3 -14   -2.10    2.10
   6  -3 -14   13.90    3.70
   6   3 -14   12.20    3.50
  -6   3  14   11.40    2.80
   6   3 -14   19.60    3.90
   5  -3 -14    8.50    3.00
   5   3 -14   10.50    2.80
   5   3 -14    7.50    2.90
   4  -3 -14   12.00    1.90
   4  -3 -14    8.30    2.80
   4   3 -14    9.50    2.90
   4   3 -14   13.20    2.90
   3  -3 -14  181.88    8.80
   3  -3 -14  197.68    7.10
   3   3 -14  193.68    8.70
   3   3 -14  201.48    9.00
   2  -3 -14  132.29    6.90
   2  -3 -14  146.19    5.80
   2   3 -14  134.39    6.60
   2   3 -14  135.79    6.80
   1  -3 -14  126.79    6.20
   1  -3 -14  119.39    5.30
   1   3 -14  121.19    4.70
   1   3 -14  118.09    6.00
   1   3 -14  109.79    5.40
   0  -3 -14  671.63   19.20
   0  -3 -14  654.93   19.30
   0   3 -14  661.03   18.30
   0   3 -14  679.63   19.80
  -1  -3 -14    5.80    1.60
  -1  -3 -14    9.30    2.00
   1  -3  14    9.70    1.40
  -1   3 -14   16.30    2.60
  -2  -3 -14  506.55   16.10
  -2  -3 -14  483.75   14.30
  -2   3 -14  471.95   15.40
  -3  -3 -14  479.25   14.00
  -3  -3 -14  469.95   16.20
  -3   3 -14  481.35   15.50
  -4  -3 -14   72.89    4.10
  -4  -3 -14   62.19    6.10
  -4   3 -14   69.69    5.00
  -5  -3 -14   64.79    3.90
  -5  -3 -14   70.49    6.90
  -5   3 -14   68.49    5.40
  -6  -3 -14   27.20    4.70
  -6   3 -14   37.40    4.60
  -7  -3 -14    3.10    2.80
  -7   3 -14    1.20    2.40
  -8  -3 -14   20.80    4.80
  -8   3 -14   22.50    4.40
  -9  -3 -14   15.70    5.00
  -9   3 -14   20.30    4.30
   9  -4 -14   12.10    4.60
  -9  -4  14   25.20    5.80
   8  -4 -14   22.00    5.10
   7  -4 -14   63.39    7.70
   7   4 -14   56.49    6.80
   6  -4 -14   32.10    5.20
  -6   4  14   43.10    4.20
   6   4 -14   24.50    4.50
   6   4 -14   28.80    4.60
   5  -4 -14    4.40    2.50
   5   4 -14    5.80    2.40
   5   4 -14    1.40    2.50
   4  -4 -14  250.57   11.40
   4   4 -14  245.48   11.00
   4   4 -14  257.67   11.10
   3  -4 -14  591.84   17.20
   3  -4 -14  629.14   20.50
   3   4 -14  639.44   19.80
   3   4 -14  653.03   20.30
   2  -4 -14  164.38    8.00
   2  -4 -14  171.38    6.40
   2   4 -14  173.18    8.10
   1  -4 -14  602.54   18.80
  -1  -4  14  604.94   18.20
   1  -4 -14  610.04   17.40
   1   4 -14  606.84   16.70
   1   4 -14  617.94   19.00
   0  -4  14    3.20    1.50
   0  -4 -14    3.80    1.70
   0  -4 -14    6.30    1.70
   0   4 -14    6.00    1.90
   0   4 -14    5.30    1.80
   1  -4  14  136.99    5.00
  -1  -4 -14  153.38    6.50
  -1  -4 -14  141.09    6.70
  -1   4 -14  126.19    6.40
  -1   4 -14  133.09    6.50
  -2  -4 -14    8.40    2.40
  -2  -4 -14    5.50    1.80
  -2   4 -14    7.80    2.40
  -3  -4 -14   39.90    3.40
  -3  -4 -14   38.90    4.80
  -3   4 -14   37.80    4.20
  -4  -4 -14  905.41   24.60
  -4  -4 -14  866.21   27.50
  -4   4 -14  919.11   26.20
  -5  -4 -14   77.69    6.60
  -5  -4 -14   73.09    4.50
  -5   4 -14   83.79    5.80
  -6  -4 -14   90.99    7.50
  -6   4 -14  101.99    6.40
  -7  -4 -14   67.29    7.60
  -7   4 -14   83.69    8.50
  -7   4 -14   87.19    6.40
  -8  -4 -14   -2.80    2.30
  -8   4 -14   -0.20    3.00
  -8   4 -14   -0.50    2.40
  -9  -5  14   16.10    5.50
   9  -5 -14   23.70    5.90
   8  -5 -14   15.40    4.90
  -8  -5  14   13.70    5.20
  -7  -5  14  109.09    9.40
   7  -5 -14  104.29    8.80
   6  -5 -14    0.30    2.70
  -6  -5  14    4.60    3.30
   6   5 -14    0.20    2.40
  -6   5  14   -1.30    1.50
  -5  -5  14  149.99    9.30
   5  -5 -14  152.18    9.40
   5   5 -14  148.49    8.80
   4  -5 -14   90.39    6.60
  -4  -5  14   93.49    6.60
   4   5 -14   79.79    6.10
   3  -5 -14   56.09    5.90
  -3  -5  14   49.50    5.20
   3   5 -14   55.59    5.70
  -2  -5  14  227.48    9.50
   2  -5 -14  216.88    9.80
   2  -5 -14  227.98    7.70
   2   5 -14  224.58    9.80
   1  -5 -14   66.79    4.90
   1  -5 -14   62.09    3.80
  -1  -5  14   68.89    4.50
   1   5 -14   68.19    3.60
   1   5 -14   62.69    4.90
   0  -5 -14  918.71   25.70
   0  -5 -14  901.21   26.30
   0  -5  14  911.71   25.10
   0   5 -14  975.40   27.00
   0   5 -14  924.41   25.50
  -1  -5 -14   49.00    4.60
  -1  -5 -14   34.70    3.80
  -1   5 -14   41.10    4.40
  -1   5 -14   38.60    4.10
  -2  -5 -14   99.89    5.50
  -2   5 -14  102.69    6.50
  -2   5 -14  111.09    6.30
  -3  -5 -14  106.59    6.80
  -3  -5 -14   90.49    5.30
  -3   5 -14   77.59    6.00
  -3   5 -14  103.89    6.00
  -4  -5 -14   60.39    4.30
  -4  -5 -14   65.69    6.60
  -4   5 -14   56.19    6.20
  -4   5 -14   51.59    4.50
  -5  -5 -14  245.78    9.40
  -5  -5 -14  254.67   12.30
  -5   5 -14  256.87   10.60
  -5   5 -14  242.88   12.00
  -6  -5 -14    4.90    3.30
  -6  -5 -14    1.60    1.90
  -6   5 -14   -0.10    2.30
  -6   5 -14    0.50    2.30
  -7  -5 -14    2.90    3.10
  -7   5 -14    0.70    2.60
  -7   5 -14    2.70    2.50
  -8  -5 -14   11.20    4.60
  -8   5 -14   24.10    5.40
   8  -6 -14    8.30    3.90
  -8  -6  14   -3.60    3.10
  -7  -6  14    2.40    3.20
   7  -6 -14    1.50    2.90
  -7   6  14    3.70    2.50
  -6  -6  14   88.39    9.10
   6  -6 -14   77.69    8.60
   6   6 -14   91.09    9.00
  -6   6  14   78.49    6.00
   5  -6 -14    8.20    3.20
  -5  -6  14    2.70    3.10
   5   6 -14    9.80    3.30
   4  -6 -14   19.90    4.10
  -4  -6  14   18.10    3.60
   4   6 -14   19.40    3.80
   3  -6 -14   14.00    3.30
  -3  -6  14   14.10    3.00
   3   6 -14   17.70    3.70
   2  -6 -14   49.90    5.50
  -2  -6  14   50.89    4.90
   2   6 -14   47.00    5.20
  -1  -6  14  209.68    8.50
   1  -6 -14  196.58    7.50
   1  -6 -14  203.08    9.20
   1   6 -14  211.38    9.50
   0  -6  14   37.10    3.40
   0  -6 -14   37.10    4.40
   0  -6 -14   29.00    3.40
   0   6 -14   33.10    3.60
   0   6 -14   39.50    4.70
  -1  -6 -14  255.17   10.20
  -1  -6 -14  251.37    9.90
  -1   6 -14  258.37   10.70
  -1   6 -14  250.47   10.10
  -2  -6 -14   14.30    3.40
  -2  -6 -14   18.60    3.20
  -2   6 -14   16.00    3.70
  -2   6 -14   22.70    3.80
  -3  -6 -14   82.59    5.10
  -3  -6 -14   71.79    6.00
  -3   6 -14   81.39    5.60
  -4  -6 -14   31.90    3.70
  -4  -6 -14   34.60    5.20
  -4   6 -14   29.30    3.90
  -4   6 -14   33.80    5.10
  -5  -6 -14   -1.10    2.10
  -5  -6 -14    2.00    1.90
  -5   6 -14   -1.90    2.30
  -5   6 -14    2.20    2.10
  -6  -6 -14   13.40    2.80
  -6  -6 -14   10.90    3.70
  -6   6 -14   18.80    4.50
  -6   6 -14    9.80    3.00
  -7  -6 -14    1.70    3.00
  -7   6 -14   -2.20    2.50
  -7   6 -14    4.20    4.00
  -8  -6 -14   -1.40    3.60
  -8   6 -14   -0.70    3.40
  -8  -7  14    9.70    5.10
   8  -7 -14    8.00    4.40
  -7  -7  14   80.69    8.90
   7  -7 -14   68.69    8.60
  -7   7  14   61.09    6.40
  -6  -7  14   96.59    9.40
   6  -7 -14  101.59    8.60
  -6   7  14   78.89    6.40
   6   7 -14   87.09    9.00
  -5  -7  14   16.80    4.30
   5  -7 -14   16.50    4.70
   5   7 -14   18.30    4.40
  -4  -7  14   23.50    4.40
   4  -7 -14   25.70    4.70
   4   7 -14   27.40    4.80
   3  -7 -14   48.80    5.70
  -3  -7  14   54.89    5.70
   3   7 -14   53.79    6.20
  -2  -7  14   14.70    3.00
   2  -7 -14   15.70    3.40
   2   7 -14   13.40    3.20
   1  -7 -14  131.79    7.40
  -1  -7  14  123.19    6.50
   1   7 -14  129.39    7.70
   0  -7  14    1.40    1.60
   0  -7 -14    1.60    1.60
   0  -7 -14    1.50    2.10
   0   7 -14   -0.50    2.10
   0   7 -14    0.80    1.50
  -1  -7 -14  255.37   10.40
  -1  -7 -14  254.17   10.40
  -1   7 -14  252.17   10.30
  -1   7 -14  260.17   11.00
  -2  -7 -14  429.86   15.60
  -2  -7 -14  425.66   14.70
  -2   7 -14  444.36   15.70
  -2   7 -14  409.76   14.90
  -3  -7 -14   -0.60    1.70
  -3  -7 -14   -0.80    0.90
  -3   7 -14    1.30    1.40
  -3   7 -14    1.60    2.10
  -4  -7 -14    4.60    2.40
  -4  -7 -14    1.90    2.60
  -4   7 -14    4.30    2.40
  -4   7 -14    4.40    2.90
  -5  -7 -14   86.89    5.80
  -5  -7 -14   67.19    7.50
  -5   7 -14   79.69    5.80
  -5   7 -14   78.99    8.00
  -6  -7 -14    1.50    2.30
  -6  -7 -14   -3.30    2.20
  -6   7 -14    1.50    2.80
  -6   7 -14    6.60    2.80
  -7  -7 -14    1.50    3.70
  -7   7 -14    6.90    3.70
   7  -8 -14   93.19   10.50
  -7  -8  14   92.29   10.00
  -7   8  14   93.09    7.40
  -6  -8  14   78.49    8.50
   6  -8 -14   65.89    8.40
   6   8 -14   78.19    8.80
  -6   8  14   65.79    6.80
   5  -8 -14   21.10    5.10
  -5  -8  14   13.20    4.30
   5   8 -14   13.90    4.30
  -4  -8  14   67.99    7.00
   4  -8 -14   64.49    7.40
   4   8 -14   80.09    8.00
   3  -8 -14   30.00    5.20
  -3  -8  14   21.20    4.00
   3   8 -14   17.00    4.10
  -2  -8  14   12.40    3.00
   2  -8 -14    8.50    3.00
   2   8 -14   11.00    3.40
  -1  -8  14   10.00    2.60
   1  -8 -14   16.10    3.50
   1   8 -14   13.10    3.20
   0  -8 -14    5.80    2.50
   0   8 -14    9.20    3.10
   0   8 -14    9.70    2.70
  -1  -8 -14   18.90    3.30
  -1  -8 -14   20.30    3.70
  -1   8 -14   20.30    3.40
  -1   8 -14   16.90    3.40
  -2  -8 -14   -0.40    2.20
  -2  -8 -14    0.40    2.00
  -2   8 -14    1.00    2.20
  -2   8 -14   -1.30    2.00
  -3  -8 -14   10.70    3.40
  -3  -8 -14    9.80    2.80
  -3   8 -14    9.20    2.90
  -3   8 -14   12.10    3.00
  -4  -8 -14   12.60    3.90
  -4  -8 -14    9.60    3.00
  -4   8 -14   11.20    3.00
  -4   8 -14    8.50    3.20
  -5  -8 -14   42.10    6.20
  -5  -8 -14   44.40    5.00
  -5   8 -14   47.00    5.30
  -5   8 -14   39.30    5.80
  -6  -8 -14    3.00    3.30
  -6  -8 -14    1.70    2.50
  -6   8 -14    0.60    3.40
  -7  -8 -14   34.70    5.20
  -7  -8 -14   43.60    7.20
  -7   8 -14   22.40    5.40
   6  -9 -14    2.40    3.30
  -6  -9  14    2.30    3.60
  -5  -9  14    3.10    3.50
   5  -9 -14    0.90    3.00
   5   9 -14    6.80    4.10
  -4  -9  14    3.90    3.10
   4  -9 -14   -0.50    2.40
   4   9 -14    1.70    2.80
   3  -9 -14   49.40    6.40
  -3  -9  14   40.90    5.40
   3   9 -14   50.79    6.60
   2  -9 -14    7.60    3.10
  -2  -9  14    5.00    2.40
   2   9 -14    5.10    3.20
   1  -9 -14   32.00    4.90
  -1  -9  14   35.40    4.30
   1   9 -14   40.30    5.40
   0  -9 -14  254.97   11.70
   0   9 -14  271.17   12.10
  -1  -9 -14   81.79    6.40
  -1   9 -14   72.49    5.60
  -1   9 -14   66.69    5.70
  -2  -9 -14   -1.20    2.30
  -2  -9 -14   -2.40    1.80
  -2   9 -14    1.00    2.20
  -2   9 -14    1.80    2.20
  -3  -9 -14   31.30    5.10
  -3  -9 -14   41.70    5.20
  -3   9 -14   31.90    4.40
  -3   9 -14   26.30    4.80
  -4  -9 -14    9.50    3.00
  -4  -9 -14    2.10    2.00
  -4   9 -14    2.20    3.00
  -4   9 -14    0.00    2.20
  -5  -9 -14   15.30    4.30
  -5  -9 -14   22.70    4.20
  -5   9 -14   26.30    5.50
  -6  -9 -14   14.80    4.90
  -6  -9 -14   11.60    3.60
  -6   9 -14    6.30    3.70
   5 -10 -14   -0.70    3.00
  -5 -10  14    2.10    3.50
   5  10 -14    4.50    4.00
   4 -10 -14  126.29    9.70
  -4 -10  14  120.89    9.00
   4  10 -14  148.99   10.70
   3 -10 -14    2.80    3.40
  -3 -10  14    8.30    3.40
   3  10 -14    5.10    3.30
  -2 -10  14    7.10    3.00
   2 -10 -14    9.80    3.50
   2  10 -14   15.90    4.30
   1 -10 -14    0.10    2.50
   1  10 -14   -3.20    2.10
   0 -10 -14   84.79    6.90
   0  10 -14   80.79    6.80
  -1 -10 -14   68.19    6.70
  -1  10 -14   81.29    6.40
  -2 -10 -14    0.90    2.30
  -2  10 -14    1.30    2.50
  -2  10 -14   -0.60    2.20
  -3 -10 -14   12.90    3.80
  -3 -10 -14   13.40    3.80
  -3  10 -14    7.90    3.50
  -3  10 -14   14.60    3.70
  -4 -10 -14   62.09    6.40
  -4 -10 -14   57.39    7.10
  -4  10 -14   74.29    7.80
  -5 -10 -14   31.10    6.00
  -5 -10 -14   38.60    5.50
  -5  10 -14   27.10    5.50
  -4 -11  14    9.70    3.90
   4 -11 -14   -0.70    3.30
   4  11 -14   -5.10    2.50
  -3 -11  14   20.40    4.40
   3 -11 -14   29.10    5.90
   3  11 -14   24.00    5.60
  -2 -11  14   16.50    4.80
   2 -11 -14   20.90    5.10
   2  11 -14   18.60    5.30
   1 -11 -14  223.08   11.90
   1  11 -14  220.78   12.10
   0 -11 -14  169.98   10.20
   0  11 -14  177.58   10.60
  -1 -11 -14   17.60    4.50
  -1  11 -14   21.50    4.60
  -2 -11 -14   10.30    3.60
  -2  11 -14   19.00    5.00
  -2  11 -14   11.30    3.80
  -3 -11 -14   55.19    6.30
  -3  11 -14   66.99    7.30
   1 -12 -14   10.00    4.10
   1  12 -14   16.00    4.60
   0 -12 -14   36.60    6.00
   0  12 -14   29.60    5.70
  -1 -12 -14   79.59    8.20
   9   0 -15   -2.10    3.10
   8   0 -15   -0.10    2.30
   7   0 -15   -2.10    1.80
   6   0 -15   -2.50    1.60
   6   0 -15   -2.00    1.40
   5   0 -15    3.40    2.80
   5   0 -15    0.80    1.80
   4   0 -15    0.40    1.70
   4   0 -15   -1.90    1.00
   3   0 -15   -1.70    1.40
   3   0 -15   -0.50    0.90
   2   0 -15   -0.40    0.80
   2   0 -15    0.30    1.30
   1   0 -15    0.50    1.20
   1   0 -15   -1.50    0.90
   0   0 -15    0.30    1.00
   0   0 -15    1.90    1.20
  -1   0 -15    0.70    1.20
  -1   0 -15   -0.30    0.80
  -2   0 -15    0.70    0.80
  -2   0 -15    0.70    1.30
  -3   0 -15    0.60    1.40
  -4   0 -15   -1.40    1.50
  -5   0 -15    2.60    2.30
  -6   0 -15    5.70    3.00
  -7   0 -15   -1.70    2.40
  -8   0 -15   -2.20    2.60
  -9   0 -15   -0.60    2.60
   9  -1 -15   21.30    5.60
   9   1 -15   20.90    5.00
   8  -1 -15    1.70    2.70
   8   1 -15    1.90    2.60
   7  -1 -15    2.20    2.50
   7   1 -15    0.30    1.80
   7   1 -15   -2.00    2.10
   6  -1 -15   -0.20    2.30
   6  -1 -15    0.30    1.50
   6   1 -15    1.30    2.00
   6   1 -15   -0.40    2.30
   5  -1 -15  363.46   14.70
   5  -1 -15  338.87   12.30
   5   1 -15  356.96   13.30
   5   1 -15  354.46   14.40
   4  -1 -15  158.08    8.50
   4  -1 -15  161.58    7.20
   4   1 -15  171.98    8.00
   4   1 -15  163.98    8.50
   3  -1 -15    1.40    1.30
   3  -1 -15    2.80    1.90
   3   1 -15    2.90    1.90
   3   1 -15    1.20    1.10
   2  -1 -15  778.62   23.30
   2  -1 -15  785.62   22.20
   2   1 -15  804.92   22.80
   2   1 -15  790.32   23.10
   1  -1 -15 1413.76   36.10
   1  -1 -15 1211.78   35.00
   1   1 -15 1375.26   35.80
   1   1 -15 1377.06   35.70
   0  -1 -15   12.80    2.10
   0  -1 -15   14.80    2.30
   0   1 -15   18.50    2.50
   0   1 -15   17.40    2.20
  -1  -1 -15   16.20    2.50
  -1  -1 -15   15.70    2.10
  -1   1 -15    8.40    1.50
  -1   1 -15   13.60    2.30
  -2  -1 -15  436.76   12.80
  -2  -1 -15  441.26   14.70
  -2   1 -15  451.15   11.90
  -2   1 -15  459.55   14.70
  -3  -1 -15   11.80    2.50
  -3  -1 -15    8.00    1.30
  -3   1 -15    7.40    2.30
  -4  -1 -15   35.80    4.30
  -4   1 -15   38.10    4.40
  -5  -1 -15  701.33   22.70
  -5   1 -15  703.63   22.20
  -6  -1 -15  105.79    7.70
  -6   1 -15  116.99    7.30
  -7  -1 -15   12.70    3.90
  -7   1 -15   14.20    3.50
  -8  -1 -15   91.99    8.80
  -8   1 -15   82.59    7.00
  -9  -1 -15   11.70    4.40
  -9   1 -15    7.30    3.80
   9  -2 -15    4.70    3.80
   9   2 -15   -1.10    3.50
   8  -2 -15    2.30    3.30
   8   2 -15    7.90    3.80
   7  -2 -15  196.18   11.20
   7   2 -15  188.08   10.80
   7   2 -15  179.28   10.10
   6  -2 -15  124.99    8.60
   6   2 -15  114.99    8.00
   6   2 -15  118.49    7.50
   5  -2 -15  299.97   10.70
   5  -2 -15  285.87   13.00
   5   2 -15  307.17   13.20
   4  -2 -15  675.73   19.80
   4  -2 -15  677.43   22.20
   4   2 -15  686.03   22.10
   4   2 -15  700.53   21.60
   3  -2 -15 2068.19   53.19
   3  -2 -15 2096.89   55.59
   3   2 -15 2136.89   54.89
   3   2 -15 2080.39   55.09
   2  -2 -15  640.94   20.30
   2  -2 -15  668.23   18.90
   2   2 -15  671.53   20.10
   2   2 -15  668.53   20.10
   1  -2 -15  603.34   17.50
   1  -2 -15  587.34   18.20
   1   2 -15  614.94   17.80
   1   2 -15  583.24   18.10
   0  -2 -15  335.97   11.30
   0   2 -15  327.47   11.50
   0   2 -15  341.37   10.60
  -1  -2 -15   58.19    4.10
  -1  -2 -15   57.49    3.70
  -1   2 -15   58.59    2.90
  -1   2 -15   55.99    4.00
  -2  -2 -15  107.79    4.80
  -2  -2 -15  116.19    6.10
  -2   2 -15  109.99    5.80
  -3  -2 -15    4.10    2.20
  -3  -2 -15   12.10    1.80
  -3   2 -15    9.30    2.50
  -4  -2 -15  436.86   12.50
  -4  -2 -15  426.96   15.60
  -4   2 -15  424.86   15.00
  -5  -2 -15   14.30    3.40
  -5   2 -15   11.30    3.00
  -6  -2 -15   32.90    5.20
  -6   2 -15   29.30    4.20
  -7  -2 -15   27.40    5.10
  -7   2 -15   25.30    4.30
  -8  -2 -15   34.90    5.80
  -8   2 -15   38.40    5.30
  -9  -2 -15    4.50    4.00
  -9   2 -15    7.20    3.40
   9  -3 -15    2.30    3.70
   9   3 -15   -1.20    3.10
   8  -3 -15    4.50    3.70
   8   3 -15    8.90    3.60
   7  -3 -15   24.80    5.20
   7   3 -15   39.10    6.10
   6  -3 -15   90.99    7.30
   6   3 -15   80.49    6.90
   6   3 -15   88.39    6.70
   5  -3 -15  423.46   16.70
   5   3 -15  427.46   16.00
   5   3 -15  427.66   16.50
   4  -3 -15  352.86   14.10
   4  -3 -15  348.07   11.40
   4   3 -15  348.37   13.70
   4   3 -15  355.36   13.60
   3  -3 -15  106.69    5.00
   3  -3 -15  106.29    6.60
   3   3 -15  106.99    6.50
   3   3 -15  101.09    6.10
   2  -3 -15   72.89    3.90
   2  -3 -15   57.79    4.60
   2   3 -15   66.69    4.80
   2   3 -15   65.89    4.60
   1  -3 -15    3.20    1.70
   1  -3 -15    3.30    1.50
   1   3 -15    2.20    1.50
   1   3 -15    2.40    1.60
   0  -3 -15  760.22   21.60
   0  -3 -15  757.82   21.90
   0   3 -15  740.73   20.60
   0   3 -15  772.82   22.30
  -1  -3 -15   63.69    4.10
   1  -3  15   63.79    3.00
  -1   3 -15   59.69    4.20
  -2  -3 -15   29.20    3.80
  -2  -3 -15   25.70    2.90
  -2   3 -15   31.20    3.70
  -3  -3 -15  630.94   20.20
  -3  -3 -15  603.14   17.50
  -3   3 -15  621.64   19.10
  -4  -3 -15  453.85   16.70
  -4  -3 -15  466.25   13.80
  -4   3 -15  470.95   15.90
  -5  -3 -15    4.10    3.00
  -5   3 -15    2.20    2.10
  -6  -3 -15  260.07   12.40
  -6   3 -15  231.78   10.70
  -7  -3 -15    3.80    3.10
  -7   3 -15    5.00    2.70
  -8  -3 -15   26.50    5.40
  -8   3 -15   24.50    4.50
  -9  -3 -15    8.20    4.50
  -9   3 -15   10.00    3.50
   9  -4 -15   51.09    7.90
   8  -4 -15    9.10    4.30
   8   4 -15    6.60    3.90
   7  -4 -15   26.00    5.30
   7   4 -15   24.90    5.00
   7   4 -15   16.70    4.30
   6  -4 -15    1.30    2.30
   6   4 -15    0.50    2.30
   6   4 -15    1.80    2.20
   5  -4 -15    7.70    3.20
   5   4 -15    7.40    3.20
   5   4 -15    4.20    2.50
   4  -4 -15  125.99    7.90
   4   4 -15  134.69    7.70
   4   4 -15  123.39    7.50
   3  -4 -15    0.40    1.00
   3  -4 -15    0.40    1.60
   3   4 -15   -0.80    1.80
   3   4 -15    2.50    1.90
   2  -4 -15  160.18    6.10
   2  -4 -15  144.79    7.50
   2   4 -15  137.29    6.80
   2   4 -15  138.69    7.40
   1  -4 -15  486.65   16.20
   1  -4 -15  505.45   14.90
  -1  -4  15  485.55   15.50
   1   4 -15  484.05   16.20
   1   4 -15  498.65   14.20
   0  -4 -15 1101.39   30.40
   0  -4  15 1129.59   29.80
   0  -4 -15 1104.19   30.90
   0   4 -15 1130.49   30.20
   0   4 -15 1154.88   31.50
  -1  -4 -15   43.10    3.60
  -1  -4 -15   36.00    4.10
  -1   4 -15   39.80    4.10
  -1   4 -15   34.00    3.90
  -2  -4 -15  419.86   14.90
  -2  -4 -15  431.06   13.50
  -2   4 -15  425.96   14.40
  -3  -4 -15    2.60    1.80
  -3  -4 -15   -0.40    1.90
  -3   4 -15    2.40    2.20
  -4  -4 -15  242.28   11.30
  -4  -4 -15  266.27    9.20
  -4   4 -15  231.48   10.00
  -5  -4 -15    6.00    1.90
  -5  -4 -15    0.10    2.40
  -5   4 -15    4.60    2.50
  -6  -4 -15    0.50    2.80
  -6   4 -15    2.10    2.40
  -7  -4 -15   49.00    6.70
  -7   4 -15   39.70    5.00
  -8  -4 -15   11.30    4.60
  -8   4 -15   23.70    4.20
  -8   4 -15   33.10    6.50
   8  -5 -15   71.19    8.60
  -8  -5  15   73.79    9.40
  -7  -5  15    8.60    4.20
   7  -5 -15    0.00    2.80
   6  -5 -15   20.10    4.50
  -6  -5  15   14.10    4.70
   6   5 -15   14.80    4.00
   5  -5 -15   35.50    5.30
  -5  -5  15   37.50    5.60
   5   5 -15   38.80    5.40
  -4  -5  15   96.69    7.00
   4  -5 -15  109.49    7.30
   4   5 -15   83.59    6.70
  -3  -5  15  117.89    7.10
   3  -5 -15  129.79    7.60
   3   5 -15  112.69    7.10
  -2  -5  15    3.10    1.90
   2  -5 -15    6.90    1.60
   2  -5 -15    6.80    2.40
   2   5 -15    1.70    1.70
   1  -5 -15   -1.00    1.10
   1  -5 -15   -0.10    1.80
  -1  -5  15   -0.50    1.30
   1   5 -15    1.00    1.90
   0  -5  15  636.94   18.40
   0  -5 -15  653.63   19.90
   0  -5 -15  630.54   19.00
   0   5 -15  650.63   18.90
   0   5 -15  647.24   20.20
  -1  -5 -15 1067.19   30.30
  -1  -5 -15 1149.58   30.90
  -1   5 -15 1077.99   30.90
  -1   5 -15 1104.59   30.70
  -2  -5 -15 1749.22   45.30
  -2   5 -15 1709.73   46.60
  -2   5 -15 1740.53   46.20
  -3  -5 -15 1210.48   32.80
  -3  -5 -15 1198.58   35.10
  -3   5 -15 1240.28   34.00
  -4  -5 -15   21.20    4.00
  -4  -5 -15   17.10    2.90
  -4   5 -15   11.10    2.80
  -4   5 -15   20.30    3.90
  -5  -5 -15    3.20    2.00
  -5  -5 -15    0.70    2.70
  -5   5 -15    1.30    2.40
  -5   5 -15   -1.40    2.10
  -6  -5 -15    0.20    2.90
  -6   5 -15   -0.10    2.40
  -6   5 -15    2.80    2.20
  -7  -5 -15    2.40    3.60
  -7   5 -15   -0.90    2.70
  -7   5 -15    4.30    2.60
  -8  -5 -15    7.10    4.10
  -8   5 -15   -0.70    4.50
  -8   5 -15    0.20    3.30
   8  -6 -15   55.19    8.20
  -8  -6  15   57.09    8.20
   7  -6 -15   -2.50    2.60
  -7  -6  15   -0.20    3.20
   6  -6 -15  181.48   11.60
  -6  -6  15  189.78   11.80
   6   6 -15  191.28   11.30
   5  -6 -15  288.77   14.10
  -5  -6  15  295.67   13.90
   5   6 -15  297.97   13.80
  -4  -6  15   54.49    6.00
   4  -6 -15   51.39    6.20
   4   6 -15   71.99    6.10
   3  -6 -15   38.50    5.10
  -3  -6  15   36.10    4.80
   3   6 -15   36.80    5.00
  -2  -6  15  262.77   10.80
   2  -6 -15  263.17   11.40
   2   6 -15  257.57   11.50
   1  -6 -15   18.60    2.50
  -1  -6  15   14.90    2.70
   1  -6 -15   18.80    3.40
   1   6 -15   17.70    3.50
   0  -6 -15  196.58    9.00
   0  -6  15  187.28    7.60
   0  -6 -15  190.38    8.10
   0   6 -15  196.78    9.10
   0   6 -15  193.88    7.90
  -1  -6 -15  585.94   18.40
  -1  -6 -15  555.74   18.30
  -1   6 -15  584.44   18.40
  -1   6 -15  578.04   18.90
  -2  -6 -15   62.79    4.70
  -2  -6 -15   63.89    6.10
  -2   6 -15   59.29    5.00
  -2   6 -15   62.09    6.00
  -3  -6 -15  312.17   11.30
  -3  -6 -15  297.47   12.60
  -3   6 -15  298.57   11.80
  -4  -6 -15    0.50    1.90
  -4  -6 -15    2.00    2.30
  -4   6 -15    7.10    2.90
  -4   6 -15    5.20    2.50
  -5  -6 -15   84.69    5.50
  -5  -6 -15   73.79    7.60
  -5   6 -15   89.89    6.20
  -5   6 -15   68.79    7.30
  -6  -6 -15   49.50    6.70
  -6  -6 -15   58.99    5.50
  -6   6 -15   48.70    6.60
  -6   6 -15   58.19    5.70
  -7  -6 -15    4.90    3.60
  -7   6 -15   11.90    4.20
  -7   6 -15   10.50    3.40
  -8  -6 -15    7.10    4.40
  -8   6 -15    4.60    3.90
   7  -7 -15   -2.30    2.80
  -7  -7  15    1.10    3.30
  -7   7  15    2.90    2.70
  -6  -7  15   12.40    4.70
   6  -7 -15    9.40    4.00
   6   7 -15    9.20    4.00
   5  -7 -15   -1.60    2.70
  -5  -7  15    0.00    2.50
   5   7 -15   -0.50    2.70
  -4  -7  15   44.80    5.90
   4  -7 -15   31.50    5.10
   4   7 -15   24.70    4.50
   3  -7 -15   60.89    6.70
  -3  -7  15   79.59    6.00
   3   7 -15   62.89    6.80
  -2  -7  15  103.49    6.50
   2  -7 -15  101.29    7.00
   2   7 -15  109.49    7.30
  -1  -7  15   97.09    5.70
   1  -7 -15   95.49    6.50
   1   7 -15   92.89    6.80
   0  -7 -15  165.88    8.40
   0  -7 -15  167.38    7.50
   0   7 -15  152.78    7.30
   0   7 -15  168.58    8.90
  -1  -7 -15  134.49    7.30
  -1  -7 -15  119.09    6.70
  -1   7 -15  119.89    6.80
  -1   7 -15  126.29    7.30
  -2  -7 -15   41.40    5.10
  -2  -7 -15   57.89    5.40
  -2   7 -15   46.20    5.00
  -2   7 -15   45.40    5.30
  -3  -7 -15    0.10    1.90
  -3  -7 -15   -0.30    1.20
  -3   7 -15    1.80    2.20
  -3   7 -15    1.70    2.30
  -4  -7 -15   62.19    6.70
  -4  -7 -15   77.69    5.60
  -4   7 -15   75.49    7.50
  -4   7 -15   71.59    5.70
  -5  -7 -15   -1.60    2.30
  -5  -7 -15   -0.40    2.10
  -5   7 -15    1.60    2.20
  -5   7 -15   -0.90    2.50
  -6  -7 -15    6.50    2.60
  -6  -7 -15    3.30    3.70
  -6   7 -15    2.50    3.10
  -6   7 -15    4.80    2.70
  -7  -7 -15   12.40    4.80
  -7   7 -15   11.80    4.50
   7  -8 -15   63.19    8.70
  -7  -8  15   52.59    7.80
  -7   8  15   48.70    6.10
   6  -8 -15   49.80    7.50
  -6  -8  15   69.19    8.30
   6   8 -15   59.89    8.10
   5  -8 -15   57.79    7.60
  -5  -8  15   42.80    6.20
   5   8 -15   62.29    7.80
  -4  -8  15    7.20    3.40
   4  -8 -15    4.30    3.20
   4   8 -15    8.50    3.80
   3  -8 -15    4.70    2.70
  -3  -8  15    0.20    2.20
   3   8 -15    3.00    2.50
   2  -8 -15   81.89    6.50
  -2  -8  15   79.59    5.80
   2   8 -15   74.29    7.30
   1  -8 -15   27.30    4.30
  -1  -8  15   29.40    3.80
   1   8 -15   25.40    4.40
   0  -8 -15   32.70    4.70
   0   8 -15   26.90    4.30
  -1  -8 -15    5.10    2.60
  -1  -8 -15    4.00    2.10
  -1   8 -15    1.30    2.30
  -1   8 -15    1.20    1.90
  -2  -8 -15    5.40    2.40
  -2  -8 -15    7.40    2.60
  -2   8 -15    8.00    2.90
  -2   8 -15    6.00    2.70
  -3  -8 -15   15.30    3.80
  -3  -8 -15   18.20    3.50
  -3   8 -15   15.30    3.30
  -3   8 -15   15.20    3.70
  -4  -8 -15   65.59    6.20
  -4  -8 -15   52.89    6.50
  -4   8 -15   55.49    5.70
  -4   8 -15   54.09    6.50
  -5  -8 -15    8.60    3.70
  -5  -8 -15   10.40    3.20
  -5   8 -15   11.10    4.10
  -5   8 -15    8.40    3.00
  -6  -8 -15   58.09    8.10
  -6  -8 -15   55.09    5.80
  -6   8 -15   57.89    7.50
  -6  -9  15   -0.70    3.50
   6  -9 -15   -1.10    3.30
   5  -9 -15   19.50    5.10
  -5  -9  15   20.90    5.10
   5   9 -15   16.50    4.90
  -4  -9  15    4.20    2.90
   4  -9 -15    3.40    3.30
   4   9 -15   12.00    4.20
   3  -9 -15  232.38   12.60
  -3  -9  15  256.67   11.90
   3   9 -15  240.08   12.80
  -2  -9  15   59.19    5.80
   2  -9 -15   48.40    6.10
   2   9 -15   52.69    6.40
   1  -9 -15  200.78   10.70
   1   9 -15  211.18   10.90
   0  -9 -15  182.48    9.80
   0   9 -15  176.08    9.70
  -1  -9 -15  179.08    9.30
  -1   9 -15  183.48   10.20
  -1   9 -15  184.28    9.60
  -2  -9 -15   65.19    6.40
  -2  -9 -15   60.39    6.30
  -2   9 -15   70.89    5.90
  -2   9 -15   63.89    6.40
  -3  -9 -15   33.50    4.80
  -3  -9 -15   43.50    5.70
  -3   9 -15   44.90    5.40
  -3   9 -15   31.40    4.90
  -4  -9 -15  103.59    7.00
  -4   9 -15  100.49    7.20
  -4   9 -15  108.29    8.40
  -5  -9 -15    6.60    3.70
  -5  -9 -15    4.60    3.20
  -5   9 -15    5.60    3.50
  -6  -9 -15    6.40    4.50
   5 -10 -15    3.40    3.80
  -5 -10  15   -3.70    2.80
   5  10 -15    2.30    3.50
   4 -10 -15  135.39   10.20
   4  10 -15  131.79   10.10
  -3 -10  15   61.99    6.80
   3 -10 -15   53.99    7.50
   3  10 -15   74.59    8.50
  -2 -10  15   -0.80    2.30
   2 -10 -15   -1.10    2.90
   2  10 -15    9.80    3.90
   1 -10 -15   81.59    7.00
   1  10 -15   74.39    7.80
   0 -10 -15   50.69    6.20
   0  10 -15   34.80    5.50
  -1 -10 -15   -0.20    2.60
  -1  10 -15    1.60    2.40
  -2 -10 -15    9.80    3.60
  -2  10 -15    9.20    3.40
  -2  10 -15   11.50    3.50
  -3 -10 -15    7.10    3.50
  -3 -10 -15   12.60    3.90
  -3  10 -15    3.90    3.10
  -3  10 -15   13.90    3.90
  -4 -10 -15   37.50    5.90
  -4 -10 -15   38.80    5.40
  -4  10 -15   29.80    5.40
  -3 -11  15   38.20    5.70
   3 -11 -15   44.60    7.00
   3  11 -15   51.29    7.50
   2 -11 -15   13.10    4.20
   2  11 -15    8.40    4.10
   1 -11 -15    2.30    3.00
   1  11 -15   -0.90    2.90
   0 -11 -15   82.79    8.10
   0  11 -15   92.09    8.80
  -1 -11 -15    1.20    2.70
  -1  11 -15   -0.60    2.70
  -2 -11 -15    9.40    3.70
  -2  11 -15   11.90    3.60
  -3 -11 -15   37.20    5.60
  -3  11 -15   31.00    5.50
   9   0 -16    0.80    3.10
   8   0 -16    4.70    3.60
   7   0 -16   15.40    4.10
   6   0 -16    3.60    2.20
   6   0 -16    4.60    2.90
   5   0 -16 2374.86   61.29
   5   0 -16 2326.77   63.19
   4   0 -16  256.77   10.20
   4   0 -16  253.27   11.40
   3   0 -16  249.48   10.80
   3   0 -16  270.87   10.10
   2   0 -16  290.17   11.10
   1   0 -16   91.59    5.10
   1   0 -16   95.19    5.10
   0   0 -16  183.68    7.20
   0   0 -16  175.88    7.50
  -1   0 -16  403.16   12.20
  -1   0 -16  411.66   13.60
  -2   0 -16   25.80    3.30
  -2   0 -16   26.30    2.00
  -3   0 -16   28.90    3.70
  -4   0 -16  446.26   15.70
  -5   0 -16   29.70    4.60
  -6   0 -16   82.29    6.50
  -7   0 -16   26.60    5.00
  -8   0 -16   25.90    5.00
  -9   0 -16  115.89    9.40
   9  -1 -16    8.50    4.00
   9   1 -16   13.00    4.80
   8  -1 -16   -2.30    2.30
   8   1 -16   -0.90    2.50
   7  -1 -16   -0.10    2.60
   7   1 -16   -0.80    1.80
   7   1 -16   -3.30    1.80
   6  -1 -16    1.50    2.40
   6   1 -16    2.50    2.30
   6   1 -16    0.20    2.30
   5  -1 -16   93.59    5.70
   5  -1 -16   89.09    6.90
   5   1 -16   88.29    6.20
   5   1 -16   88.69    6.90
   4  -1 -16   52.09    5.60
   4  -1 -16   50.09    4.00
   4   1 -16   45.80    5.30
   4   1 -16   45.30    4.70
   3  -1 -16  477.65   14.90
   3  -1 -16  450.95   16.10
   3   1 -16  463.95   16.10
   2  -1 -16   -0.50    1.10
   2  -1 -16    0.70    1.40
   2   1 -16   -0.20    1.30
   2   1 -16   -0.80    1.40
   1  -1 -16    2.00    1.20
   1  -1 -16    1.60    1.30
   1   1 -16    0.80    1.30
   1   1 -16    1.50    1.40
   0  -1 -16    4.50    1.60
   0  -1 -16    5.30    1.70
   0   1 -16    3.70    1.40
   0   1 -16    4.00    1.50
  -1  -1 -16  214.58    7.90
  -1  -1 -16  234.48    9.10
  -1   1 -16  212.28    7.40
  -1   1 -16  233.68    9.00
  -2  -1 -16    0.80    1.50
  -2  -1 -16    1.50    1.00
  -2   1 -16    0.60    1.40
  -2   1 -16    2.50    1.20
  -3  -1 -16   -0.50    0.80
  -3  -1 -16    0.80    1.60
  -3   1 -16    1.80    1.70
  -4  -1 -16   77.79    5.80
  -4   1 -16   68.29    5.30
  -5  -1 -16   25.00    4.50
  -5   1 -16   29.40    4.60
  -6  -1 -16   28.80    4.60
  -6   1 -16   29.70    4.40
  -7  -1 -16   -1.20    2.20
  -7   1 -16    0.70    2.50
  -8  -1 -16    6.20    3.50
  -8   1 -16    5.30    3.40
  -9  -1 -16   45.10    6.50
  -9   1 -16   36.10    6.00
   9  -2 -16    2.90    3.50
   9   2 -16   -0.10    2.80
   8  -2 -16    0.30    3.00
   8   2 -16    1.80    2.90
   7  -2 -16  251.77   13.10
   7   2 -16  241.38   11.80
   7   2 -16  206.58   11.80
   6  -2 -16  122.99    8.50
   6   2 -16  118.79    7.60
   6   2 -16  115.79    8.10
   5  -2 -16   -0.70    2.10
   5   2 -16   -0.20    0.80
   5   2 -16   -2.70    1.90
   4  -2 -16    2.30    2.00
   4  -2 -16    2.90    1.50
   4   2 -16    3.50    2.30
   4   2 -16   -2.60    1.50
   3  -2 -16  174.18    7.30
   3  -2 -16  176.58    8.90
   3   2 -16  171.48    8.20
   3   2 -16  165.68    8.40
   2  -2 -16  426.06   15.00
   2  -2 -16  447.86   13.70
   2   2 -16  430.66   14.60
   2   2 -16  425.16   14.60
   1  -2 -16   20.30    2.70
   1  -2 -16   18.00    2.90
   1   2 -16   18.20    2.80
   1   2 -16   16.20    2.60
   0  -2 -16    4.30    1.60
   0   2 -16    9.20    2.10
   0   2 -16    5.20    1.50
  -1  -2 -16  518.55   15.70
  -1  -2 -16  537.15   16.70
  -1   2 -16  542.55   16.80
  -1   2 -16  520.45   14.50
  -2  -2 -16   13.80    2.90
  -2  -2 -16   11.10    1.90
  -2   2 -16   14.70    2.70
  -3  -2 -16   11.90    3.00
  -3  -2 -16   16.40    2.10
  -3   2 -16   11.60    2.60
  -4  -2 -16   38.60    5.00
  -4   2 -16   32.30    4.20
  -5  -2 -16   76.19    6.50
  -5   2 -16   51.09    5.40
  -6  -2 -16    8.70    3.40
  -6   2 -16   11.50    3.00
  -7  -2 -16   22.70    4.60
  -7   2 -16   25.10    4.60
  -8  -2 -16    5.60    3.60
  -8   2 -16    3.80    2.80
   9  -3 -16   -2.60    3.20
   9   3 -16    1.50    3.50
   8  -3 -16  178.18   11.80
   8   3 -16  201.48   12.30
   7  -3 -16    0.40    2.70
   7   3 -16   -3.00    2.20
   7   3 -16    0.10    1.20
   6  -3 -16   11.70    3.60
   6   3 -16   13.10    3.50
   6   3 -16   14.70    4.00
   5  -3 -16  177.68   10.00
   5   3 -16  189.08    9.60
   5   3 -16  165.48    9.50
   4  -3 -16  104.49    7.30
   4   3 -16  104.39    7.00
   4   3 -16  109.49    6.80
   3  -3 -16   32.00    3.20
   3  -3 -16   23.10    3.80
   3   3 -16   38.10    4.40
   3   3 -16   32.90    4.10
   2  -3 -16  117.29    5.40
   2  -3 -16  105.39    6.30
   2   3 -16  105.29    6.20
   2   3 -16  102.09    5.90
   1  -3 -16   59.89    4.60
   1  -3 -16   67.69    4.20
   1   3 -16   62.49    4.60
   1   3 -16   62.29    4.20
   0  -3 -16  458.65   14.70
   0  -3 -16  456.05   14.80
   0   3 -16  454.85   13.60
   0   3 -16  456.35   15.10
  -1  -3 -16  270.07    9.30
  -1  -3 -16  205.28    9.10
  -1   3 -16  259.77    9.90
  -2  -3 -16    5.20    2.40
  -2  -3 -16    6.90    1.90
  -2   3 -16    6.70    2.00
  -3  -3 -16  149.99    8.10
  -3  -3 -16  140.79    6.10
  -3   3 -16  140.79    7.30
  -4  -3 -16  373.26   11.60
  -4  -3 -16  352.56   14.30
  -4   3 -16  363.36   13.40
  -5  -3 -16   25.50    4.40
  -5   3 -16   35.80    4.70
  -6  -3 -16    3.60    2.90
  -6   3 -16    3.80    2.50
  -7  -3 -16    4.30    3.30
  -7   3 -16    1.30    2.50
  -8  -3 -16   31.60    5.60
  -8   3 -16   24.90    4.70
   9  -4 -16   16.10    5.00
   8  -4 -16   11.50    4.50
   8   4 -16    3.90    3.20
   7  -4 -16  191.68   12.00
   7   4 -16  185.68   11.30
   7   4 -16  215.18   12.00
   6  -4 -16   74.59    7.90
   6   4 -16   74.29    7.70
   6   4 -16   63.09    6.90
   5  -4 -16    0.20    2.00
   5   4 -16   -0.50    2.00
   5   4 -16   -1.80    1.90
   4  -4 -16  186.68   10.10
   4   4 -16  193.08    9.60
   4   4 -16  182.68    9.60
   3  -4 -16  117.79    7.40
   3   4 -16  120.89    7.00
   3   4 -16  122.29    7.20
   2  -4 -16    2.30    1.30
   2  -4 -16   -0.70    1.50
   2   4 -16    2.80    1.80
   2   4 -16    2.50    1.70
   1  -4 -16  192.08    8.70
  -1  -4  16  201.78    8.20
   1  -4 -16  198.38    7.70
   1   4 -16  174.58    8.50
   0  -4 -16   80.19    4.90
   0  -4  16   65.39    4.30
   0  -4 -16   80.89    5.30
   0   4 -16   73.59    4.60
   0   4 -16   68.69    5.10
  -1  -4 -16   16.60    2.80
  -1  -4 -16   12.50    2.80
  -1   4 -16   16.70    3.00
  -2  -4 -16   -1.90    1.80
  -2  -4 -16    0.00    1.60
  -2   4 -16    2.00    1.90
  -3  -4 -16   16.70    3.60
  -3  -4 -16   20.20    2.90
  -3   4 -16   19.80    3.40
  -4  -4 -16  149.19    8.60
  -4  -4 -16  157.88    6.70
  -4   4 -16  135.09    7.50
  -5  -4 -16    6.20    3.00
  -5   4 -16    4.70    2.60
  -6  -4 -16   -0.30    2.70
  -6   4 -16   -1.30    2.30
  -7  -4 -16   25.00    5.40
  -7   4 -16   34.00    5.00
  -8  -4 -16   -0.10    3.40
  -8   4 -16    1.30    3.40
  -8   4 -16    1.40    2.70
   8  -5 -16   23.90    5.90
  -8  -5  16   24.40    6.00
  -7  -5  16   12.10    4.80
   7  -5 -16   14.30    4.50
   7   5 -16    6.90    3.60
  -6  -5  16  316.37   15.20
   6  -5 -16  293.67   14.70
   6   5 -16  306.27   14.40
   5  -5 -16   18.30    4.40
  -5  -5  16   20.50    4.60
   5   5 -16   18.20    4.10
  -4  -5  16   30.50    4.80
   4  -5 -16   31.30    4.90
   4   5 -16   31.50    4.80
  -3  -5  16  375.96   14.60
   3  -5 -16  393.76   15.40
   3   5 -16  390.66   15.00
   2  -5 -16    9.40    2.80
  -2  -5  16   12.10    2.80
   2   5 -16    8.60    2.70
   1  -5 -16   85.99    4.80
  -1  -5  16   94.59    5.50
   1  -5 -16   98.59    6.20
   1   5 -16   92.89    6.10
   0  -5 -16    7.80    2.20
   0  -5 -16    5.90    2.40
   0  -5  16    6.50    2.10
   0   5 -16    6.00    2.50
   0   5 -16    6.20    2.00
  -1  -5 -16    5.30    2.50
  -1  -5 -16    2.60    2.20
  -1   5 -16    4.70    2.40
  -1   5 -16    2.40    2.20
  -2  -5 -16 1686.43   43.60
  -2   5 -16 1630.64   44.40
  -2   5 -16 1637.74   44.90
  -3  -5 -16    8.80    2.90
  -3  -5 -16    7.60    2.30
  -3   5 -16    2.70    2.20
  -3   5 -16    8.50    2.90
  -4  -5 -16    1.60    2.40
  -4  -5 -16    2.90    1.90
  -4   5 -16    2.90    2.30
  -4   5 -16    5.20    2.90
  -5  -5 -16  138.09    9.00
  -5  -5 -16  141.99    6.90
  -5   5 -16  147.69    8.10
  -5   5 -16  137.39    9.00
  -6  -5 -16    1.70    2.70
  -6   5 -16    2.40    3.10
  -6   5 -16    0.30    2.50
  -7  -5 -16    1.40    3.10
  -7   5 -16    0.30    2.60
  -7   5 -16    5.70    3.00
  -8  -5 -16    0.10    3.60
  -8   5 -16    3.10    3.60
  -8   5 -16    2.30    2.70
  -8  -6  16   20.30    6.00
   8  -6 -16   20.60    5.40
  -7  -6  16   -3.00    3.00
   7  -6 -16   -3.00    2.50
   7   6 -16   -4.00    2.60
   6  -6 -16    4.30    3.30
  -6  -6  16    2.20    3.70
   6   6 -16    1.70    3.40
   5  -6 -16    7.60    3.40
  -5  -6  16    7.60    3.70
   5   6 -16    8.10    3.40
  -4  -6  16    2.10    2.00
   4  -6 -16    4.10    2.80
   4   6 -16    7.40    2.90
   3  -6 -16   76.09    6.30
  -3  -6  16   82.99    6.30
   3   6 -16   95.89    6.80
   2  -6 -16  243.88   11.00
  -2  -6  16  221.68   10.00
   2   6 -16  228.98   10.70
  -1  -6  16   86.59    5.30
   1  -6 -16   86.09    5.30
   1  -6 -16   88.69    6.20
   1   6 -16   75.29    5.90
   0  -6 -16  128.19    6.40
   0  -6 -16  121.19    7.00
   0   6 -16  129.89    6.30
   0   6 -16  116.19    7.20
  -1  -6 -16   32.20    4.00
  -1  -6 -16   35.80    4.30
  -1   6 -16   39.40    4.50
  -1   6 -16   35.30    4.50
  -2  -6 -16    5.20    2.60
  -2  -6 -16    8.60    2.50
  -2   6 -16    7.80    2.80
  -2   6 -16    6.30    2.60
  -3  -6 -16   48.40    5.70
  -3  -6 -16   48.50    4.80
  -3   6 -16   51.19    5.30
  -3   6 -16   40.50    5.20
  -4  -6 -16   46.10    5.70
  -4  -6 -16   45.20    4.50
  -4   6 -16   40.20    4.80
  -4   6 -16   43.40    5.60
  -5  -6 -16   38.20    5.80
  -5  -6 -16   33.90    4.10
  -5   6 -16   28.00    5.10
  -5   6 -16   33.60    4.60
  -6  -6 -16   39.70    6.20
  -6   6 -16   42.00    5.20
  -6   6 -16   35.70    5.90
  -7  -6 -16   30.50    6.00
  -7   6 -16   25.40    5.30
  -7   6 -16   26.10    4.40
   7  -7 -16   75.99    9.30
  -7  -7  16   68.29    8.50
   6  -7 -16  194.08   12.60
  -6  -7  16  221.38   12.90
   6   7 -16  197.68   12.20
   5  -7 -16   77.49    8.40
  -5  -7  16   78.39    8.00
   5   7 -16   71.19    7.90
   4  -7 -16    2.30    2.70
  -4  -7  16   -2.50    1.20
   4   7 -16    0.70    2.30
  -3  -7  16    1.50    2.20
   3  -7 -16   -0.20    2.30
   3   7 -16    4.70    2.70
  -2  -7  16   34.50    4.30
   2  -7 -16   37.50    5.20
   2   7 -16   37.20    5.20
   1  -7 -16  121.29    7.50
  -1  -7  16  109.89    6.20
   1   7 -16  117.79    7.40
   0  -7 -16  158.78    8.30
   0  -7 -16  139.79    6.90
   0   7 -16  139.99    8.20
  -1  -7 -16    1.70    2.00
  -1  -7 -16    2.30    2.00
  -1   7 -16    0.10    2.00
  -1   7 -16    4.10    2.30
  -2  -7 -16  329.57   13.40
  -2  -7 -16  352.86   13.10
  -2   7 -16  366.86   13.80
  -2   7 -16  330.97   13.40
  -3  -7 -16    1.80    2.10
  -3  -7 -16    0.50    1.40
  -3   7 -16    0.60    2.00
  -3   7 -16   -2.50    2.00
  -4  -7 -16   14.40    3.70
  -4  -7 -16   18.70    3.60
  -4   7 -16   18.90    4.00
  -4   7 -16   13.90    3.50
  -5  -7 -16   99.59    8.00
  -5  -7 -16   98.69    6.30
  -5   7 -16   75.39    7.90
  -5   7 -16   90.29    6.60
  -6  -7 -16    1.40    3.20
  -6   7 -16    1.90    3.30
  -6   7 -16    6.20    3.00
  -7  -7 -16    3.00    3.80
  -7   7 -16    4.70    4.10
  -7  -8  16   14.70    4.70
   7  -8 -16   10.30    4.50
  -6  -8  16   17.50    4.90
   6  -8 -16    5.70    4.10
   6   8 -16   15.10    5.00
   5  -8 -16   20.00    4.80
  -5  -8  16   18.20    4.70
   5   8 -16   18.80    5.10
   4  -8 -16  183.78   11.00
   4   8 -16  176.58   10.80
  -3  -8  16  186.08    9.80
   3  -8 -16  176.68   10.50
   3   8 -16  168.58   10.10
  -2  -8  16    0.20    1.90
   2  -8 -16    0.50    2.40
   2   8 -16    5.20    2.80
   1  -8 -16  248.38   11.80
   1   8 -16  253.07   11.90
   0  -8 -16   29.50    4.50
   0   8 -16   25.30    4.20
  -1  -8 -16   57.69    5.90
  -1  -8 -16   44.30    5.00
  -1   8 -16   44.20    4.90
  -1   8 -16   49.60    5.70
  -2  -8 -16   -1.40    1.90
  -2  -8 -16    0.70    2.30
  -2   8 -16    4.00    2.40
  -2   8 -16   -0.70    2.10
  -3  -8 -16   -3.60    1.90
  -3  -8 -16   -0.20    2.20
  -3   8 -16    0.30    2.20
  -3   8 -16   -4.60    1.80
  -4  -8 -16   29.10    4.30
  -4  -8 -16   19.80    4.30
  -4   8 -16   31.60    5.40
  -4   8 -16   18.30    3.90
  -5  -8 -16   39.20    5.00
  -5  -8 -16   36.00    5.90
  -5   8 -16   32.10    5.70
  -5   8 -16   34.80    4.90
  -6  -8 -16    7.00    4.50
  -6  -8 -16    7.20    3.20
  -6   8 -16    7.30    4.10
   6  -9 -16   35.20    6.70
  -6  -9  16   23.10    5.50
   6   9 -16   17.90    5.50
   5  -9 -16    5.00    3.70
  -5  -9  16    3.00    3.30
   5   9 -16   -1.60    2.60
  -4  -9  16    4.50    2.90
   4  -9 -16    8.70    3.80
   4   9 -16    6.10    3.80
  -3  -9  16  104.49    7.70
   3  -9 -16  112.89    8.60
   3   9 -16   99.09    8.30
  -2  -9  16    1.60    2.20
   2  -9 -16    6.20    3.40
   2   9 -16    2.90    2.80
   1  -9 -16   22.20    4.60
   1   9 -16   25.10    4.60
   0  -9 -16   62.39    6.40
   0   9 -16   70.39    7.10
  -1  -9 -16   25.70    4.30
  -1   9 -16   34.70    5.10
  -2  -9 -16    4.30    2.80
  -2  -9 -16    5.40    3.00
  -2   9 -16    8.60    3.20
  -2   9 -16    7.80    3.00
  -3  -9 -16   55.39    5.90
  -3  -9 -16   50.89    6.30
  -3   9 -16   65.19    7.10
  -3   9 -16   61.19    6.60
  -4  -9 -16   52.99    6.10
  -4   9 -16   48.20    6.70
  -4   9 -16   38.90    5.30
  -5  -9 -16   49.50    5.70
  -5  -9 -16   38.90    6.30
  -5   9 -16   35.20    5.90
   5 -10 -16    1.70    3.80
  -5 -10  16    1.00    3.10
   5  10 -16    2.20    3.50
  -4 -10  16   88.09    8.50
   4 -10 -16   94.39    9.90
   4  10 -16   89.29    9.50
   3 -10 -16   10.40    4.10
  -3 -10  16   26.50    4.90
   3  10 -16   10.80    4.40
   2 -10 -16    6.70    3.40
   2  10 -16   -0.10    2.60
   1 -10 -16   -0.50    2.40
   1  10 -16    5.20    3.20
   0 -10 -16   21.90    4.40
   0  10 -16   16.50    4.20
  -1 -10 -16    2.50    2.80
  -1  10 -16    3.30    2.80
  -2 -10 -16   -4.70    2.20
  -2  10 -16   -1.70    2.00
  -3 -10 -16   30.50    5.20
  -3  10 -16   22.80    4.90
  -3  10 -16   19.60    4.30
  -4 -10 -16    5.60    3.20
  -4 -10 -16    5.90    3.60
  -4  10 -16    5.00    2.80
   3 -11 -16   23.30    5.60
   3  11 -16   20.30    5.40
   2 -11 -16    2.50    3.60
   2  11 -16    0.30    2.80
   1 -11 -16   -3.10    2.70
   1  11 -16    0.90    3.30
   0 -11 -16   72.79    7.50
   0  11 -16   50.89    7.00
  -1 -11 -16   12.60    4.10
  -1  11 -16   18.50    4.50
  -2 -11 -16   11.90    3.90
  -2  11 -16   19.70    4.50
   9   0 -17   -3.30    2.60
   8   0 -17   -4.80    2.40
   7   0 -17    0.00    2.50
   6   0 -17   -1.60    2.30
   6   0 -17   -2.10    1.40
   5   0 -17    0.10    2.10
   5   0 -17    5.70    3.20
   4   0 -17    0.20    2.00
   4   0 -17    0.50    1.70
   3   0 -17    1.70    2.10
   3   0 -17   -1.70    1.30
   2   0 -17    5.00    1.90
   1   0 -17    1.60    1.40
   1   0 -17    0.90    1.40
   0   0 -17    1.20    1.40
   0   0 -17   -0.80    1.00
  -1   0 -17   -0.80    1.20
  -2   0 -17   -1.30    1.20
  -2   0 -17    0.10    0.80
  -3   0 -17    0.60    1.90
  -4   0 -17   -0.20    2.10
  -5   0 -17   -0.10    2.40
  -6   0 -17   -0.90    1.90
  -7   0 -17   -0.80    2.10
  -8   0 -17   -0.70    2.70
   9  -1 -17    6.00    3.60
   9   1 -17    7.70    3.90
   8  -1 -17    5.00    3.40
   8   1 -17   10.50    4.20
   7  -1 -17    5.20    3.40
   7   1 -17   10.40    3.40
   7   1 -17   11.60    3.50
   6  -1 -17   89.69    8.50
   6   1 -17   74.19    7.70
   6   1 -17   83.19    6.40
   5  -1 -17   29.90    4.80
   5  -1 -17   34.20    4.10
   5   1 -17   36.80    5.50
   5   1 -17   38.20    4.80
   4  -1 -17  629.14   21.50
   4  -1 -17  632.54   19.60
   4   1 -17  644.84   20.40
   4   1 -17  638.34   21.30
   3  -1 -17  251.87   10.70
   3  -1 -17  245.98    9.40
   3   1 -17  219.88   10.00
   3   1 -17  203.58    9.30
   2  -1 -17    0.60    1.50
   2  -1 -17    0.30    1.30
   2   1 -17    5.50    2.10
   2   1 -17   -2.00    1.10
   1  -1 -17  709.73   21.60
   1   1 -17  731.33   21.60
   1   1 -17  751.42   21.50
   0  -1 -17   17.30    2.70
   0  -1 -17   11.40    2.30
   0   1 -17   17.90    2.70
   0   1 -17   15.20    2.30
  -1  -1 -17    7.00    2.00
  -1  -1 -17    8.60    1.80
  -1   1 -17   12.30    2.40
  -1   1 -17    9.60    1.60
  -2  -1 -17  512.25   16.50
  -2  -1 -17  479.95   14.30
  -2   1 -17  507.85   16.40
  -3  -1 -17   15.20    3.10
  -3   1 -17   13.70    2.90
  -4  -1 -17   45.40    5.10
  -4   1 -17   54.49    5.60
  -5  -1 -17  152.18    8.90
  -5   1 -17  147.29    8.30
  -6  -1 -17   65.69    6.90
  -6   1 -17   74.99    6.10
  -7  -1 -17    5.00    3.10
  -7   1 -17    2.30    2.80
  -8  -1 -17   -1.80    2.90
  -8   1 -17    1.40    2.60
   9  -2 -17   -1.30    3.20
   9   2 -17   -1.60    3.30
   8  -2 -17   10.60    4.30
   8   2 -17    8.80    4.20
   7  -2 -17   12.80    4.20
   7   2 -17   22.70    4.60
   7   2 -17   24.00    4.60
   6  -2 -17    1.70    2.30
   6   2 -17    0.50    2.30
   6   2 -17    5.40    3.00
   5  -2 -17  225.88   11.60
   5   2 -17  225.78   11.20
   4  -2 -17  133.79    8.20
   4  -2 -17  131.29    6.50
   4   2 -17  134.19    8.10
   4   2 -17  136.29    7.70
   3  -2 -17  152.08    7.00
   3  -2 -17  158.78    8.50
   3   2 -17  157.48    8.20
   3   2 -17  150.58    7.90
   2  -2 -17   82.59    4.80
   2  -2 -17   77.49    5.40
   2   2 -17   85.89    5.50
   2   2 -17   91.09    5.60
   1  -2 -17   10.30    2.10
   1  -2 -17   10.60    2.60
   1   2 -17    9.10    2.00
   1   2 -17   11.50    2.60
   0  -2 -17  163.78    7.50
   0   2 -17  181.38    8.00
   0   2 -17  186.28    7.00
  -1  -2 -17    1.00    1.60
  -1  -2 -17    2.20    1.50
  -1   2 -17    0.30    1.40
  -1   2 -17    2.30    1.00
  -2  -2 -17   -0.70    1.50
  -2  -2 -17   -1.00    1.10
  -2   2 -17    1.20    1.60
  -3  -2 -17   37.10    4.60
  -3  -2 -17   43.30    3.10
  -3   2 -17   43.30    4.60
  -4  -2 -17    3.50    2.50
  -4   2 -17    2.60    2.40
  -5  -2 -17  124.69    8.00
  -5   2 -17  125.49    7.60
  -6  -2 -17    2.70    2.70
  -6   2 -17    0.40    2.10
  -7  -2 -17   59.39    6.80
  -7   2 -17   63.79    6.70
  -8  -2 -17    8.80    3.80
  -8   2 -17    9.50    3.30
   9  -3 -17    7.40    4.30
   9   3 -17    2.00    4.00
   8  -3 -17   40.90    6.90
   8   3 -17   47.70    7.10
   7  -3 -17   22.20    5.20
   7   3 -17   24.30    5.00
   6  -3 -17   98.99    7.80
   6   3 -17   77.69    6.60
   6   3 -17   85.99    7.30
   5  -3 -17   16.10    3.80
   5   3 -17   17.10    3.70
   5   3 -17   20.30    4.30
   4  -3 -17   23.00    4.40
   4   3 -17   18.00    3.50
   4   3 -17   25.10    4.00
   3  -3 -17  149.79    8.40
   3  -3 -17  145.89    6.50
   3   3 -17  139.69    7.90
   3   3 -17  148.49    7.90
   2  -3 -17  157.68    6.80
   2  -3 -17  148.49    7.90
   2   3 -17  164.98    7.80
   2   3 -17  161.88    8.00
   1  -3 -17  684.93   20.10
   1  -3 -17  684.93   21.30
   1   3 -17  691.93   20.30
   1   3 -17  708.93   21.40
   0  -3 -17  543.95   17.10
   0  -3 -17  531.05   16.80
   0   3 -17  555.24   15.90
   0   3 -17  537.55   17.40
  -1  -3 -17   91.49    5.70
  -1  -3 -17  107.09    5.70
  -1   3 -17  102.49    6.00
  -2  -3 -17    2.60    1.60
  -2  -3 -17    2.60    2.20
  -2   3 -17    3.30    2.10
  -3  -3 -17  250.77   11.00
  -3  -3 -17  262.47    9.10
  -3   3 -17  250.17   10.50
  -4  -3 -17  142.99    8.60
  -4   3 -17  146.29    7.80
  -5  -3 -17   30.70    5.00
  -5   3 -17   24.50    3.90
  -6  -3 -17    0.10    2.90
  -6   3 -17    0.60    2.40
  -7  -3 -17    2.20    3.10
  -7   3 -17   -1.50    2.60
  -8  -3 -17    8.20    3.90
  -8   3 -17    2.00    2.80
   8  -4 -17   73.69    9.40
   8   4 -17   61.39    7.90
   7  -4 -17   75.89    9.00
   7   4 -17   66.09    7.80
   7   4 -17   70.19    7.90
   6  -4 -17   32.10    5.60
   6   4 -17   36.70    5.70
   6   4 -17   35.20    5.40
   5  -4 -17   15.90    4.30
   5   4 -17   13.30    3.50
   5   4 -17   18.80    4.20
   4  -4 -17   28.20    4.70
   4   4 -17   18.30    3.80
   4   4 -17   21.20    3.90
   3  -4 -17    0.30    1.90
   3   4 -17    2.40    2.20
   3   4 -17    2.20    2.10
   2  -4 -17   37.40    4.60
   2  -4 -17   40.70    3.30
   2   4 -17   37.00    4.50
   2   4 -17   32.70    4.00
   1  -4 -17    1.70    1.30
   1  -4 -17    0.10    1.80
  -1  -4  17   -0.20    1.50
   1   4 -17   -1.60    1.50
   0  -4 -17  684.33   20.30
   0  -4 -17  665.73   20.70
   0   4 -17  688.33   21.20
   0   4 -17  676.73   19.90
  -1  -4 -17    0.50    1.80
  -1  -4 -17   -2.10    1.70
  -1   4 -17    4.20    2.20
  -2  -4 -17  387.66   14.30
  -2  -4 -17  400.36   13.00
  -2   4 -17  377.76   13.80
  -3  -4 -17  108.59    6.90
  -3  -4 -17   99.09    5.50
  -3   4 -17   98.99    6.50
  -4  -4 -17  148.39    6.40
  -4  -4 -17  122.09    8.00
  -4   4 -17  114.89    7.30
  -5  -4 -17    1.60    2.70
  -5   4 -17    1.40    2.30
  -6  -4 -17  139.99    9.50
  -6   4 -17  130.79    8.00
  -7  -4 -17    6.20    3.50
  -7   4 -17   -2.80    2.40
  -8  -4 -17   12.40    4.60
  -8   4 -17   16.60    4.00
  -8   4 -17   16.70    4.90
   8  -5 -17   13.80    4.70
  -8  -5  17   12.10    5.00
   7  -5 -17   32.00    6.10
  -7  -5  17   48.20    7.10
   7   5 -17   46.80    7.10
  -6  -5  17   31.90    5.50
   6  -5 -17   40.60    6.30
   6   5 -17   36.70    6.20
   5  -5 -17    0.30    2.30
  -5  -5  17    0.30    2.60
   5   5 -17   -0.80    2.00
  -4  -5  17    0.90    1.10
   4  -5 -17    7.10    2.90
   4   5 -17    6.60    2.90
   3  -5 -17   42.00    5.30
  -3  -5  17   36.10    4.70
   3   5 -17   30.20    4.50
   2  -5 -17   58.69    5.90
  -2  -5  17   60.79    5.10
   2   5 -17   62.89    5.30
   1  -5 -17   26.00    3.20
   1  -5 -17   22.40    3.80
  -1  -5  17   24.50    3.30
   1   5 -17   26.00    4.00
   0  -5 -17  130.89    6.60
   0  -5 -17  129.49    7.30
   0   5 -17  146.79    6.70
   0   5 -17  136.19    7.50
  -1  -5 -17  711.83   22.10
  -1  -5 -17  723.83   22.00
  -1   5 -17  743.13   22.20
  -1   5 -17  735.73   22.70
  -2  -5 -17   60.29    4.90
  -2   5 -17   63.89    6.10
  -2   5 -17   63.09    5.30
  -3  -5 -17    1.20    2.10
  -3  -5 -17    4.30    2.00
  -3   5 -17    1.60    2.30
  -3   5 -17    4.50    2.60
  -4  -5 -17   14.30    3.50
  -4  -5 -17   19.90    3.10
  -4   5 -17   23.90    4.60
  -4   5 -17   22.20    3.80
  -5  -5 -17   16.50    4.10
  -5   5 -17   16.00    4.30
  -5   5 -17   18.10    3.70
  -6  -5 -17   18.80    4.80
  -6   5 -17   21.50    4.20
  -6   5 -17   16.30    4.60
  -7  -5 -17   12.30    4.40
  -7   5 -17   16.50    4.90
  -7   5 -17   11.20    3.40
   8  -6 -17   12.20    4.90
   7  -6 -17   -1.80    2.70
  -7  -6  17   -7.10    3.10
   7   6 -17   -3.20    2.50
   6  -6 -17   37.10    6.30
  -6  -6  17   32.90    5.90
   6   6 -17   44.60    7.00
   5  -6 -17  165.38   10.50
  -5  -6  17  162.98   10.20
   5   6 -17  161.38   10.10
   4  -6 -17    9.00    3.40
  -4  -6  17    4.60    2.40
   4   6 -17    7.70    3.10
  -3  -6  17   16.30    3.60
   3  -6 -17   20.50    4.10
   3   6 -17   17.60    3.90
  -2  -6  17  262.37   11.10
   2  -6 -17  260.57   11.90
   2   6 -17  275.77   12.00
   1  -6 -17  115.79    7.20
  -1  -6  17  123.39    6.50
   1   6 -17  122.29    7.70
   0  -6 -17    5.10    2.40
   0  -6 -17    2.60    1.80
   0   6 -17    2.30    2.30
  -1  -6 -17   79.39    5.70
  -1  -6 -17   76.39    5.60
  -1   6 -17   85.19    5.80
  -1   6 -17   92.99    6.50
  -2  -6 -17   11.40    3.20
  -2  -6 -17   13.10    3.10
  -2   6 -17    6.00    2.90
  -2   6 -17    9.40    3.00
  -3  -6 -17  179.18    9.50
  -3  -6 -17  180.28    8.30
  -3   6 -17  181.78    8.90
  -3   6 -17  171.48    9.60
  -4  -6 -17   15.90    4.10
  -4  -6 -17   17.90    3.20
  -4   6 -17   21.30    3.90
  -4   6 -17   16.10    3.70
  -5  -6 -17   13.00    4.20
  -5  -6 -17   13.90    3.10
  -5   6 -17   10.30    3.30
  -5   6 -17    8.10    3.50
  -6  -6 -17  102.79    8.70
  -6   6 -17  127.19    7.90
  -6   6 -17  114.89    9.10
  -7  -6 -17    7.40    4.00
  -7   6 -17   15.80    3.80
  -7   6 -17    8.70    4.00
  -7  -7  17   65.49    8.80
   7  -7 -17   42.20    7.10
  -6  -7  17   14.10    4.80
   6  -7 -17   12.20    4.20
   6   7 -17    8.30    4.00
  -5  -7  17    6.20    3.70
   5  -7 -17    2.80    3.00
   5   7 -17    5.70    3.50
  -4  -7  17   59.99    7.00
   4  -7 -17   71.39    8.00
   4   7 -17   59.39    6.90
   3  -7 -17    0.50    2.30
  -3  -7  17    0.70    2.10
   3   7 -17   -1.50    2.10
  -2  -7  17   18.10    3.40
   2  -7 -17   26.20    4.60
   2   7 -17   15.50    3.60
   1  -7 -17   10.90    3.10
   1   7 -17    5.20    2.90
   0  -7 -17  181.58    9.20
   0   7 -17  165.48    9.10
  -1  -7 -17   11.30    2.80
  -1  -7 -17    9.40    2.90
  -1   7 -17   10.40    3.00
  -1   7 -17   10.60    2.80
  -2  -7 -17   10.60    2.90
  -2  -7 -17    4.50    2.60
  -2   7 -17    7.70    2.90
  -2   7 -17   11.40    3.10
  -3  -7 -17   31.60    4.30
  -3   7 -17   28.70    4.40
  -3   7 -17   33.60    5.10
  -4  -7 -17   20.40    4.40
  -4  -7 -17   14.40    3.20
  -4   7 -17   12.60    3.50
  -4   7 -17   15.30    3.60
  -5  -7 -17   14.90    3.40
  -5  -7 -17    7.50    3.60
  -5   7 -17    4.40    3.30
  -5   7 -17   15.20    3.60
  -6  -7 -17    3.40    3.70
  -6   7 -17   -1.30    3.20
  -6   7 -17    4.80    2.90
  -6  -8  17    6.00    4.00
   6  -8 -17    4.00    3.50
   6   8 -17    5.40    4.10
  -5  -8  17   63.29    7.70
   5  -8 -17   52.39    7.50
   5   8 -17   57.29    7.70
  -4  -8  17    3.10    3.10
   4  -8 -17    5.40    3.50
   4   8 -17    0.80    2.70
  -3  -8  17   14.00    3.70
   3  -8 -17   15.20    4.10
   3   8 -17   16.80    4.30
  -2  -8  17   13.70    3.20
   2  -8 -17   15.50    4.00
   2   8 -17   19.00    4.10
   1  -8 -17   23.50    4.40
   1   8 -17   27.20    4.90
   0  -8 -17   10.70    3.20
   0   8 -17   13.00    3.50
  -1  -8 -17   53.09    5.80
  -1   8 -17   49.40    5.80
  -2  -8 -17   -0.60    1.90
  -2  -8 -17    3.30    2.50
  -2   8 -17    0.00    2.40
  -2   8 -17   -1.10    1.90
  -3  -8 -17   26.30    4.10
  -3  -8 -17   29.30    5.00
  -3   8 -17   23.00    4.40
  -3   8 -17   30.10    4.70
  -4  -8 -17   -1.80    2.80
  -4  -8 -17   -0.60    2.10
  -4   8 -17    0.80    2.30
  -4   8 -17   -3.10    1.70
  -5  -8 -17    6.70    3.50
  -5  -8 -17   11.00    3.50
  -5   8 -17   12.70    4.20
  -5   8 -17    7.80    3.30
  -6  -8 -17   67.19    8.30
  -6   8 -17   76.29    8.80
  -5  -9  17    3.90    3.60
   5  -9 -17    5.40    4.00
   5   9 -17    0.40    3.20
   4  -9 -17    0.70    3.50
  -4  -9  17   -1.40    2.80
   4   9 -17   -1.50    3.00
  -3  -9  17   82.29    6.90
   3  -9 -17   88.89    9.10
   3   9 -17   71.79    8.30
   2  -9 -17   34.40    5.80
   2   9 -17   41.90    6.10
   1  -9 -17    4.00    2.90
   1   9 -17    3.30    2.80
   0  -9 -17   64.79    7.00
   0   9 -17   73.09    7.60
  -1  -9 -17  116.19    7.70
  -1   9 -17  115.89    8.10
  -2  -9 -17    2.70    2.60
  -2   9 -17    9.40    3.70
  -2   9 -17    9.00    3.50
  -3  -9 -17   14.40    4.00
  -3  -9 -17   20.10    4.20
  -3   9 -17   18.90    4.20
  -3   9 -17   22.20    4.70
  -4  -9 -17   48.90    5.60
  -4  -9 -17   24.30    4.50
  -5  -9 -17   39.10    6.70
  -5  -9 -17   57.89    6.40
  -5   9 -17   50.19    6.80
  -4 -10  17    9.90    3.80
   4 -10 -17    7.30    4.50
   4  10 -17    7.60    4.20
   3 -10 -17   67.59    8.70
  -3 -10  17   42.00    9.00
   3  10 -17   39.20    6.60
   2 -10 -17    0.90    2.90
   2  10 -17    1.10    2.90
   1 -10 -17  121.89    8.80
   1  10 -17  119.39    8.80
   0 -10 -17   99.69    7.70
   0  10 -17   89.29    7.60
  -1 -10 -17    1.30    2.70
  -1  10 -17    1.10    2.80
  -2 -10 -17    3.50    3.10
  -2  10 -17    1.10    2.80
  -3 -10 -17    1.10    3.10
  -3  10 -17   -0.40    2.70
  -3  10 -17    4.00    3.20
   2 -11 -17    1.80    3.50
   2  11 -17    3.40    3.90
   1 -11 -17   24.50    5.20
   1  11 -17   21.50    5.20
   0 -11 -17    6.10    3.60
   0  11 -17    2.30    3.70
  -1 -11 -17    1.90    3.40
  -1  11 -17    5.00    3.10
   9   0 -18    1.20    3.20
   8   0 -18   39.30    6.50
   7   0 -18    6.20    3.50
   6   0 -18    0.30    2.20
   6   0 -18    4.30    2.40
   5   0 -18   29.20    4.70
   5   0 -18   23.90    3.90
   4   0 -18  619.54   19.80
   4   0 -18  617.04   21.10
   3   0 -18  379.76   14.40
   3   0 -18  381.86   13.60
   2   0 -18 2398.56   62.39
   1   0 -18  843.02   24.40
   1   0 -18  842.12   24.50
   0   0 -18    3.50    1.60
   0   0 -18    2.10    1.50
  -1   0 -18   25.10    3.50
  -1   0 -18   28.60    2.90
  -2   0 -18    1.50    1.80
  -3   0 -18    7.80    2.50
  -4   0 -18  249.88   11.00
  -5   0 -18    1.80    2.40
  -6   0 -18    6.70    3.10
  -7   0 -18   74.69    7.60
  -8   0 -18   -3.40    2.10
   9  -1 -18   27.70    6.00
   9   1 -18   30.50    6.20
   8  -1 -18   13.40    4.40
   8   1 -18   14.90    4.60
   7  -1 -18   17.80    4.50
   7   1 -18   27.60    4.70
   7   1 -18   17.60    4.40
   6  -1 -18   52.79    6.60
   6   1 -18   52.19    5.80
   6   1 -18   62.29    7.10
   5  -1 -18    3.70    2.00
   5  -1 -18    7.00    3.10
   5   1 -18    3.40    2.60
   5   1 -18    1.00    2.40
   4  -1 -18    2.00    1.80
   4  -1 -18    2.40    2.40
   4   1 -18    3.10    2.40
   4   1 -18    0.40    1.60
   3  -1 -18  194.08    9.50
   3  -1 -18  220.08    8.90
   3   1 -18  181.08    8.80
   3   1 -18  204.68    9.50
   2  -1 -18  100.19    6.40
   2  -1 -18  101.99    5.80
   2   1 -18  114.89    6.50
   2   1 -18  101.69    6.10
   1  -1 -18    2.70    1.90
   1  -1 -18    0.10    0.60
   1   1 -18    2.60    1.60
   1   1 -18    5.70    1.90
   0  -1 -18  261.77   10.10
   0  -1 -18  257.77    9.90
   0   1 -18  267.57    9.60
   0   1 -18  277.97   10.50
  -1  -1 -18  222.68    9.20
  -1  -1 -18  213.78    8.20
  -1   1 -18  210.98    9.10
  -1   1 -18  224.28    7.70
  -2  -1 -18   70.79    5.20
  -2  -1 -18   67.29    3.90
  -2   1 -18   68.99    5.00
  -3  -1 -18  152.28    8.00
  -3   1 -18  158.88    8.00
  -4  -1 -18  440.96   16.00
  -4   1 -18  427.66   15.90
  -5  -1 -18  169.98    9.40
  -5   1 -18  157.48    8.70
  -6  -1 -18    1.30    2.70
  -6   1 -18    2.40    2.40
  -7  -1 -18    3.90    3.10
  -7   1 -18    2.20    2.70
  -8  -1 -18   17.80    5.00
  -8   1 -18   20.00    4.60
   8  -2 -18   10.10    4.00
   8   2 -18    7.90    4.10
   7  -2 -18   -0.80    2.80
   7   2 -18   -0.90    2.30
   7   2 -18   -0.90    2.30
   6  -2 -18   76.69    8.10
   6   2 -18   62.49    7.10
   6   2 -18   66.69    6.80
   5  -2 -18  555.94   20.60
   5   2 -18  539.75   19.90
   4  -2 -18  238.08    9.70
   4  -2 -18  263.07   11.90
   4   2 -18  248.48   11.30
   4   2 -18  242.98   10.90
   3  -2 -18  253.57   11.20
   3  -2 -18  238.78    9.50
   3   2 -18  252.47   10.80
   3   2 -18  237.18   10.70
   2  -2 -18  186.78    7.90
   2  -2 -18  191.08    9.00
   2   2 -18  174.28    8.40
   2   2 -18  178.78    8.50
   1  -2 -18    0.90    1.70
   1  -2 -18    3.10    1.70
   1   2 -18    0.20    1.50
   1   2 -18    3.50    1.60
   0  -2 -18  119.89    6.40
   0   2 -18  124.39    5.70
   0   2 -18  130.49    6.70
  -1  -2 -18  455.05   14.50
  -1  -2 -18  472.15   15.60
  -1   2 -18  458.15   15.50
  -2  -2 -18   69.49    5.20
  -2  -2 -18   69.09    4.10
  -2   2 -18   67.89    5.20
  -3  -2 -18   53.69    5.60
  -3   2 -18   53.19    5.20
  -4  -2 -18   45.00    5.30
  -4   2 -18   37.60    4.70
  -5  -2 -18   77.09    6.60
  -5   2 -18   73.09    6.00
  -6  -2 -18    7.50    3.10
  -6   2 -18    9.40    3.10
  -7  -2 -18   -1.20    2.30
  -7   2 -18    3.90    3.10
  -8  -2 -18   -2.20    2.80
  -8   2 -18    2.80    2.90
   8  -3 -18   56.39    8.00
   8   3 -18   71.59    8.40
   7  -3 -18  133.09   10.20
   7   3 -18  132.89    9.60
   6  -3 -18   22.80    4.90
   6   3 -18   15.00    4.10
   6   3 -18   14.60    3.90
   5  -3 -18    1.80    2.40
   5   3 -18   -0.60    2.60
   5   3 -18   -1.10    1.90
   4  -3 -18   25.60    4.40
   4   3 -18   28.60    4.30
   4   3 -18   27.30    4.20
   3  -3 -18   12.90    2.50
   3  -3 -18   12.40    3.20
   3   3 -18   11.50    3.00
   3   3 -18   10.70    2.90
   2  -3 -18    6.00    2.30
   2  -3 -18    6.60    1.90
   2   3 -18    6.50    2.40
   2   3 -18    5.90    2.40
   1  -3 -18   35.50    3.70
   1  -3 -18   33.60    4.30
   1   3 -18   25.00    3.30
   1   3 -18   34.80    4.30
   0  -3 -18   73.79    5.20
   0  -3 -18   74.69    5.10
   0   3 -18   77.79    4.30
   0   3 -18   83.59    5.60
  -1  -3 -18  830.92   23.30
  -1  -3 -18  764.32   23.70
  -1   3 -18  809.52   24.10
  -2  -3 -18   13.20    2.90
  -2  -3 -18   12.30    2.40
  -2   3 -18   10.30    2.60
  -3  -3 -18   33.00    3.40
  -3  -3 -18   32.00    4.50
  -3   3 -18   32.40    4.20
  -4  -3 -18  493.05   18.10
  -4   3 -18  514.75   17.60
  -5  -3 -18   10.00    3.30
  -5   3 -18    9.00    3.20
  -6  -3 -18   28.90    5.20
  -6   3 -18   10.30    3.20
  -7  -3 -18   20.60    5.00
  -7   3 -18   22.30    4.50
  -8  -3 -18   -4.00    3.00
  -8   3 -18    2.00    3.20
   8  -4 -18    0.90    3.20
   8   4 -18    4.90    3.80
   7  -4 -18  164.88   11.60
   7   4 -18  195.38   11.80
   7   4 -18  162.28   10.70
   6  -4 -18  307.87   15.40
   6   4 -18  351.46   15.60
   6   4 -18  360.46   15.70
   5  -4 -18  219.38   11.80
   5   4 -18  236.48   11.60
   5   4 -18  221.18   11.40
   4  -4 -18  268.47   13.20
   4   4 -18  324.67   13.50
   4   4 -18  293.47   12.80
   3  -4 -18  649.74   22.30
   3   4 -18  675.23   21.50
   3   4 -18  660.73   21.90
   2  -4 -18  489.95   17.40
   2  -4 -18  488.05   15.30
   2   4 -18  483.45   16.30
   2   4 -18  501.65   17.40
  -1  -4  18  172.38    7.70
   1  -4 -18  166.48    8.40
   1  -4 -18  157.88    7.10
   1   4 -18  164.08    8.40
   0  -4 -18  664.73   19.90
   0  -4 -18  655.73   20.40
   0   4 -18  657.13   20.80
   0   4 -18  627.64   19.20
  -1  -4 -18  155.18    7.80
  -1  -4 -18  165.98    7.80
  -1   4 -18  162.88    8.10
  -2  -4 -18   13.00    2.80
  -2  -4 -18   22.80    3.90
  -2   4 -18   18.30    3.40
  -3  -4 -18   11.10    3.10
  -3  -4 -18   12.80    2.60
  -3   4 -18    5.20    2.60
  -4  -4 -18   99.89    7.50
  -4   4 -18   97.69    6.80
  -5  -4 -18   76.09    7.70
  -5   4 -18   82.59    6.40
  -6  -4 -18   20.20    4.70
  -6   4 -18   24.40    4.20
  -7  -4 -18   18.40    4.90
  -7   4 -18   21.70    4.40
  -8  -5  18   23.30    6.30
   8  -5 -18   18.80    5.40
   7  -5 -18   30.90    6.00
  -7  -5  18   25.10    6.00
   7   5 -18   19.20    5.30
   6  -5 -18  117.69    9.60
  -6  -5  18  139.59   10.30
   6   5 -18  133.99    9.70
  -5  -5  18   17.40    4.40
   5  -5 -18   19.60    4.50
   5   5 -18   18.90    4.10
   4  -5 -18   21.20    4.30
  -4  -5  18   24.10    4.50
   4   5 -18   26.80    4.60
  -3  -5  18  196.28    9.90
   3  -5 -18  180.48   10.00
   3   5 -18  191.88   10.10
  -2  -5  18  226.78   10.10
   2  -5 -18  232.58   11.00
   2   5 -18  230.28   10.80
   1  -5 -18   -0.40    2.00
   1  -5 -18    0.50    1.40
  -1  -5  18    1.50    1.80
   1   5 -18   -3.50    1.80
   0  -5 -18   95.29    5.70
   0  -5 -18  103.69    6.40
   0   5 -18   95.09    6.40
  -1  -5 -18  582.64   18.50
  -1  -5 -18  574.64   18.40
  -1   5 -18  555.84   18.80
  -1   5 -18  554.94   18.30
  -2  -5 -18   69.89    5.30
  -2   5 -18   87.29    6.00
  -2   5 -18   83.09    6.10
  -3  -5 -18   68.99    5.00
  -3  -5 -18   78.99    6.20
  -3   5 -18   80.19    6.50
  -3   5 -18   73.79    5.80
  -4  -5 -18   28.40    4.80
  -4  -5 -18   28.70    3.60
  -4   5 -18   23.30    4.30
  -4   5 -18   30.50    4.30
  -5  -5 -18   78.59    8.00
  -5   5 -18   80.09    6.40
  -5   5 -18   86.39    7.40
  -6  -5 -18   56.89    7.20
  -6   5 -18   63.09    7.60
  -6   5 -18   64.49    6.40
  -7  -5 -18    2.70    3.20
  -7   5 -18    2.40    3.30
  -7   5 -18    1.10    2.80
  -7  -6  18   15.60    5.00
   7  -6 -18   11.40    4.40
   7   6 -18   17.70    5.10
  -6  -6  18   66.69    8.30
   6  -6 -18   66.59    8.70
   6   6 -18   69.89    8.90
   5  -6 -18   31.80    5.90
  -5  -6  18   33.50    5.80
   5   6 -18   30.50    5.50
  -4  -6  18    4.90    3.00
   4  -6 -18    6.70    3.00
   4   6 -18    5.90    2.80
  -3  -6  18   19.40    3.80
   3  -6 -18   16.80    4.20
   3   6 -18   17.40    4.20
  -2  -6  18   31.20    4.30
   2  -6 -18   35.70    5.10
   2   6 -18   31.70    4.60
   1  -6 -18  227.78   10.80
   1   6 -18  233.38   11.10
   0  -6 -18  102.89    5.90
   0  -6 -18  100.39    6.70
   0   6 -18  110.99    7.20
  -1  -6 -18  232.28   10.20
  -1  -6 -18  257.17   10.70
  -1   6 -18  249.58   10.40
  -1   6 -18  241.88   10.90
  -2  -6 -18    4.60    2.40
  -2  -6 -18    2.20    2.30
  -2   6 -18    3.60    2.40
  -2   6 -18    4.40    2.60
  -3  -6 -18   39.80    4.40
  -3  -6 -18   36.00    5.00
  -3   6 -18   33.60    5.00
  -3   6 -18   45.80    5.30
  -4  -6 -18   59.49    4.80
  -4  -6 -18   54.49    6.30
  -4   6 -18   50.59    6.50
  -4   6 -18   53.89    5.80
  -5  -6 -18    2.60    3.00
  -5   6 -18    3.50    2.70
  -5   6 -18    5.90    3.60
  -6  -6 -18   12.60    4.60
  -6   6 -18   11.60    3.40
  -6   6 -18   11.50    4.60
  -7  -6 -18   16.20    4.90
  -7   6 -18   31.00    5.10
  -7   6 -18   27.90    6.00
   7  -7 -18   30.30    6.60
  -7  -7  18   26.50    6.20
   7   7 -18   31.70    6.80
   6  -7 -18  185.78   12.60
  -6  -7  18  184.48   12.00
   6   7 -18  161.58   11.30
   5  -7 -18   30.00    6.10
  -5  -7  18   28.20    5.70
   5   7 -18   37.10    6.10
  -4  -7  18   54.49    6.50
   4  -7 -18   58.89    7.40
   4   7 -18   57.99    7.20
   3  -7 -18   33.20    5.60
  -3  -7  18   31.40    4.80
   3   7 -18   28.00    5.00
   2  -7 -18    2.00    2.50
  -2  -7  18    2.50    2.10
   2   7 -18    1.60    2.30
   1  -7 -18  214.98   10.70
   1   7 -18  206.98   10.60
   0  -7 -18   71.69    6.10
   0   7 -18   74.99    6.30
  -1  -7 -18   23.70    3.80
  -1  -7 -18   33.00    4.40
  -1   7 -18   33.40    4.80
  -2  -7 -18  115.19    7.10
  -2  -7 -18  126.39    7.70
  -2   7 -18  136.49    8.00
  -2   7 -18  129.69    7.80
  -3  -7 -18  142.69    7.70
  -3   7 -18  129.49    8.50
  -3   7 -18  132.09    8.00
  -4  -7 -18   12.90    4.00
  -4  -7 -18   12.20    3.20
  -4   7 -18   12.20    3.30
  -4   7 -18    3.10    2.10
  -5  -7 -18   65.79    7.80
  -5   7 -18   68.09    8.10
  -5   7 -18   67.19    6.80
  -6  -7 -18   54.69    7.50
  -6   7 -18   60.89    6.50
  -6   7 -18   64.89    8.10
  -6  -8  18   39.70    6.90
   6  -8 -18   38.90    7.40
   6   8 -18   52.29    7.90
   5  -8 -18   55.19    8.10
  -5  -8  18   53.59    7.00
   5   8 -18   69.89    8.80
   4  -8 -18  109.49   10.30
  -4  -8  18   80.69    8.10
   4   8 -18  100.49    8.70
   3  -8 -18  125.99    9.00
  -3  -8  18  125.39    8.20
   3   8 -18  114.99    9.00
   2  -8 -18   14.60    4.00
   2   8 -18   33.40    5.60
   1  -8 -18   46.50    5.80
   1   8 -18   40.00    5.70
   0  -8 -18  115.49    7.70
   0   8 -18  121.09    8.30
  -1  -8 -18   63.09    6.20
  -1   8 -18   62.09    6.60
  -2  -8 -18   11.90    3.30
  -2  -8 -18    9.20    3.10
  -2   8 -18   15.60    4.00
  -2   8 -18   12.20    3.40
  -3  -8 -18   12.80    3.30
  -3  -8 -18   15.80    3.90
  -3   8 -18    7.60    3.30
  -3   8 -18   17.60    4.00
  -4  -8 -18   -0.90    2.20
  -4  -8 -18   -1.10    2.70
  -4   8 -18    1.80    2.10
  -4   8 -18   -3.90    2.00
  -5  -8 -18    0.40    2.50
  -5  -8 -18   -1.80    3.00
  -5   8 -18    3.80    3.10
  -5   8 -18    0.10    2.70
   5  -9 -18    4.20    4.30
  -5  -9  18   -1.00    3.10
   5   9 -18    4.70    3.60
  -4  -9  18    0.10    2.70
   4  -9 -18   -4.00    3.00
   4   9 -18   -0.90    2.90
  -3  -9  18    6.90    3.60
   3  -9 -18    6.30    3.50
   3   9 -18    5.10    3.80
   2  -9 -18    2.70    3.50
   2   9 -18    4.40    3.60
   1  -9 -18   65.39    7.10
   1   9 -18   72.59    7.70
   0  -9 -18    0.30    2.20
   0   9 -18    0.40    2.70
  -1  -9 -18   31.20    4.90
  -1   9 -18   35.90    5.30
  -2  -9 -18    3.20    2.60
  -2   9 -18   -0.10    2.80
  -3  -9 -18   19.00    4.10
  -3  -9 -18   15.30    4.00
  -3   9 -18   16.20    4.30
  -3   9 -18   12.50    3.60
  -4  -9 -18    0.90    2.70
  -4  -9 -18    0.30    2.70
  -4   9 -18    2.60    3.20
  -4   9 -18    3.90    2.90
   3 -10 -18  242.98   13.60
   3  10 -18  239.78   13.60
   2 -10 -18   89.89    9.40
   2  10 -18  121.09    9.50
   1 -10 -18   92.49    7.90
   1  10 -18  109.49    9.00
   0 -10 -18  170.48   10.30
   0  10 -18  139.39    9.70
  -1 -10 -18    6.30    3.40
  -1  10 -18   10.30    3.90
  -2 -10 -18   -0.10    2.40
  -2  10 -18    7.50    3.40
  -3 -10 -18   40.30    5.80
  -3  10 -18   42.60    6.10
   8   0 -19    0.50    2.70
   7   0 -19   -2.00    2.40
   6   0 -19   -1.00    1.70
   6   0 -19   -1.10    2.60
   5   0 -19    0.40    1.80
   5   0 -19   -4.00    1.90
   4   0 -19    4.60    2.60
   4   0 -19    3.30    2.10
   3   0 -19    0.20    1.50
   3   0 -19    1.50    2.10
   2   0 -19    0.70    1.00
   1   0 -19    1.10    1.60
   1   0 -19    3.20    1.70
   0   0 -19    0.90    1.40
   0   0 -19    0.90    1.50
  -1   0 -19   -1.20    1.50
  -1   0 -19    0.90    1.20
  -2   0 -19    1.30    1.90
  -3   0 -19    0.90    2.30
  -4   0 -19    0.40    2.30
  -5   0 -19    0.90    2.40
  -6   0 -19   -1.30    2.00
  -7   0 -19   -1.90    2.40
  -8   0 -19   -2.90    2.40
   8  -1 -19   -0.80    2.90
   8   1 -19   -1.80    2.90
   7  -1 -19   41.80    6.60
   7   1 -19   43.70    5.70
   7   1 -19   43.20    6.50
   6  -1 -19  211.18   11.70
   6   1 -19  214.48   10.80
   6   1 -19  211.38   11.60
   5  -1 -19  553.54   20.40
   5  -1 -19  534.45   18.20
   5   1 -19  561.54   19.30
   5   1 -19  540.45   20.20
   4  -1 -19   73.19    6.30
   4  -1 -19   79.89    5.70
   4   1 -19   79.69    6.00
   4   1 -19   81.99    6.40
   3  -1 -19  100.89    6.80
   3  -1 -19  108.79    6.20
   3   1 -19   96.69    6.20
   3   1 -19  107.39    6.70
   2  -1 -19  360.76   13.60
   2  -1 -19  354.46   12.80
   2   1 -19  365.96   13.40
   2   1 -19  371.36   13.50
   1  -1 -19  947.31   27.40
   1   1 -19  968.00   27.50
   1   1 -19  927.81   26.90
   0  -1 -19  324.47   11.60
   0  -1 -19  320.57   11.90
   0   1 -19  317.47   11.10
   0   1 -19  330.77   12.10
  -1  -1 -19   17.20    3.00
  -1  -1 -19   19.70    2.70
  -1   1 -19   15.30    3.00
  -2  -1 -19  403.36   14.70
  -2   1 -19  425.36   14.90
  -3  -1 -19  145.39    8.10
  -3   1 -19  152.68    8.00
  -4  -1 -19    5.10    2.50
  -4   1 -19    2.90    2.40
  -5  -1 -19   23.90    4.60
  -5   1 -19   28.90    4.60
  -6  -1 -19   15.10    3.80
  -6   1 -19   17.80    3.90
  -7  -1 -19   -2.40    2.80
  -7   1 -19    5.50    3.10
  -8  -1 -19    6.30    3.40
  -8   1 -19    3.20    3.00
   8  -2 -19   -3.50    2.50
   8   2 -19    6.70    4.20
   7  -2 -19   -2.60    2.40
   7   2 -19   -1.50    2.40
   7   2 -19   -0.90    2.00
   6  -2 -19   60.49    7.60
   6   2 -19   63.49    6.90
   6   2 -19   63.19    7.20
   5  -2 -19   71.59    7.50
   5   2 -19   67.89    7.20
   4  -2 -19   44.50    4.60
   4  -2 -19   49.50    5.90
   4   2 -19   50.19    5.60
   4   2 -19   43.90    5.60
   3  -2 -19    4.40    1.90
   3  -2 -19    3.20    2.40
   3   2 -19    3.80    2.30
   2  -2 -19   21.60    3.80
   2  -2 -19   26.10    3.40
   2   2 -19   16.90    3.20
   2   2 -19   27.60    3.80
   1  -2 -19   24.90    3.40
   1  -2 -19   24.50    3.90
   1   2 -19   22.40    3.50
   1   2 -19   28.20    3.50
   0  -2 -19   -1.10    1.50
   0  -2 -19   -1.10    0.90
   0   2 -19    0.20    1.60
   0   2 -19   -1.90    1.00
  -1  -2 -19   12.50    2.50
  -1  -2 -19   13.30    3.00
  -1   2 -19   13.00    2.80
  -2  -2 -19   23.00    3.70
  -2  -2 -19   32.20    3.40
  -2   2 -19   28.60    4.10
  -3  -2 -19   34.60    4.80
  -3   2 -19   38.10    4.80
  -4  -2 -19   23.30    4.10
  -4   2 -19   23.60    4.10
  -5  -2 -19    7.30    3.10
  -5   2 -19    3.20    2.40
  -6  -2 -19    6.50    3.20
  -6   2 -19    6.50    2.90
  -7  -2 -19   -3.10    2.60
  -7   2 -19   -0.80    2.80
  -8  -2 -19    6.90    3.70
  -8   2 -19   13.80    4.10
   8  -3 -19   -0.40    3.40
   8   3 -19    6.20    3.80
   7  -3 -19   45.70    7.30
   7   3 -19   33.90    5.80
   6  -3 -19    7.00    3.30
   6   3 -19   -1.60    2.50
   6   3 -19    4.00    2.80
   5  -3 -19    1.80    2.70
   5   3 -19    0.70    2.40
   5   3 -19    3.70    3.10
   4  -3 -19  573.64   20.70
   4   3 -19  579.04   20.10
   4   3 -19  563.74   20.10
   3  -3 -19   84.49    6.50
   3  -3 -19   76.39    4.90
   3   3 -19   98.09    6.50
   3   3 -19   77.29    6.00
   2  -3 -19   84.39    5.00
   2  -3 -19   83.09    6.20
   2   3 -19   80.09    6.00
   2   3 -19   80.19    5.60
   1  -3 -19  265.27   11.10
   1  -3 -19  272.67   10.30
   1   3 -19  266.47   11.10
   1   3 -19  265.27   10.20
   0  -3 -19    6.20    2.40
   0  -3 -19    8.70    2.40
   0   3 -19   12.30    3.50
   0   3 -19   18.80    3.40
  -1  -3 -19  218.18    9.90
  -1  -3 -19  248.48    9.70
  -1   3 -19  233.78   10.10
  -2  -3 -19    1.40    1.80
  -2  -3 -19   -1.40    1.30
  -2   3 -19   -0.20    1.70
  -3  -3 -19   55.09    5.60
  -3   3 -19   45.40    5.00
  -4  -3 -19  131.59    8.30
  -4   3 -19  134.09    8.00
  -5  -3 -19    3.00    2.80
  -5   3 -19    4.10    2.60
  -6  -3 -19   -0.80    2.40
  -6   3 -19    1.20    2.50
  -7  -3 -19    0.10    3.00
  -7   3 -19    5.50    2.90
   8  -4 -19  152.18   11.50
   8   4 -19  160.98   11.20
   7  -4 -19   17.60    5.20
   7   4 -19   11.80    4.20
   7   4 -19   10.90    4.20
   6  -4 -19    5.50    3.70
   6   4 -19    4.00    3.10
   6   4 -19    8.20    3.70
   5  -4 -19  120.99    9.20
   5   4 -19  139.89    9.20
   5   4 -19  140.79    9.00
   4  -4 -19    1.90    2.60
   4   4 -19    1.70    2.50
   4   4 -19    0.60    2.20
   3  -4 -19  253.67   11.90
   3   4 -19  247.58   11.60
   3   4 -19  249.58   11.00
   2  -4 -19  135.69    6.60
   2  -4 -19  131.99    8.10
   2   4 -19  155.88    7.70
   2   4 -19  149.49    8.30
   1  -4 -19   41.10    4.90
   1  -4 -19   39.60    4.10
   1   4 -19   35.70    4.60
   0  -4 -19   62.69    5.10
   0  -4 -19   56.99    4.50
   0   4 -19   68.89    5.50
  -1  -4 -19   21.80    3.60
  -1  -4 -19   19.60    3.60
  -1   4 -19   23.70    3.70
  -2  -4 -19   -0.10    1.60
  -2  -4 -19   -0.80    2.00
  -2   4 -19    3.00    2.30
  -3  -4 -19  222.38   10.70
  -3  -4 -19  195.38    8.50
  -3   4 -19  222.18   10.20
  -4  -4 -19    8.90    3.20
  -4   4 -19    6.40    2.70
  -5  -4 -19   76.19    7.70
  -5   4 -19   82.29    6.60
  -6  -4 -19    0.90    2.90
  -6   4 -19    0.30    2.20
  -7  -4 -19   -1.50    2.80
  -7   4 -19    0.20    2.30
  -7  -5  19   55.39    8.00
   7  -5 -19   56.89    7.80
   7   5 -19   41.60    7.20
   6  -5 -19    3.60    3.40
  -6  -5  19    4.00    3.60
   6   5 -19    1.60    3.20
   5  -5 -19    4.40    3.50
  -5  -5  19    8.20    3.50
   5   5 -19    2.90    2.90
   4  -5 -19   50.29    6.50
  -4  -5  19   59.59    6.60
   4   5 -19   60.19    6.80
   3  -5 -19    5.00    2.90
  -3  -5  19    2.70    2.30
   3   5 -19    5.30    2.90
  -2  -5  19    3.30    2.20
   2  -5 -19    2.60    2.60
   2   5 -19    3.40    2.60
   1  -5 -19  197.38    8.20
   1  -5 -19  188.78    9.70
   1   5 -19  196.78    9.80
   0  -5 -19  144.69    7.40
   0  -5 -19  138.09    7.90
   0   5 -19  158.88    8.60
  -1  -5 -19   16.10    3.20
  -1  -5 -19   13.20    3.00
  -1   5 -19    8.50    2.70
  -1   5 -19    8.10    2.90
  -2  -5 -19   35.30    4.20
  -2   5 -19   45.70    5.50
  -2   5 -19   31.80    4.50
  -3  -5 -19  231.38   11.00
  -3  -5 -19  245.18    9.80
  -3   5 -19  226.08   10.50
  -3   5 -19  230.68   11.30
  -4  -5 -19   91.79    7.40
  -4   5 -19   85.49    8.20
  -4   5 -19   86.19    6.40
  -5  -5 -19    6.60    3.50
  -5   5 -19    6.20    3.40
  -5   5 -19    2.60    2.90
  -6  -5 -19   13.40    4.20
  -6   5 -19   11.30    3.40
  -6   5 -19    8.80    4.10
  -7  -5 -19   -0.20    3.50
  -7   5 -19    2.90    3.10
  -7   5 -19   -2.30    3.20
   7  -6 -19    5.20    4.10
  -7  -6  19    0.20    4.10
   7   6 -19    3.70    3.40
  -6  -6  19   -3.70    2.60
   6  -6 -19   -1.90    3.00
   6   6 -19   -1.40    3.10
  -5  -6  19  205.08   11.60
   5  -6 -19  195.48   12.20
   5   6 -19  173.58   11.10
  -4  -6  19  160.98    9.80
   4  -6 -19  148.99    9.80
   4   6 -19  155.38   10.00
  -3  -6  19   56.59    6.10
   3  -6 -19   53.69    6.40
   3   6 -19   48.10    6.00
   2  -6 -19  202.38   10.60
  -2  -6  19  191.88    9.30
   2   6 -19  187.78   10.10
   1  -6 -19   69.89    6.80
   1   6 -19   63.39    6.60
   0  -6 -19    2.90    1.90
   0  -6 -19    4.70    2.60
   0   6 -19    4.80    2.60
  -1  -6 -19    3.50    2.20
  -1  -6 -19   -0.40    1.70
  -1   6 -19    1.50    2.20
  -2  -6 -19  196.18    8.90
  -2  -6 -19  173.18    9.10
  -2   6 -19  183.08    9.40
  -2   6 -19  166.98    9.00
  -3  -6 -19    0.00    2.00
  -3  -6 -19    1.70    2.00
  -3   6 -19   -3.10    1.80
  -3   6 -19   -4.70    1.90
  -4  -6 -19   21.00    4.40
  -4  -6 -19   17.10    3.40
  -4   6 -19   23.00    4.40
  -5  -6 -19    9.20    4.00
  -5   6 -19    7.90    3.80
  -5   6 -19    9.40    3.30
  -6  -6 -19   87.59    9.10
  -6   6 -19   95.39    7.40
  -6   6 -19   86.69    9.20
   6  -7 -19   15.40    4.80
  -6  -7  19    5.70    4.30
   6   7 -19   11.10    4.30
   5  -7 -19   16.80    5.20
  -5  -7  19    7.90    4.00
   5   7 -19    7.80    4.00
  -4  -7  19   30.80    5.30
   4  -7 -19   19.70    4.70
   4   7 -19   31.20    5.50
   3  -7 -19   12.90    4.00
  -3  -7  19   18.00    3.90
   3   7 -19   16.40    4.10
   2  -7 -19   13.20    4.00
   2   7 -19    1.40    2.90
   1  -7 -19    6.90    2.80
   1   7 -19    2.20    2.40
   0  -7 -19    0.80    2.40
   0   7 -19    0.10    2.60
  -1  -7 -19  124.79    7.70
  -1  -7 -19  127.59    7.20
  -1   7 -19  113.59    7.60
  -2  -7 -19    5.30    2.60
  -2  -7 -19    4.00    2.50
  -2   7 -19    2.00    2.30
  -2   7 -19    4.70    2.60
  -3  -7 -19   39.20    4.80
  -3  -7 -19   17.30    3.60
  -3   7 -19   34.30    4.80
  -3   7 -19   39.70    5.50
  -4  -7 -19   18.10    4.30
  -4  -7 -19   15.30    3.40
  -4   7 -19   10.50    3.60
  -4   7 -19   22.60    4.30
  -5  -7 -19   14.80    4.30
  -5   7 -19    7.90    3.50
  -5   7 -19   11.00    4.10
  -6  -7 -19    1.50    4.00
  -6   7 -19    3.90    3.90
  -6   7 -19    1.50    3.00
  -5  -8  19    1.30    2.50
   5  -8 -19    1.20    3.70
   5   8 -19    2.80    3.30
   4  -8 -19    8.70    3.80
  -4  -8  19    7.90    3.80
   4   8 -19    7.30    3.60
  -3  -8  19   13.40    3.90
   3  -8 -19   14.00    4.30
   3   8 -19   10.60    4.00
   2  -8 -19  180.58   10.50
   2   8 -19  174.48   10.60
   1  -8 -19  141.89    9.10
   1   8 -19  129.29    8.80
   0  -8 -19    7.20    3.10
   0   8 -19    7.00    3.20
  -1  -8 -19   15.20    3.50
  -1   8 -19   12.30    3.90
  -2  -8 -19    0.50    2.20
  -2  -8 -19    2.60    2.30
  -2   8 -19   -2.40    2.50
  -3  -8 -19   54.79    6.50
  -3  -8 -19   57.89    6.10
  -3   8 -19   46.30    6.10
  -3   8 -19   45.80    5.90
  -4  -8 -19   28.50    5.30
  -4  -8 -19   35.70    4.90
  -4   8 -19   33.60    4.90
  -4   8 -19   36.00    5.50
  -5  -8 -19   -0.10    2.90
  -5   8 -19   -0.80    2.70
  -5   8 -19    0.80    3.00
  -4  -9  19  110.09    8.70
   4  -9 -19  109.49   10.80
   4   9 -19   96.39   10.00
   3  -9 -19   22.10    5.30
   3   9 -19   26.10    5.40
   2  -9 -19   16.60    4.90
   2   9 -19   19.80    4.70
   1  -9 -19    3.60    3.10
   1   9 -19   -3.20    2.50
   0  -9 -19    0.80    2.70
   0   9 -19    6.20    3.30
  -1  -9 -19   47.60    6.20
  -1   9 -19   37.30    5.70
  -2  -9 -19    1.70    2.50
  -2   9 -19    2.90    2.60
  -3  -9 -19    4.60    3.20
  -3  -9 -19    7.30    3.20
  -3   9 -19    9.90    3.60
  -4  -9 -19   11.30    3.80
  -4  -9 -19    8.00    3.80
  -4   9 -19   13.60    4.20
  -4   9 -19   10.40    3.70
   3 -10 -19   51.39    7.70
   3  10 -19   36.50    6.90
   2 -10 -19    0.00    3.30
   2  10 -19   -2.10    2.80
   1 -10 -19    0.50    2.80
   1  10 -19    0.20    2.80
   0 -10 -19   68.59    7.60
   0  10 -19   72.69    8.10
  -1 -10 -19    9.80    3.50
  -1  10 -19    7.90    3.80
  -2 -10 -19    1.80    2.70
  -2  10 -19    7.90    3.80
   8   0 -20    7.40    3.80
   7   0 -20    2.20    2.90
   6   0 -20    2.30    3.00
   6   0 -20   -0.10    1.80
   5   0 -20   -1.90    2.40
   5   0 -20    0.30    1.80
   4   0 -20 1120.19   34.20
   4   0 -20 1151.08   33.10
   3   0 -20    6.20    2.40
   3   0 -20   10.00    3.00
   2   0 -20   93.89    5.80
   1   0 -20  373.66   13.60
   1   0 -20  387.86   13.80
   0   0 -20   14.20    2.80
   0   0 -20    9.80    2.20
  -1   0 -20  523.35   17.50
  -2   0 -20  606.14   19.70
  -3   0 -20    4.00    2.50
  -4   0 -20   -1.20    2.00
  -5   0 -20   31.50    4.80
  -6   0 -20    1.00    2.50
  -7   0 -20   31.40    5.60
   8  -1 -20    8.40    3.90
   8   1 -20    3.40    3.60
   7  -1 -20    9.30    4.20
   7   1 -20   14.30    4.50
   6  -1 -20   43.70    6.50
   6   1 -20   49.80    6.10
   6   1 -20   51.19    6.90
   5  -1 -20  106.19    8.00
   5  -1 -20  100.89    6.60
   5   1 -20   99.19    6.90
   5   1 -20  103.19    7.80
   4  -1 -20  290.77   13.40
   4  -1 -20  289.47   11.80
   4   1 -20  293.17   13.10
   4   1 -20  296.27   12.40
   3  -1 -20   56.79    6.00
   3  -1 -20   48.50    4.90
   3   1 -20   40.90    4.90
   3   1 -20   57.99    5.70
   2  -1 -20   11.00    2.80
   2  -1 -20    6.30    2.40
   2   1 -20   11.30    2.80
   2   1 -20   16.80    3.30
   1  -1 -20  212.18    9.40
   1   1 -20  203.48    9.00
   1   1 -20  215.78    9.50
   0  -1 -20  130.39    6.70
   0  -1 -20  130.69    7.10
   0   1 -20  144.19    7.50
   0   1 -20  129.29    6.30
  -1  -1 -20   18.00    2.70
  -1  -1 -20    9.20    2.60
  -1   1 -20   11.00    2.90
  -2  -1 -20   51.19    5.30
  -2   1 -20   49.99    5.10
  -3  -1 -20    3.40    2.40
  -3   1 -20   11.00    3.10
  -4  -1 -20   18.80    3.90
  -4   1 -20   13.20    3.30
  -5  -1 -20    4.70    2.80
  -5   1 -20   14.00    3.80
  -6  -1 -20    8.50    3.30
  -6   1 -20   10.10    3.30
  -7  -1 -20   10.30    3.80
  -7   1 -20   13.50    4.20
   8  -2 -20    4.50    4.10
   8   2 -20    5.60    4.00
   7  -2 -20    4.00    3.40
   7   2 -20   11.80    3.90
   7   2 -20    4.90    2.90
   6  -2 -20  138.59    9.90
   6   2 -20  128.69    9.10
   6   2 -20  131.89    8.80
   5  -2 -20    1.90    2.60
   5   2 -20    0.20    2.70
   5   2 -20    1.20    1.20
   4  -2 -20   -1.90    2.10
   4  -2 -20   -0.90    1.60
   4   2 -20    0.20    2.00
   4   2 -20    0.10    2.10
   3  -2 -20   11.60    3.10
   3  -2 -20    8.90    2.40
   3   2 -20    8.90    3.00
   3   2 -20    8.30    2.70
   2  -2 -20   36.60    4.70
   2  -2 -20   39.00    4.30
   2   2 -20   35.80    4.60
   2   2 -20   39.40    4.40
   1  -2 -20  606.64   19.90
   1  -2 -20  617.34   19.20
   1   2 -20  630.14   19.20
   1   2 -20  613.54   20.00
   0  -2 -20   -0.90    1.30
   0  -2 -20   -0.30    1.70
   0   2 -20   -1.60    1.70
  -1  -2 -20  241.68    9.50
  -1  -2 -20  242.88   10.20
  -1   2 -20  232.68   10.20
  -2  -2 -20  136.09    7.70
  -2   2 -20  125.29    7.40
  -3  -2 -20  159.08    8.70
  -3   2 -20  136.99    7.90
  -4  -2 -20    7.60    3.00
  -4   2 -20    2.40    2.30
  -5  -2 -20   33.00    5.00
  -5   2 -20   25.80    4.30
  -6  -2 -20    3.30    2.90
  -6   2 -20    2.70    2.60
  -7  -2 -20   -3.00    2.90
  -7   2 -20   -0.10    2.60
   8  -3 -20    2.90    3.50
   8   3 -20   -1.60    3.30
   7  -3 -20  223.58   13.60
   7   3 -20  224.68   12.90
   6  -3 -20    1.50    3.40
   6   3 -20    3.40    2.80
   6   3 -20    0.80    2.90
   5  -3 -20   91.19    9.00
   5   3 -20  108.39    8.20
   5   3 -20  104.69    7.90
   4  -3 -20    7.00    3.00
   4   3 -20   -0.20    2.00
   4   3 -20    1.00    2.50
   3  -3 -20  122.69    8.20
   3  -3 -20  116.29    6.30
   3   3 -20  116.99    7.40
   3   3 -20  127.89    7.80
   2  -3 -20  142.09    7.00
   2  -3 -20  144.89    8.30
   2   3 -20  142.39    8.00
   2   3 -20  152.68    7.80
   1  -3 -20    7.70    2.20
   1  -3 -20    4.90    2.40
   1   3 -20    7.90    2.60
   1   3 -20    3.90    2.10
   0  -3 -20   18.50    3.20
   0  -3 -20   16.30    3.30
   0   3 -20   16.50    3.40
  -1  -3 -20  439.96   15.50
  -1  -3 -20  430.16   14.80
  -1   3 -20  446.46   15.70
  -2  -3 -20  298.57   10.80
  -2  -3 -20  296.07   12.00
  -2   3 -20  285.67   11.90
  -3  -3 -20   11.90    3.40
  -3   3 -20   16.80    3.50
  -4  -3 -20   44.50    5.80
  -4   3 -20   28.20    4.30
  -5  -3 -20   54.79    6.70
  -5   3 -20   54.39    6.10
  -6  -3 -20    1.70    2.80
  -6   3 -20    2.50    2.60
  -7  -3 -20   17.20    4.90
  -7   3 -20    4.60    3.10
   7  -4 -20   12.60    4.90
   7   4 -20   11.80    4.40
   7   4 -20   10.40    4.10
   6  -4 -20  185.68   11.70
   6   4 -20  177.68   10.90
   6   4 -20  192.88   11.30
   5  -4 -20   30.80    5.80
   5   4 -20   33.30    5.40
   5   4 -20   31.90    5.20
   4  -4 -20    3.60    2.90
   4   4 -20   -1.40    2.30
   4   4 -20   -0.10    2.40
   3  -4 -20  116.29    8.10
   3   4 -20   94.59    6.70
   3   4 -20  110.89    7.70
   2  -4 -20    2.30    1.70
   2  -4 -20    1.90    2.50
   2   4 -20    3.30    2.50
   2   4 -20   10.10    2.60
   1  -4 -20   63.49    4.60
   1  -4 -20   56.29    5.80
   1   4 -20   48.50    5.40
   0  -4 -20  368.86   13.50
   0  -4 -20  386.46   14.30
   0   4 -20  403.86   15.00
  -1  -4 -20  214.98    9.40
  -1  -4 -20  211.68    9.60
  -1   4 -20  213.88   10.00
  -2  -4 -20   80.19    5.30
  -2  -4 -20   77.99    6.10
  -2   4 -20   76.09    5.90
  -3  -4 -20   95.69    6.90
  -3   4 -20   92.29    6.60
  -4  -4 -20   15.60    4.20
  -4   4 -20   16.10    3.50
  -5  -4 -20    4.90    3.20
  -5   4 -20   10.70    3.40
  -6  -4 -20   -1.30    2.50
  -6   4 -20   -0.60    2.60
  -7  -4 -20    4.50    3.40
  -7   4 -20    3.40    3.20
  -7  -5  20   39.50    7.30
   7  -5 -20   45.40    7.40
   7   5 -20   31.10    6.30
  -6  -5  20   38.60    6.50
   6  -5 -20   39.50    6.80
   6   5 -20   40.50    6.50
  -5  -5  20  295.17   14.40
   5  -5 -20  297.57   15.10
   5   5 -20  281.37   14.20
  -4  -5  20   40.00    5.70
   4  -5 -20   33.60    5.80
   4   5 -20   33.50    5.50
  -3  -5  20    2.00    2.00
   3  -5 -20    1.10    2.30
   3   5 -20   -1.00    2.00
  -2  -5  20   82.19    5.90
   2  -5 -20   87.19    7.00
   2   5 -20   77.09    6.50
   1  -5 -20  247.18   11.30
   1  -5 -20  248.88    9.90
   1   5 -20  247.18   11.60
   0  -5 -20   26.40    3.80
   0  -5 -20   23.50    4.00
   0   5 -20   25.70    4.30
  -1  -5 -20    6.30    2.50
  -1  -5 -20    6.80    2.50
  -1   5 -20    6.60    2.90
  -2  -5 -20   22.10    3.60
  -2   5 -20   21.90    4.10
  -2   5 -20   24.80    4.30
  -3  -5 -20  177.88    8.30
  -3  -5 -20  170.38    9.80
  -3   5 -20  179.88   10.00
  -3   5 -20  201.88    9.90
  -4  -5 -20   11.30    3.60
  -4   5 -20    2.50    1.80
  -4   5 -20    5.90    3.00
  -5  -5 -20    7.10    3.60
  -5   5 -20    2.00    2.50
  -5   5 -20   -2.60    2.70
  -6  -5 -20   24.20    5.70
  -6   5 -20   20.70    5.50
  -6   5 -20   18.90    4.20
  -7  -6  20   44.30    7.80
   7  -6 -20   40.40    7.30
   7   6 -20   43.50    7.40
   6  -6 -20   71.69    9.10
  -6  -6  20   64.19    8.10
   6   6 -20   70.29    8.50
  -5  -6  20   44.60    6.50
   5  -6 -20   69.79    8.70
   5   6 -20   69.49    8.30
  -4  -6  20   98.59    7.80
   4  -6 -20  100.39    8.60
   4   6 -20   90.59    7.80
  -3  -6  20   16.20    3.90
   3  -6 -20   12.00    3.50
   3   6 -20   21.30    4.40
   2  -6 -20    2.80    2.80
   2   6 -20    2.10    2.70
   1  -6 -20   84.89    6.60
   1   6 -20   74.79    6.50
   0  -6 -20    8.80    3.10
   0  -6 -20    8.60    2.60
   0   6 -20    7.00    2.70
  -1  -6 -20    0.90    2.20
  -1  -6 -20   -0.80    1.70
  -1   6 -20    0.70    2.30
  -2  -6 -20    2.00    2.30
  -2  -6 -20    0.40    2.10
  -2   6 -20   -0.20    2.50
  -2   6 -20   -1.00    2.30
  -3  -6 -20    3.80    2.80
  -3  -6 -20    2.40    2.10
  -3   6 -20    1.70    2.80
  -3   6 -20    2.30    2.50
  -4  -6 -20   17.90    4.30
  -4   6 -20   10.80    3.60
  -4   6 -20    8.20    3.50
  -5  -6 -20    5.00    3.30
  -5   6 -20    6.70    3.10
  -5   6 -20   12.10    4.30
  -6  -6 -20   -1.60    3.10
  -6   6 -20    0.10    3.30
  -6   6 -20    4.10    3.20
  -6  -7  20   41.20    7.00
   6  -7 -20   32.90    6.50
   6   7 -20   55.19    8.20
   5  -7 -20   29.80    6.10
   5   7 -20   18.50    4.90
   4  -7 -20   24.60    5.50
  -4  -7  20   29.30    5.40
   4   7 -20   22.50    5.00
  -3  -7  20    2.40    2.60
   3  -7 -20    0.50    2.40
   3   7 -20    1.60    2.90
   2  -7 -20   83.69    8.50
   2   7 -20   85.19    8.40
   1  -7 -20   -1.30    2.30
   1   7 -20   -0.80    2.60
   0  -7 -20   -0.30    2.30
   0   7 -20    3.80    2.80
  -1  -7 -20    7.00    2.50
  -1  -7 -20   10.70    3.40
  -1   7 -20    7.50    3.00
  -2  -7 -20  203.88    9.90
  -2  -7 -20  204.58   10.20
  -2   7 -20  188.18   10.10
  -3  -7 -20  159.18    8.50
  -3   7 -20  145.59    9.10
  -3   7 -20  145.89    9.40
  -4  -7 -20    6.10    3.50
  -4   7 -20    5.10    3.10
  -4   7 -20    3.70    3.10
  -5  -7 -20   13.60    4.70
  -5   7 -20   20.30    5.00
  -5   7 -20   11.10    3.60
   5  -8 -20   14.60    5.40
  -5  -8  20   15.00    4.50
   5   8 -20   19.10    5.40
  -4  -8  20    0.00    2.80
   4  -8 -20    2.30    3.70
   4   8 -20    7.00    4.00
   3  -8 -20  104.29    8.60
   3   8 -20  104.79    8.70
   2  -8 -20  156.28   10.10
   2   8 -20  167.08   10.30
   1  -8 -20   36.90    5.50
   1   8 -20   39.70    5.80
   0  -8 -20  139.79    8.80
   0   8 -20  119.49    8.50
  -1  -8 -20   46.80    5.60
  -1   8 -20   45.80    6.20
  -2  -8 -20   38.70    5.10
  -2  -8 -20   39.90    5.30
  -2   8 -20   43.80    5.90
  -3  -8 -20    3.60    3.00
  -3  -8 -20    3.00    2.80
  -3   8 -20    0.40    2.80
  -3   8 -20    0.80    2.80
  -4  -8 -20    8.50    3.80
  -4  -8 -20    3.90    2.90
  -4   8 -20    0.30    2.80
  -4   8 -20    3.40    3.30
   4  -9 -20   11.60    4.50
   4   9 -20    7.20    3.90
   3  -9 -20    8.90    3.80
   3   9 -20    7.70    3.90
   2  -9 -20   28.40    5.70
   2   9 -20   27.10    5.40
   1  -9 -20   45.30    6.60
   1   9 -20   58.79    7.30
   0  -9 -20    3.70    3.00
   0   9 -20    7.50    3.60
  -1  -9 -20   27.00    5.00
  -1   9 -20   32.80    5.60
  -2  -9 -20    3.50    3.00
  -2   9 -20    5.80    3.50
  -3  -9 -20   23.70    4.60
  -3   9 -20   22.20    4.70
   2 -10 -20   52.89    7.60
   2  10 -20   37.70    6.60
   1 -10 -20   -1.80    2.50
   1  10 -20   -0.30    2.80
   0 -10 -20    6.60    3.60
   0  10 -20    8.00    4.20
  -1 -10 -20    5.90    3.40
  -1  10 -20    1.00    3.30
   8   0 -21   -3.70    3.00
   7   0 -21   -3.10    2.50
   6   0 -21   -2.90    2.20
   5   0 -21    2.60    2.30
   5   0 -21   -0.40    2.70
   4   0 -21    2.30    2.70
   4   0 -21    4.90    2.40
   3   0 -21   -0.20    2.00
   3   0 -21    5.30    2.20
   2   0 -21    2.40    1.60
   2   0 -21   -1.90    1.70
   1   0 -21    5.60    2.30
   1   0 -21    1.60    2.00
   0   0 -21   -0.50    1.60
   0   0 -21    1.20    1.50
  -1   0 -21    3.50    2.10
  -2   0 -21    1.60    2.00
  -3   0 -21   -0.60    2.00
  -4   0 -21    2.50    2.50
  -5   0 -21    0.00    2.40
  -6   0 -21   -1.60    2.30
  -7   0 -21    0.30    2.80
   8  -1 -21   90.49   10.00
   8   1 -21   74.49    8.90
   7  -1 -21   -1.50    2.70
   7   1 -21    0.00    2.70
   6  -1 -21   79.29    8.60
   6   1 -21   74.09    8.10
   6   1 -21   69.49    7.10
   5  -1 -21  196.88   11.30
   5   1 -21  191.98   10.20
   5   1 -21  188.98   10.90
   4  -1 -21   13.70    3.80
   4  -1 -21   13.90    3.20
   4   1 -21   14.60    3.80
   4   1 -21   16.10    3.60
   3  -1 -21    1.20    1.80
   3  -1 -21   -0.20    1.90
   3   1 -21   -2.00    1.70
   3   1 -21   -0.50    1.90
   2  -1 -21  259.47   11.40
   2  -1 -21  268.17   10.80
   2   1 -21  262.17   11.10
   2   1 -21  265.57   11.20
   1  -1 -21  149.49    7.90
   1   1 -21  172.18    8.00
   1   1 -21  150.38    8.10
   0  -1 -21  562.94   18.20
   0  -1 -21  577.44   18.80
   0   1 -21  600.74   21.80
   0   1 -21  592.14   19.20
  -1  -1 -21   10.00    2.80
  -1   1 -21   12.40    3.00
  -2  -1 -21   98.39    6.50
  -2   1 -21   97.99    6.70
  -3  -1 -21   59.09    6.10
  -3   1 -21   58.09    5.90
  -4  -1 -21    9.30    3.50
  -4   1 -21    6.90    2.90
  -5  -1 -21   58.79    6.70
  -5   1 -21   67.29    6.90
  -6  -1 -21   60.09    7.20
  -6   1 -21   54.89    6.60
  -7  -1 -21   13.40    4.30
  -7   1 -21   25.10    5.10
   8  -2 -21    2.10    3.60
   8   2 -21    7.40    4.00
   7  -2 -21    7.50    4.00
   7   2 -21   13.80    4.70
   7   2 -21    6.10    3.20
   6  -2 -21   16.50    4.60
   6   2 -21   17.00    4.40
   6   2 -21   12.00    3.70
   5  -2 -21    9.10    3.80
   5   2 -21   12.30    3.90
   4  -2 -21  113.69    8.20
   4  -2 -21   80.69    6.60
   4   2 -21  101.79    7.10
   4   2 -21  106.09    7.60
   3  -2 -21  440.36   15.30
   3  -2 -21  451.65   17.00
   3   2 -21  442.66   16.60
   3   2 -21  440.76   16.40
   2  -2 -21  191.48    9.70
   2  -2 -21  191.18    8.70
   2   2 -21  190.98    9.40
   2   2 -21  197.48    9.20
   1  -2 -21  108.79    6.80
   1  -2 -21   95.09    6.10
   1   2 -21  110.09    6.10
   1   2 -21  117.59    7.00
   0  -2 -21   52.79    4.60
   0  -2 -21   56.89    4.80
   0   2 -21   67.69    5.40
  -1  -2 -21   42.50    4.80
  -1  -2 -21   46.20    4.00
  -1   2 -21   41.80    5.00
  -2  -2 -21    5.50    2.50
  -2   2 -21    4.40    2.40
  -3  -2 -21   43.10    5.10
  -3   2 -21   24.40    4.30
  -4  -2 -21   83.99    6.80
  -4   2 -21   89.19    6.60
  -5  -2 -21   13.00    3.70
  -5   2 -21   24.00    4.60
  -6  -2 -21   23.20    4.80
  -6   2 -21   17.20    4.20
  -7  -2 -21   11.90    4.10
  -7   2 -21    9.60    3.70
   7  -3 -21   43.40    7.40
   7   3 -21   33.00    5.90
   7   3 -21   46.80    7.20
   6  -3 -21   -2.60    2.60
   6   3 -21    4.30    3.10
   6   3 -21   -3.40    2.90
   5  -3 -21   31.00    5.40
   5   3 -21   29.30    4.90
   5   3 -21   34.80    5.40
   4  -3 -21  241.18   12.20
   4   3 -21  248.78   11.80
   4   3 -21  214.38   11.30
   3  -3 -21  177.08    9.20
   3  -3 -21  177.68    9.90
   3   3 -21  185.28    9.90
   3   3 -21  166.48    9.10
   2  -3 -21   13.80    3.40
   2  -3 -21   21.90    3.30
   2   3 -21   14.70    3.10
   2   3 -21   16.60    3.60
   1  -3 -21   58.59    5.90
   1  -3 -21   55.49    4.60
   1   3 -21   52.09    5.50
   1   3 -21   57.79    4.50
   0  -3 -21  290.67   11.70
   0  -3 -21  286.57   11.40
   0   3 -21  284.07   11.90
  -1  -3 -21   50.19    4.80
  -1  -3 -21   51.09    5.20
  -1   3 -21   64.19    5.50
  -2  -3 -21    9.30    2.90
  -2   3 -21    8.70    2.80
  -3  -3 -21   20.70    4.10
  -3   3 -21   17.40    3.50
  -4  -3 -21   85.99    7.20
  -4   3 -21   89.29    6.70
  -5  -3 -21   49.10    6.20
  -5   3 -21   43.50    5.60
  -6  -3 -21    0.30    3.10
  -6   3 -21    4.00    2.80
  -7  -3 -21    1.20    3.30
  -7   3 -21    2.40    2.90
   7  -4 -21   29.60    6.80
   7   4 -21   29.70    5.90
   7   4 -21   26.20    6.10
   6  -4 -21   36.20    6.80
   6   4 -21   33.30    6.10
   6   4 -21   38.80    6.40
   5  -4 -21    9.90    3.90
   5   4 -21   10.90    3.50
   5   4 -21    9.10    3.70
   4  -4 -21   92.99    8.00
   4   4 -21   95.09    7.60
   4   4 -21   99.19    7.20
   3  -4 -21   54.69    6.50
   3   4 -21   56.49    6.30
   3   4 -21   56.29    5.90
   2  -4 -21   13.00    3.70
   2  -4 -21    8.60    2.70
   2   4 -21   12.40    2.80
   2   4 -21   10.00    3.30
   1  -4 -21   11.80    2.70
   1  -4 -21   11.20    3.20
   1   4 -21   13.40    3.30
   0  -4 -21  204.08    9.20
   0  -4 -21  218.78    9.90
   0   4 -21  193.98    9.80
  -1  -4 -21  162.78    8.50
  -1  -4 -21  169.18    8.30
  -1   4 -21  169.08    8.90
  -2  -4 -21    5.20    2.60
  -2  -4 -21    9.20    2.60
  -2   4 -21    9.90    3.10
  -3  -4 -21   39.20    5.30
  -3   4 -21   36.50    5.10
  -4  -4 -21    2.80    2.90
  -4   4 -21   -0.40    2.30
  -5  -4 -21   25.80    5.10
  -5   4 -21   33.20    5.10
  -6  -4 -21    0.90    2.80
  -6   4 -21    2.50    2.90
  -7  -5  21   65.29    9.10
   7  -5 -21   72.69    9.40
   7   5 -21   78.09    9.40
  -6  -5  21   98.49    9.90
   6  -5 -21   89.39    9.70
   6   5 -21   95.89    9.90
   5  -5 -21   56.89    7.80
   5   5 -21   57.29    7.40
  -4  -5  21   48.40    6.20
   4  -5 -21   61.49    7.60
   4   5 -21   38.90    5.90
   3  -5 -21    1.50    2.50
  -3  -5  21    7.50    2.90
   3   5 -21    4.50    2.70
   2  -5 -21    9.80    3.30
   2   5 -21    9.50    3.50
   1  -5 -21  106.59    6.20
   1  -5 -21  106.39    7.40
   1   5 -21  107.69    7.70
   0  -5 -21    5.40    2.60
   0  -5 -21   -0.40    1.70
   0   5 -21    1.20    2.30
  -1  -5 -21   -0.50    1.60
  -1  -5 -21   -0.50    2.00
  -1   5 -21    0.60    2.10
  -2  -5 -21  150.08    7.80
  -2   5 -21  148.19    8.40
  -2   5 -21  132.29    8.20
  -3  -5 -21   31.20    4.80
  -3   5 -21   37.40    5.30
  -3   5 -21   38.50    5.60
  -4  -5 -21   36.80    5.70
  -4   5 -21   30.40    4.80
  -4   5 -21   24.50    4.80
  -5  -5 -21   17.20    4.20
  -5   5 -21   19.60    4.30
  -5   5 -21   19.90    4.80
  -6  -5 -21   12.30    4.50
  -6   5 -21    6.10    4.00
  -6   5 -21    8.10    3.60
  -6  -6  21    5.00    3.90
   6  -6 -21   12.40    5.00
   6   6 -21    2.80    3.50
   5  -6 -21  118.99   10.00
   5   6 -21  115.29    9.40
   4  -6 -21  194.38   12.00
  -4  -6  21  216.08   11.80
   4   6 -21  208.88   11.80
  -3  -6  21    4.60    2.80
   3  -6 -21    5.00    3.30
   3   6 -21   -1.60    2.20
   2  -6 -21   93.19    7.60
   2   6 -21   86.29    7.10
   1  -6 -21  580.34   20.90
   1   6 -21  597.44   21.30
   0  -6 -21   39.20    5.40
   0  -6 -21   49.80    5.10
   0   6 -21   40.80    5.60
  -1  -6 -21  145.29    8.20
  -1  -6 -21  132.09    7.50
  -1   6 -21  137.69    8.60
  -2  -6 -21   61.89    6.00
  -2  -6 -21   55.79    5.90
  -2   6 -21   60.19    6.40
  -3  -6 -21   35.50    4.70
  -3  -6 -21   31.10    5.00
  -3   6 -21   47.00    5.80
  -3   6 -21   38.80    5.60
  -4  -6 -21   24.60    4.60
  -4   6 -21   28.40    4.90
  -4   6 -21   23.40    5.00
  -5  -6 -21    3.60    3.50
  -5   6 -21   -0.20    2.40
  -5   6 -21    4.30    3.60
   5  -7 -21   23.50    5.80
  -5  -7  21   18.10    4.90
   5   7 -21   24.80    5.80
  -4  -7  21   -1.00    2.90
   4  -7 -21    6.80    4.10
   4   7 -21    1.90    3.10
   3  -7 -21   37.80    6.10
   3   7 -21   36.90    6.00
   2  -7 -21    4.20    3.00
   2   7 -21   -1.60    2.80
   1  -7 -21    4.20    2.70
   1   7 -21    9.60    3.50
   0  -7 -21    3.40    2.80
   0   7 -21    5.10    3.20
  -1  -7 -21   22.20    4.10
  -1  -7 -21   16.10    3.80
  -1   7 -21   14.00    3.70
  -2  -7 -21   43.00    5.20
  -2  -7 -21   43.00    5.40
  -2   7 -21   35.90    5.30
  -3  -7 -21    5.20    2.70
  -3  -7 -21    1.00    2.40
  -3   7 -21    2.50    2.80
  -3   7 -21   -0.30    2.60
  -4  -7 -21    3.40    3.00
  -4   7 -21    1.80    2.40
  -4   7 -21    1.50    2.80
  -5  -7 -21    2.40    3.20
  -5   7 -21    0.80    2.90
  -5   7 -21    2.70    3.60
   4  -8 -21   77.69    9.20
   4   8 -21   59.19    7.80
   3  -8 -21    5.20    3.60
   3   8 -21   12.10    4.30
   2  -8 -21  105.59    8.50
   2   8 -21  101.99    8.40
   1  -8 -21  123.09    9.00
   1   8 -21  115.09    8.60
   0  -8 -21   -1.10    2.20
   0   8 -21    0.90    2.90
  -1  -8 -21    8.20    3.10
  -1   8 -21    5.60    3.60
  -2  -8 -21    3.20    2.70
  -2   8 -21    2.30    2.80
  -3  -8 -21    1.40    2.80
  -3  -8 -21    2.60    2.60
  -3   8 -21    4.40    3.30
  -4  -8 -21    2.10    3.00
  -4   8 -21    2.90    3.20
  -4   8 -21    3.50    3.30
   3  -9 -21   44.00    6.90
   3   9 -21   47.90    7.20
   2  -9 -21    1.80    3.40
   2   9 -21   -0.90    2.90
   1  -9 -21   -0.80    2.60
   1   9 -21    0.90    3.00
   0  -9 -21   11.60    3.80
   0   9 -21   23.30    5.10
  -1  -9 -21   27.80    5.10
  -1   9 -21   29.60    5.30
  -2  -9 -21   25.00    5.00
  -2   9 -21   23.00    5.00
   7   0 -22   -3.90    2.90
   6   0 -22  177.98   11.10
   5   0 -22   27.40    4.50
   5   0 -22   16.00    4.30
   4   0 -22   10.20    3.50
   4   0 -22    8.30    3.00
   3   0 -22    7.80    2.70
   3   0 -22    3.10    2.50
   2   0 -22  104.29    6.70
   2   0 -22  112.99    7.00
   1   0 -22  154.28    7.90
   1   0 -22  155.78    8.00
   0   0 -22   18.10    3.30
  -1   0 -22   13.50    3.30
  -2   0 -22  268.17   11.60
  -3   0 -22   14.30    3.40
  -4   0 -22   12.30    3.70
  -5   0 -22   28.30    4.80
  -6   0 -22   22.60    4.70
  -7   0 -22    1.70    2.90
   7  -1 -22   18.00    4.90
   7   1 -22   19.40    5.10
   6  -1 -22   31.20    5.60
   6   1 -22   38.50    5.70
   6   1 -22   30.60    5.50
   5  -1 -22    0.90    2.70
   5   1 -22    1.30    2.40
   5   1 -22    0.10    2.70
   4  -1 -22    0.30    2.70
   4  -1 -22   -0.70    1.90
   4   1 -22    3.10    2.60
   4   1 -22    0.20    2.10
   3  -1 -22   20.70    3.60
   3  -1 -22   30.20    4.80
   3   1 -22   26.00    4.20
   3   1 -22   17.40    3.80
   2  -1 -22   20.20    3.60
   2  -1 -22   24.10    3.80
   2   1 -22   12.50    3.00
   2   1 -22   17.90    3.50
   1  -1 -22    3.10    2.20
   1  -1 -22    2.10    1.70
   1   1 -22    0.10    2.10
   1   1 -22    1.50    1.80
   0  -1 -22   11.90    2.60
   0  -1 -22   12.80    2.90
   0   1 -22   10.10    2.80
  -1  -1 -22   44.20    5.00
  -1   1 -22   60.19    5.90
  -2  -1 -22   41.50    5.00
  -2   1 -22   32.30    4.40
  -3  -1 -22   50.39    5.60
  -3   1 -22   45.70    5.30
  -4  -1 -22   12.70    3.60
  -4   1 -22   13.70    3.80
  -5  -1 -22   39.50    5.50
  -5   1 -22   48.00    6.00
  -6  -1 -22    4.00    3.10
  -6   1 -22    3.40    2.90
  -7  -1 -22   -1.00    2.50
  -7   1 -22   -3.00    2.70
   7  -2 -22    3.20    3.70
   7   2 -22    2.50    3.30
   7   2 -22    4.10    3.10
   6  -2 -22   51.39    7.20
   6   2 -22   58.59    7.10
   6   2 -22   47.30    6.70
   5  -2 -22   13.60    4.20
   5   2 -22   13.70    4.00
   4  -2 -22  124.59    9.00
   4   2 -22  124.09    8.40
   4   2 -22  136.79    8.60
   3  -2 -22    3.20    2.80
   3  -2 -22    4.00    2.30
   3   2 -22    6.90    2.90
   3   2 -22    5.70    2.60
   2  -2 -22    1.60    2.20
   2  -2 -22   -1.30    1.70
   2   2 -22    0.10    1.70
   2   2 -22   -2.70    1.50
   1  -2 -22   84.99    6.20
   1  -2 -22   81.19    5.70
   1   2 -22   79.39    6.00
   1   2 -22   81.09    6.00
   0  -2 -22   61.89    5.20
   0  -2 -22   63.99    5.10
   0   2 -22   76.29    5.80
  -1  -2 -22   54.39    5.60
  -1   2 -22   45.30    5.20
  -2  -2 -22    1.20    2.40
  -2   2 -22    0.90    2.10
  -3  -2 -22   49.70    5.70
  -3   2 -22   52.49    5.80
  -4  -2 -22  131.79    8.40
  -4   2 -22  116.49    7.80
  -5  -2 -22    1.80    3.10
  -5   2 -22   -1.50    2.10
  -6  -2 -22   31.10    5.70
  -6   2 -22   31.50    5.30
   7  -3 -22   43.90    7.50
   7   3 -22   54.59    7.70
   7   3 -22   48.50    7.40
   6  -3 -22  142.19   10.60
   6   3 -22  136.59   10.10
   6   3 -22  144.09   10.00
   5  -3 -22    8.80    3.80
   5   3 -22   -3.50    2.40
   5   3 -22    9.00    3.20
   4  -3 -22  147.19    9.60
   4   3 -22  153.58    9.50
   4   3 -22  162.58    9.60
   3  -3 -22  274.37   13.40
   3   3 -22  314.37   13.10
   3   3 -22  300.57   13.30
   2  -3 -22   11.20    2.70
   2  -3 -22    9.80    3.30
   2   3 -22   11.80    3.00
   2   3 -22   14.10    3.50
   1  -3 -22   75.19    5.40
   1  -3 -22   66.09    6.30
   1   3 -22   75.09    6.20
   0  -3 -22   18.80    3.50
   0  -3 -22   23.00    3.80
   0   3 -22   16.00    3.50
  -1  -3 -22   40.90    4.50
  -1  -3 -22   36.10    4.60
  -1   3 -22   30.30    4.60
  -2  -3 -22   29.80    4.50
  -2   3 -22   38.50    5.00
  -3  -3 -22    6.20    3.00
  -3   3 -22    0.70    2.20
  -4  -3 -22   77.49    7.70
  -4   3 -22   89.59    7.20
  -5  -3 -22  134.49    9.30
  -5   3 -22  115.79    8.00
  -6  -3 -22   15.10    4.60
  -6   3 -22   10.10    3.50
   7  -4 -22    6.60    3.90
   7   4 -22   16.40    4.90
   7   4 -22   12.50    4.40
   6  -4 -22   69.49    8.40
   6   4 -22   66.69    8.20
   6   4 -22   71.49    8.50
   5  -4 -22   22.30    5.10
   5   4 -22   22.90    5.00
   5   4 -22   33.50    5.90
   4  -4 -22   -0.20    2.50
   4   4 -22   -0.90    2.20
   4   4 -22    0.10    2.60
   3  -4 -22   31.80    5.30
   3   4 -22   26.50    4.70
   3   4 -22   26.20    4.40
   2  -4 -22    0.50    2.60
   2   4 -22   -1.80    1.90
   2   4 -22   -0.30    1.80
   1  -4 -22    8.20    2.90
   1  -4 -22   11.70    2.80
   1   4 -22    7.40    3.20
   0  -4 -22   62.69    6.20
   0  -4 -22   72.59    5.40
   0   4 -22   75.29    6.40
  -1  -4 -22   52.09    5.50
  -1  -4 -22   59.59    5.70
  -1   4 -22   45.00    5.50
  -2  -4 -22   20.70    3.80
  -2   4 -22   17.30    3.60
  -3  -4 -22  195.78   10.30
  -3   4 -22  185.48    9.80
  -4  -4 -22  143.79    9.10
  -4   4 -22  154.98    9.00
  -5  -4 -22   -0.50    2.50
  -5   4 -22   -2.70    2.60
  -6  -4 -22    2.50    3.20
  -6   4 -22    2.50    3.00
  -6  -5  22    1.30    3.50
   6  -5 -22    3.20    3.80
   6   5 -22   -1.90    2.70
   5  -5 -22  328.07   16.10
  -5  -5  22  244.98   13.90
   5   5 -22  330.87   15.30
   4  -5 -22   20.00    4.70
  -4  -5  22   20.10    4.60
   4   5 -22   22.90    5.00
  -3  -5  22    2.80    2.70
   3  -5 -22    0.70    2.60
   3   5 -22    3.60    2.90
   2  -5 -22  139.59    9.00
   2   5 -22  155.48    9.30
   1  -5 -22    3.10    2.80
   1   5 -22    5.60    3.10
   0  -5 -22  190.08    9.70
   0  -5 -22  190.98    8.90
   0   5 -22  168.48    9.60
  -1  -5 -22    1.00    2.10
  -1  -5 -22    1.80    2.30
  -1   5 -22    0.60    2.30
  -2  -5 -22    0.20    1.40
  -2  -5 -22    3.70    2.40
  -2   5 -22    4.60    3.00
  -3  -5 -22   77.99    6.60
  -3   5 -22   78.79    6.70
  -3   5 -22   98.59    7.50
  -4  -5 -22    4.00    2.70
  -4   5 -22    1.30    3.00
  -4   5 -22   -2.10    2.50
  -5  -5 -22   10.10    3.70
  -5   5 -22   15.30    4.80
  -5   5 -22    8.40    3.50
  -6  -5 -22    2.30    3.90
  -6   5 -22   -1.00    2.80
  -6   5 -22   -3.70    2.90
  -6  -6  22    8.30    4.40
   6  -6 -22    4.60    3.90
   6   6 -22    5.80    4.20
  -5  -6  22   -2.80    3.10
   5  -6 -22    4.50    3.80
   5   6 -22    3.20    3.30
  -4  -6  22    2.80    3.10
   4  -6 -22   -0.30    2.60
   4   6 -22   -2.60    2.20
   3  -6 -22    9.10    4.00
   3   6 -22    2.70    2.80
   2  -6 -22   19.10    4.20
   2   6 -22   19.00    4.50
   1  -6 -22   47.10    6.00
   1   6 -22   46.60    6.20
   0  -6 -22  111.09    7.60
   0   6 -22   91.09    7.20
  -1  -6 -22   22.20    3.90
  -1  -6 -22   30.40    4.80
  -1   6 -22   26.80    4.70
  -2  -6 -22   77.19    6.20
  -2  -6 -22   73.69    6.30
  -2   6 -22   75.89    7.40
  -3  -6 -22   35.60    5.40
  -3   6 -22   38.30    5.70
  -3   6 -22   34.80    5.50
  -4  -6 -22    5.00    3.30
  -4   6 -22    6.10    3.50
  -4   6 -22    5.00    3.30
  -5  -6 -22   -1.00    2.60
  -5   6 -22    1.90    3.40
  -5   6 -22   -2.30    2.70
  -5  -7  22  125.29   10.00
   5  -7 -22  126.89   10.40
   5   7 -22  117.39   10.30
   4  -7 -22    3.50    3.20
   4   7 -22    0.00    2.70
   3  -7 -22   10.30    4.20
   3   7 -22    9.60    3.70
   2  -7 -22   59.29    7.20
   2   7 -22   52.99    6.90
   1  -7 -22   14.20    4.20
   1   7 -22    7.10    3.70
   0  -7 -22   52.69    6.40
   0   7 -22   58.19    6.90
  -1  -7 -22    8.70    3.20
  -1   7 -22    7.40    3.30
  -2  -7 -22    4.90    2.70
  -2  -7 -22    6.40    2.80
  -2   7 -22   11.80    4.00
  -3  -7 -22    6.00    2.70
  -3   7 -22    8.80    3.60
  -4  -7 -22   21.90    4.90
  -4   7 -22   32.00    5.30
  -4   7 -22   26.20    5.30
   4  -8 -22    6.70    3.90
   4   8 -22    8.50    4.10
   3  -8 -22   31.50    6.30
   3   8 -22   37.10    6.30
   2  -8 -22  103.99    8.50
   2   8 -22  104.29   10.10
   1  -8 -22   36.80    5.80
   1   8 -22   48.00    6.70
   0  -8 -22   56.59    6.80
   0   8 -22   51.79    6.90
  -1  -8 -22   42.60    6.00
  -1   8 -22   56.29    7.10
  -2  -8 -22    1.80    2.60
  -2   8 -22    0.80    3.10
  -3  -8 -22   -1.30    2.50
  -3  -8 -22   -0.90    2.60
  -3   8 -22    0.60    3.00
   2  -9 -22    9.50    4.40
   2   9 -22    8.50    4.00
   1  -9 -22    0.90    3.10
   1   9 -22    0.30    2.80
   0  -9 -22   -4.50    2.60
   0   9 -22    1.80    3.00
  -1  -9 -22   24.30    4.90
  -1   9 -22   26.30    5.30
   7   0 -23   -1.60    3.20
   6   0 -23    2.60    3.00
   5   0 -23   -1.60    2.10
   5   0 -23   -0.20    2.70
   4   0 -23   -2.20    2.30
   4   0 -23    1.00    2.20
   3   0 -23    0.70    2.00
   3   0 -23   -0.60    1.80
   2   0 -23    3.20    2.30
   2   0 -23    1.50    2.20
   1   0 -23    1.10    2.20
   1   0 -23    0.70    2.00
   0   0 -23    1.10    2.10
  -1   0 -23    0.40    1.90
  -2   0 -23    0.80    2.30
  -3   0 -23   -0.80    2.10
  -4   0 -23    1.70    2.80
  -5   0 -23    2.90    2.70
  -6   0 -23   -1.70    2.90
   7  -1 -23    1.40    3.10
   7   1 -23    3.90    3.80
   6  -1 -23   15.50    4.60
   6   1 -23   12.10    4.10
   6   1 -23   19.70    4.40
   5  -1 -23  216.48   12.00
   5   1 -23  193.68   11.40
   5   1 -23  212.38   11.10
   4  -1 -23    6.70    3.40
   4  -1 -23    4.50    2.60
   4   1 -23    5.90    3.00
   4   1 -23    7.80    3.00
   3  -1 -23    3.00    2.70
   3  -1 -23    0.50    1.90
   3   1 -23    1.30    1.90
   3   1 -23   -1.00    2.00
   2  -1 -23   75.49    6.10
   2  -1 -23   63.99    6.10
   2   1 -23   54.49    5.70
   2   1 -23   63.89    5.50
   1  -1 -23    1.00    1.90
   1  -1 -23    1.00    1.80
   1   1 -23    1.40    2.00
   1   1 -23    0.50    2.10
   0  -1 -23  304.27   12.50
   0   1 -23  339.67   13.20
  -1  -1 -23  128.69    7.70
  -1   1 -23  121.09    7.40
  -2  -1 -23    0.50    2.20
  -2   1 -23    2.30    2.40
  -3  -1 -23  150.48    9.00
  -3   1 -23  152.38    8.80
  -4  -1 -23   35.50    5.30
  -4   1 -23   33.10    5.20
  -5  -1 -23    0.70    2.60
  -5   1 -23    4.40    3.10
  -6  -1 -23    0.40    3.10
  -6   1 -23    0.90    2.70
   7  -2 -23    5.20    4.00
   7   2 -23    8.80    3.70
   7   2 -23   10.80    4.60
   6  -2 -23   11.60    4.70
   6   2 -23   13.00    4.10
   6   2 -23   10.50    3.90
   5  -2 -23   -0.90    2.60
   5   2 -23    0.40    1.00
   5   2 -23    1.70    2.80
   4  -2 -23   20.00    4.80
   4   2 -23   19.00    4.10
   4   2 -23   23.20    4.80
   3  -2 -23   64.09    6.10
   3  -2 -23   68.19    7.10
   3   2 -23   57.79    6.40
   3   2 -23   52.49    5.90
   2  -2 -23  159.48    8.10
   2  -2 -23  132.69    8.40
   2   2 -23  149.88    8.20
   2   2 -23  153.68    8.80
   1  -2 -23   45.90    5.10
   1  -2 -23   41.90    5.10
   1   2 -23   48.90    5.60
   0  -2 -23  303.27   12.60
   0  -2 -23  360.36   13.20
   0   2 -23  328.17   13.40
  -1  -2 -23  107.99    7.20
  -1   2 -23  124.39    7.60
  -2  -2 -23  184.28    9.40
  -2   2 -23  177.08    9.40
  -3  -2 -23  117.29    8.20
  -3   2 -23  121.39    7.80
  -4  -2 -23   25.80    5.00
  -4   2 -23   18.70    4.00
  -5  -2 -23    3.60    3.10
  -5   2 -23   -0.90    2.60
  -6  -2 -23    4.30    3.30
  -6   2 -23    3.70    3.30
   7  -3 -23   61.39    8.40
   7   3 -23   64.59    8.10
   7   3 -23   69.49    8.60
   6  -3 -23  150.98   11.20
   6   3 -23  114.09    9.50
   6   3 -23  121.29    9.50
   5  -3 -23   -0.60    2.80
   5   3 -23    0.50    3.10
   5   3 -23    4.00    2.70
   4  -3 -23   40.20    6.20
   4   3 -23   46.80    6.30
   4   3 -23   41.50    5.80
   3  -3 -23   27.10    4.80
   3   3 -23   33.60    4.90
   3   3 -23   26.00    4.80
   2  -3 -23  224.58   11.20
   2  -3 -23  204.28    9.60
   2   3 -23  214.28   10.40
   2   3 -23  226.08   11.00
   1  -3 -23   61.39    6.30
   1  -3 -23   60.99    5.80
   1   3 -23   59.59    6.30
   0  -3 -23   43.60    5.00
   0  -3 -23   47.60    5.10
   0   3 -23   39.50    5.10
  -1  -3 -23   14.20    3.20
  -1   3 -23   11.40    3.30
  -2  -3 -23   20.30    4.00
  -2   3 -23   20.90    4.10
  -3  -3 -23    1.60    2.50
  -3   3 -23    1.00    2.30
  -4  -3 -23    4.30    3.30
  -4   3 -23    7.40    3.40
  -5  -3 -23   28.30    5.20
  -5   3 -23   39.40    5.80
  -6  -3 -23    9.20    4.00
  -6   3 -23    5.90    3.60
   6  -4 -23   99.49   10.70
   6   4 -23   82.09    9.10
   6   4 -23   73.99    8.30
   5  -4 -23  190.18   11.80
   5   4 -23  180.88   11.30
   5   4 -23  183.88   11.00
   4  -4 -23    4.90    3.40
   4   4 -23    8.00    3.20
   4   4 -23    2.30    2.70
   3  -4 -23   82.29    8.50
   3   4 -23   76.49    7.60
   3   4 -23   74.89    6.20
   2  -4 -23   93.29    7.50
   2   4 -23  100.39    7.50
   1  -4 -23   58.69    5.00
   1  -4 -23   59.09    6.30
   1   4 -23   51.79    6.00
   0  -4 -23    4.10    2.50
   0  -4 -23    2.20    2.10
   0   4 -23    0.80    2.30
  -1  -4 -23   21.30    3.80
  -1  -4 -23   12.60    3.30
  -1   4 -23   10.20    3.30
  -2  -4 -23   68.49    6.70
  -2   4 -23   72.89    6.30
  -3  -4 -23    3.60    3.00
  -3   4 -23    4.90    2.80
  -4  -4 -23   65.69    7.20
  -4   4 -23   61.79    6.80
  -5  -4 -23   12.50    4.10
  -5   4 -23    6.30    3.40
   6  -5 -23   50.79    7.90
  -6  -5  23   51.89    7.70
   6   5 -23   37.10    6.60
  -5  -5  23   14.80    4.60
   5  -5 -23   11.00    4.70
   5   5 -23   11.60    4.20
  -4  -5  23    7.80    3.40
   4  -5 -23    9.80    4.00
   4   5 -23    7.20    3.90
   3  -5 -23   68.99    8.00
   3   5 -23   63.39    7.40
   2  -5 -23    3.30    2.90
   2   5 -23    5.70    3.00
   1  -5 -23   20.80    4.30
   1   5 -23   17.70    4.20
   0  -5 -23    2.80    2.70
   0  -5 -23    3.80    2.30
   0   5 -23    7.50    3.40
  -1  -5 -23    2.60    2.50
  -1  -5 -23    3.40    2.60
  -1   5 -23    3.20    3.00
  -2  -5 -23   -0.80    1.40
  -2   5 -23    3.10    2.90
  -3  -5 -23    5.60    3.20
  -3   5 -23    1.90    2.70
  -3   5 -23    0.30    2.60
  -4  -5 -23    9.90    3.60
  -4   5 -23    6.80    3.10
  -4   5 -23   20.50    4.80
  -5  -5 -23    9.60    3.70
  -5   5 -23    9.70    4.00
  -5   5 -23   20.70    4.40
  -5  -6  23   10.20    4.30
   5  -6 -23   12.80    5.10
   5   6 -23   17.70    4.90
   4  -6 -23  140.79   10.70
   4   6 -23  149.29   10.50
   3  -6 -23    0.10    2.90
   3   6 -23    2.30    3.10
   2  -6 -23   80.59    8.10
   2   6 -23   55.29    6.90
   1  -6 -23  257.77   12.60
   1   6 -23  272.37   13.30
   0  -6 -23   65.09    6.90
   0   6 -23   70.89    7.40
  -1  -6 -23    3.70    2.60
  -1  -6 -23    4.30    2.90
  -1   6 -23    7.60    3.50
  -2  -6 -23   90.19    7.00
  -2  -6 -23   96.49    8.10
  -2   6 -23   94.09    7.80
  -3  -6 -23   13.70    3.80
  -3   6 -23   20.70    4.50
  -4  -6 -23    5.10    3.10
  -4   6 -23    2.00    2.80
  -4   6 -23   -4.70    2.50
   4  -7 -23    3.00    3.50
   4   7 -23    1.40    3.30
   3  -7 -23   16.10    4.60
   3   7 -23   17.10    4.70
   2  -7 -23   10.30    3.80
   2   7 -23    7.70    4.00
   1  -7 -23   30.30    5.20
   1   7 -23   25.60    5.10
   0  -7 -23    7.10    3.30
   0   7 -23   10.90    4.20
  -1  -7 -23   -0.10    2.60
  -1   7 -23   -1.00    2.60
  -2  -7 -23   11.30    3.30
  -2  -7 -23   19.00    4.10
  -2   7 -23    6.60    3.30
  -3  -7 -23    9.90    3.50
  -3   7 -23   17.90    4.50
   3  -8 -23   34.00    6.40
   3   8 -23   29.80    6.00
   2  -8 -23   33.00    6.00
   2   8 -23   41.60    6.60
   1  -8 -23  232.08   12.90
   1   8 -23  233.78   12.70
   0  -8 -23   24.10    5.10
   0   8 -23   16.70    4.40
  -1  -8 -23   -1.90    2.50
  -1   8 -23    2.10    3.30
  -2  -8 -23    8.60    3.40
  -2   8 -23   10.70    4.10
   7   0 -24   -1.50    3.30
   6   0 -24  133.09   10.10
   5   0 -24  192.98   10.50
   5   0 -24  181.48   11.30
   4   0 -24    2.50    2.60
   4   0 -24    2.00    2.50
   3   0 -24    4.60    2.50
   3   0 -24    1.50    2.40
   2   0 -24   35.30    5.00
   2   0 -24   33.80    4.90
   1   0 -24   81.19    6.00
   0   0 -24    0.60    1.90
  -1   0 -24   22.10    4.10
  -2   0 -24   26.20    4.50
  -3   0 -24   36.40    5.20
  -4   0 -24   37.80    5.50
  -5   0 -24    2.90    3.00
  -6   0 -24    6.00    3.60
   7  -1 -24    5.80    4.00
   7   1 -24    1.60    3.90
   6  -1 -24   48.00    7.20
   6   1 -24   34.90    6.40
   6   1 -24   36.00    6.20
   5  -1 -24   35.00    5.90
   5   1 -24   44.90    6.20
   5   1 -24   37.50    5.60
   4  -1 -24  273.87   12.40
   4  -1 -24  270.67   13.60
   4   1 -24  299.67   13.70
   4   1 -24  278.97   12.90
   3  -1 -24  196.98    9.90
   3  -1 -24  189.28   10.40
   3   1 -24  206.88   10.50
   3   1 -24  201.78   10.50
   2  -1 -24    3.10    2.40
   2  -1 -24    2.10    2.20
   2   1 -24   -1.50    1.90
   2   1 -24    1.60    2.50
   1  -1 -24   36.80    4.80
   1  -1 -24   50.19    5.40
   1   1 -24   42.70    5.10
   0  -1 -24   14.40    3.30
   0   1 -24   17.90    3.50
  -1  -1 -24   27.40    4.30
  -1   1 -24   30.30    4.60
  -2  -1 -24    0.40    2.20
  -2   1 -24   -2.30    1.70
  -3  -1 -24   11.30    3.60
  -3   1 -24    9.60    3.70
  -4  -1 -24    8.10    3.40
  -4   1 -24    4.30    2.80
  -5  -1 -24   60.79    7.30
  -5   1 -24   66.59    7.50
  -6  -1 -24   17.30    4.50
  -6   1 -24   12.40    3.90
   6  -2 -24   13.90    4.70
   6   2 -24   22.40    5.00
   6   2 -24   18.30    4.90
   5  -2 -24   11.80    4.40
   5   2 -24   17.30    4.40
   4  -2 -24   57.59    7.20
   4   2 -24   47.30    6.20
   4   2 -24   57.29    6.70
   3  -2 -24   45.20    5.20
   3  -2 -24   36.90    5.60
   3   2 -24   42.70    5.80
   3   2 -24   33.00    5.00
   2  -2 -24   54.19    5.70
   2  -2 -24   48.30    5.70
   2   2 -24   53.09    6.50
   2   2 -24   42.70    5.50
   1  -2 -24   -1.60    1.90
   1  -2 -24   -1.10    1.90
   1   2 -24    0.80    2.30
   0  -2 -24    7.40    2.80
   0   2 -24    9.30    3.10
  -1  -2 -24   25.50    4.30
  -1   2 -24   33.40    4.90
  -2  -2 -24   31.60    4.90
  -2   2 -24   17.50    3.80
  -3  -2 -24    8.00    3.20
  -3   2 -24   12.60    3.80
  -4  -2 -24   55.49    6.70
  -4   2 -24   56.69    6.60
  -5  -2 -24    5.20    3.50
  -5   2 -24   14.00    4.40
  -6  -2 -24   28.90    5.70
  -6   2 -24   18.70    4.40
   6  -3 -24  128.89   10.70
   6   3 -24  120.69    9.50
   6   3 -24  124.59    9.80
   5  -3 -24   -0.80    3.10
   5   3 -24    0.60    3.10
   5   3 -24    9.20    3.80
   4  -3 -24    5.60    3.50
   4   3 -24   15.90    4.30
   4   3 -24    8.70    3.50
   3  -3 -24   53.09    6.70
   3   3 -24   64.09    6.60
   3   3 -24   57.99    6.90
   2  -3 -24    1.80    2.20
   2  -3 -24    1.60    2.70
   2   3 -24    0.40    2.60
   1  -3 -24    1.00    2.40
   1  -3 -24    2.70    2.20
   1   3 -24    1.00    2.40
   0  -3 -24   64.09    5.50
   0  -3 -24   64.49    6.30
   0   3 -24   58.29    6.30
  -1  -3 -24    0.60    2.30
  -1   3 -24    1.80    2.50
  -2  -3 -24   32.40    4.80
  -2   3 -24   41.30    5.50
  -3  -3 -24  100.39    7.50
  -3   3 -24   82.79    6.90
  -4  -3 -24   28.00    5.10
  -4   3 -24   24.00    4.70
  -5  -3 -24   62.09    7.30
  -5   3 -24   64.29    7.20
   6  -4 -24    6.90    4.40
   6   4 -24   13.00    4.60
   6   4 -24    0.00    2.80
   5  -4 -24    1.90    3.20
   5   4 -24    4.80    3.30
   5   4 -24   -4.30    2.30
   4  -4 -24    5.60    3.70
   4   4 -24   10.60    3.60
   4   4 -24    7.80    3.70
   3  -4 -24  137.99    9.60
   3   4 -24  129.59   13.20
   3   4 -24  126.09    9.10
   2  -4 -24  174.48   10.20
   2   4 -24  157.98    9.70
   1  -4 -24   52.09    6.20
   1  -4 -24   41.60    4.80
   1   4 -24   54.89    6.50
   0  -4 -24  215.98   10.10
   0  -4 -24  212.68   10.60
   0   4 -24  225.48   11.10
  -1  -4 -24  112.79    7.30
  -1   4 -24  160.08    9.00
  -2  -4 -24  116.29    8.00
  -2   4 -24  107.29    7.70
  -3  -4 -24   32.40    5.20
  -3   4 -24   30.20    5.10
  -4  -4 -24    9.30    3.50
  -4   4 -24   -0.60    2.80
  -5  -4 -24    0.70    3.60
  -5   4 -24   -1.10    2.90
   5  -5 -24    6.60    4.30
  -5  -5  24   10.40    4.20
   5   5 -24    0.80    3.60
   4  -5 -24   26.40    5.90
   4   5 -24   29.60    5.60
   3  -5 -24  152.48   10.10
   3   5 -24  142.29    9.60
   2  -5 -24    3.20    3.20
   2   5 -24    5.40    3.20
   1  -5 -24   27.00    4.90
   1   5 -24   27.10    4.90
   0  -5 -24    3.20    2.30
   0  -5 -24    0.20    2.30
   0   5 -24    0.20    2.50
  -1  -5 -24   23.60    4.30
  -1  -5 -24   24.10    4.10
  -1   5 -24   28.50    5.10
  -2   5 -24  137.09    9.10
  -3  -5 -24   -0.10    2.70
  -3   5 -24    0.10    2.80
  -4  -5 -24   -0.70    2.50
  -4   5 -24   -0.70    2.80
  -4   5 -24   -1.20    2.80
   4  -6 -24    1.80    3.20
   4   6 -24    4.50    3.60
   3  -6 -24   41.30    6.60
   3   6 -24   50.79    6.90
   2  -6 -24   -1.50    2.80
   2   6 -24    3.50    3.00
   1  -6 -24    1.30    2.90
   1   6 -24    2.60    3.30
   0  -6 -24    1.60    2.70
   0   6 -24    7.60    3.70
  -1  -6 -24    6.90    2.90
  -1  -6 -24   12.70    3.60
  -1   6 -24   11.40    3.90
  -2  -6 -24    2.90    2.90
  -2   6 -24    6.40    3.50
  -3  -6 -24    2.30    3.00
  -3   6 -24    4.00    3.00
  -4  -6 -24    1.10    2.80
  -4   6 -24    2.00    2.90
  -4   6 -24    2.90    3.30
   3  -7 -24   -3.20    2.20
   3   7 -24    1.90    3.10
   2  -7 -24   41.70    6.60
   2   7 -24   49.40    6.80
   1  -7 -24   75.69    8.40
   1   7 -24   68.69    7.90
   0  -7 -24    2.70    2.80
   0   7 -24   -0.20    3.20
  -1  -7 -24   10.30    3.40
  -1   7 -24    9.90    3.70
  -2  -7 -24   -2.30    2.00
  -2   7 -24    1.00    3.10
  -3  -7 -24   70.69    7.50
  -3   7 -24   89.29    7.50
   2  -8 -24   18.60    5.20
   2   8 -24   28.30    6.00
   1  -8 -24   20.30    5.00
   1   8 -24   12.80    4.20
   0  -8 -24   19.30    4.80
   0   8 -24   20.20    4.90
  -1  -8 -24   88.39    8.60
  -1   8 -24   88.99    9.10
   6   0 -25   -0.70    3.00
   5   0 -25    2.50    2.90
   4   0 -25    0.70    2.30
   4   0 -25   -2.40    2.40
   3   0 -25    1.10    2.60
   3   0 -25    0.00    2.10
   2   0 -25   -0.20    2.20
   2   0 -25    4.10    2.70
   1   0 -25   -0.20    2.20
   0   0 -25    0.10    2.10
  -1   0 -25   -2.40    2.20
  -2   0 -25   -1.00    2.10
  -3   0 -25    2.90    2.90
  -4   0 -25   -2.30    2.30
  -5   0 -25   -1.00    2.40
   6  -1 -25   -1.80    3.10
   6   1 -25    3.70    3.20
   5  -1 -25  133.19    9.90
   5   1 -25  145.29   10.10
   5   1 -25  138.79    9.30
   4  -1 -25  124.99    9.00
   4  -1 -25  120.69    9.20
   4   1 -25  112.29    8.20
   4   1 -25  134.79    9.00
   3  -1 -25    8.30    3.60
   3  -1 -25   11.00    3.20
   3   1 -25   13.00    3.70
   3   1 -25    7.40    3.00
   2  -1 -25  148.89    8.90
   2  -1 -25  150.38    8.60
   2   1 -25  158.38    9.20
   1  -1 -25  121.69    7.60
   1   1 -25  110.39    7.50
   0  -1 -25    2.90    2.40
   0   1 -25    1.80    2.20
  -1  -1 -25   20.30    3.90
  -1   1 -25   18.90    3.90
  -2  -1 -25    7.40    3.00
  -2   1 -25    8.00    3.00
  -3  -1 -25    0.20    2.40
  -3   1 -25    7.10    3.00
  -4  -1 -25    2.40    2.80
  -4   1 -25    5.40    3.10
  -5  -1 -25    9.60    4.10
  -5   1 -25   -3.00    2.90
   6  -2 -25   -0.30    3.50
   6   2 -25   -0.10    3.20
   6   2 -25    3.60    3.20
   5  -2 -25   17.40    5.00
   5   2 -25   11.60    3.70
   4  -2 -25   10.00    3.90
   4   2 -25   10.80    3.80
   4   2 -25   10.70    3.70
   3  -2 -25   33.50    5.50
   3  -2 -25   25.00    4.20
   3   2 -25   26.20    4.90
   3   2 -25   31.30    4.90
   2  -2 -25    7.20    2.70
   2  -2 -25    7.30    2.90
   2   2 -25   15.30    3.70
   1  -2 -25   15.20    3.50
   1  -2 -25   21.60    4.00
   1   2 -25   22.50    4.20
   0  -2 -25   20.50    4.00
   0   2 -25   21.80    4.10
  -1  -2 -25  258.97   12.00
  -1   2 -25  282.87   12.60
  -2  -2 -25  135.39    8.60
  -2   2 -25  124.19    8.20
  -3  -2 -25   41.80    5.80
  -3   2 -25   37.80    5.40
  -4  -2 -25   75.89    8.00
  -4   2 -25   59.49    6.80
  -5  -2 -25  118.79    9.00
  -5   2 -25  117.19    8.60
   6  -3 -25  101.39   10.50
   6   3 -25  106.49    9.10
   6   3 -25   91.49    9.40
   5  -3 -25   -0.50    3.10
   5   3 -25    4.90    3.00
   5   3 -25    3.20    3.20
   4  -3 -25   19.40    4.80
   4   3 -25   30.70    5.30
   4   3 -25   23.50    4.80
   3  -3 -25   87.29    8.60
   3   3 -25   87.39    7.60
   2  -3 -25   30.00    4.40
   2  -3 -25   20.40    4.20
   2   3 -25   31.70    5.10
   1  -3 -25   25.70    4.60
   1  -3 -25   22.80    4.00
   1   3 -25   29.50    4.90
   0  -3 -25   15.00    3.60
   0   3 -25   10.40    3.60
  -1  -3 -25    8.50    3.20
  -1   3 -25   13.20    3.70
  -2  -3 -25   18.10    4.20
  -2   3 -25   17.50    4.20
  -3  -3 -25    1.10    2.80
  -3   3 -25   -0.50    2.30
  -4  -3 -25   12.50    4.00
  -4   3 -25   14.00    4.00
  -5  -3 -25   22.30    5.10
  -5   3 -25   18.60    4.50
   5  -4 -25   10.30    3.90
   5   4 -25    9.10    3.90
   5   4 -25   -1.50    2.70
   4  -4 -25   27.80    5.60
   4   4 -25   38.30    5.70
   4   4 -25   35.70    5.90
   3  -4 -25    0.30    2.60
   3   4 -25    4.20    3.30
   2  -4 -25   32.00    5.30
   2   4 -25   34.00    5.70
   1  -4 -25   14.00    3.20
   1  -4 -25    8.50    3.40
   1   4 -25    8.40    3.20
   0  -4 -25   14.60    3.70
   0  -4 -25   12.50    3.10
   0   4 -25    8.40    3.40
  -1  -4 -25   71.79    6.10
  -1   4 -25  111.59    7.80
  -2  -4 -25   58.09    6.70
  -2   4 -25   53.69    6.60
  -3  -4 -25   -0.10    2.60
  -3   4 -25   -4.10    2.50
  -4  -4 -25   14.60    4.50
  -4   4 -25   16.70    4.50
   5  -5 -25   33.90    6.70
  -5  -5  25   25.40    5.70
   4  -5 -25   32.60    6.20
   4   5 -25   30.10    5.90
   3  -5 -25   13.20    4.30
   3   5 -25   35.10    6.10
   2  -5 -25   -3.10    2.50
   2   5 -25    2.90    2.90
   1  -5 -25   83.19    8.20
   1   5 -25   62.29    7.30
   0  -5 -25  104.79    7.70
   0  -5 -25  103.09    7.10
   0   5 -25   94.09    7.60
  -1  -5 -25    7.90    3.10
  -1   5 -25   20.20    4.70
  -2  -5 -25    0.60    1.70
  -2   5 -25    3.40    2.80
  -3  -5 -25   31.50    5.30
  -3   5 -25   31.40    5.30
  -4  -5 -25   10.30    3.80
  -4   5 -25   12.50    4.30
  -4   5 -25    9.90    4.00
   4  -6 -25   48.20    7.60
   4   6 -25   36.70    6.30
   3  -6 -25   19.00    5.00
   3   6 -25   27.50    5.40
   2  -6 -25    4.90    3.70
   2   6 -25    2.80    3.00
   1  -6 -25  122.29    9.00
   1   6 -25  124.39    9.40
   0  -6 -25  174.78   10.30
   0   6 -25  184.18   10.80
  -1  -6 -25   29.60    5.40
  -1   6 -25   29.80    5.40
  -2  -6 -25   40.10    5.70
  -2   6 -25   35.50    5.90
  -3  -6 -25   56.89    6.90
  -3   6 -25   66.39    7.30
   2  -7 -25   13.10    4.70
   2   7 -25   20.60    5.00
   1  -7 -25    5.60    3.50
   1   7 -25    9.20    4.00
   0  -7 -25    7.70    3.50
   0   7 -25    0.80    2.90
  -1  -7 -25    6.20    3.30
  -1   7 -25    5.70    3.30
  -2   7 -25    3.20    3.60
   5   0 -26  121.19    9.50
   4   0 -26    0.40    3.00
   4   0 -26   -0.60    2.20
   3   0 -26    9.10    3.30
   3   0 -26    0.90    2.50
   2   0 -26   25.10    4.60
   1   0 -26  145.39    8.80
   0   0 -26   28.70    4.60
  -1   0 -26   21.30    4.10
  -2   0 -26   19.20    4.20
  -3   0 -26  200.58   11.10
  -4   0 -26    2.40    3.10
  -5   0 -26   22.70    4.90
   5  -1 -26    9.80    4.10
   5   1 -26    2.30    3.50
   5   1 -26    5.40    3.10
   4  -1 -26    7.20    3.70
   4   1 -26   17.90    4.20
   4   1 -26    7.50    3.50
   3  -1 -26    5.50    2.70
   3  -1 -26    4.20    3.10
   3   1 -26    2.60    2.90
   3   1 -26    2.90    3.00
   2  -1 -26    3.20    2.60
   2  -1 -26    0.50    2.30
   2   1 -26    0.30    2.60
   1  -1 -26    7.00    3.00
   1   1 -26    6.80    3.20
   0  -1 -26    1.90    2.60
   0   1 -26    4.60    2.80
  -1  -1 -26   17.60    4.10
  -1   1 -26   16.20    3.80
  -2  -1 -26    3.70    2.80
  -2   1 -26   12.70    3.80
  -3  -1 -26    6.10    3.20
  -3   1 -26   11.30    4.00
  -4  -1 -26    0.70    2.90
  -4   1 -26    3.10    3.00
  -5  -1 -26    0.50    3.40
  -5   1 -26    4.30    3.20
   5  -2 -26   45.10    7.10
   5   2 -26   35.40    6.00
   4  -2 -26   19.10    4.90
   4   2 -26   16.40    4.50
   4   2 -26   15.20    4.20
   3  -2 -26   71.09    7.90
   3   2 -26   85.09    8.40
   2  -2 -26   73.99    7.30
   2  -2 -26   73.09    6.10
   2   2 -26   66.39    7.30
   1  -2 -26    0.00    1.90
   1   2 -26    3.60    2.60
   0  -2 -26   27.40    4.50
   0   2 -26   26.80    4.70
  -1  -2 -26   16.10    4.00
  -1   2 -26   13.20    3.70
  -2  -2 -26    6.80    3.10
  -2   2 -26    4.90    3.00
  -3  -2 -26   -0.10    2.90
  -3   2 -26    1.50    2.80
  -4  -2 -26   12.10    3.90
  -4   2 -26    8.60    3.80
   5  -3 -26   58.69    8.20
   5   3 -26   48.10    6.80
   5   3 -26   51.99    7.40
   4  -3 -26   -4.10    2.40
   4   3 -26    2.40    3.00
   4   3 -26   -1.30    2.40
   3  -3 -26  100.69    8.10
   3   3 -26  112.69    8.50
   2  -3 -26   67.39    7.30
   2   3 -26   70.39    7.60
   1  -3 -26   10.50    3.40
   1  -3 -26    6.90    2.80
   1   3 -26    6.90    3.40
   0  -3 -26   17.60    4.00
   0   3 -26   29.20    5.00
  -1  -3 -26   18.90    4.00
  -1   3 -26   17.90    4.30
  -2  -3 -26  115.19    7.90
  -2   3 -26  101.99    7.70
  -3  -3 -26    3.00    2.80
  -3   3 -26    1.00    3.00
  -4  -3 -26    4.50    3.70
  -4   3 -26   -0.50    2.70
   4  -4 -26    9.70    4.40
   4   4 -26    6.50    3.50
   3  -4 -26    7.60    3.50
   3   4 -26    1.80    3.00
   2  -4 -26   23.60    5.20
   2   4 -26   25.20    5.00
   1  -4 -26   33.40    5.50
   1   4 -26   37.20    5.80
   0  -4 -26   14.70    3.60
   0   4 -26   19.00    4.40
  -1  -4 -26   48.60    5.70
  -1   4 -26   83.09    8.30
  -2  -4 -26    3.30    2.70
  -2   4 -26    4.40    3.20
  -3  -4 -26   -3.00    2.10
  -3   4 -26   -2.00    2.40
  -4  -4 -26   33.10    6.00
  -4   4 -26   26.00    5.30
   4  -5 -26  103.09   10.50
   4   5 -26   95.19    9.90
   3  -5 -26    4.60    3.40
   3   5 -26   -1.00    3.00
   2  -5 -26    1.80    2.90
   2   5 -26   -0.80    3.00
   1  -5 -26   27.20    5.20
   1   5 -26   26.90    5.00
   0  -5 -26    4.30    3.50
   0   5 -26    4.00    3.20
  -1  -5 -26    0.00    2.50
  -1   5 -26    3.80    3.50
  -2  -5 -26    2.40    2.20
  -2   5 -26   12.10    4.00
  -3  -5 -26    3.30    3.40
  -3   5 -26    3.70    3.50
   3  -6 -26   13.70    4.70
   3   6 -26   26.90    5.50
   2  -6 -26   28.50    5.80
   2   6 -26   25.20    5.20
   1  -6 -26   -0.50    2.80
   1   6 -26    2.40    3.40
   0  -6 -26   26.90    5.10
   0   6 -26   28.50    5.60
  -1   6 -26    5.00    3.50
  -2  -6 -26   10.10    3.70
  -2   6 -26   18.90    4.80
   5   0 -27    3.40    3.40
   4   0 -27    2.20    3.10
   4   0 -27    1.60    2.70
   3   0 -27    3.10    2.60
   3   0 -27   -2.40    2.50
   2   0 -27   -2.80    2.00
   1   0 -27    0.90    2.20
   0   0 -27    0.10    2.20
  -1   0 -27   -0.30    2.50
  -2   0 -27   -0.40    2.30
  -3   0 -27   -0.10    2.60
  -4   0 -27   -0.40    3.00
   5  -1 -27    8.50    3.70
   5   1 -27    7.80    3.30
   5   1 -27    6.40    3.80
   4  -1 -27   39.70    6.20
   4   1 -27   44.50    6.50
   4   1 -27   35.90    5.70
   3  -1 -27    4.50    3.30
   3  -1 -27    2.80    2.70
   3   1 -27    6.00    3.00
   2  -1 -27    7.60    2.90
   2   1 -27    3.60    3.10
   1  -1 -27  140.79    8.80
   1   1 -27  149.19    9.10
   0  -1 -27   65.09    6.70
   0   1 -27   64.39    7.00
  -1  -1 -27    2.00    2.60
  -1   1 -27    0.30    2.30
  -2  -1 -27   31.80    5.10
  -2   1 -27   29.10    4.90
  -3  -1 -27    9.10    3.60
  -3   1 -27    6.30    3.20
  -4  -1 -27   94.59    8.10
  -4   1 -27  101.99    8.50
   5  -2 -27    2.20    3.60
   5   2 -27   -0.70    1.60
   5   2 -27    0.40    3.00
   4  -2 -27   44.70    6.60
   4   2 -27   37.60    6.20
   4   2 -27   29.90    5.20
   3  -2 -27   17.80    4.40
   3   2 -27   25.50    5.20
   2  -2 -27  191.88   10.20
   2  -2 -27  193.08   10.80
   2   2 -27  195.78   10.90
   1  -2 -27  106.89    7.20
   1   2 -27  101.49    7.70
   0  -2 -27   30.20    4.90
   0   2 -27   40.50    5.60
  -1  -2 -27   83.19    7.00
  -1   2 -27   84.49    7.00
  -2  -2 -27   36.80    5.30
  -2   2 -27   34.50    5.50
  -3  -2 -27   44.20    6.00
  -3   2 -27   36.50    5.90
  -4  -2 -27   20.70    5.10
  -4   2 -27   16.20    4.30
   4  -3 -27   11.50    4.20
   4   3 -27   13.50    4.30
   3  -3 -27   17.60    4.60
   3   3 -27   19.90    4.90
   2  -3 -27    3.70    2.80
   2   3 -27    4.20    3.00
   1  -3 -27   57.89    6.20
   1   3 -27   65.29    7.40
   0  -3 -27    3.20    2.80
   0   3 -27    5.40    3.20
  -1  -3 -27   35.20    5.20
  -1   3 -27   37.30    5.90
  -2  -3 -27    7.50    3.70
  -2   3 -27    9.30    3.70
  -3  -3 -27   -0.50    2.90
  -3   3 -27    8.40    3.70
   4  -4 -27    7.50    3.80
   4   4 -27    3.50    3.30
   3  -4 -27   10.00    4.30
   3   4 -27   13.00    4.20
   2  -4 -27    2.90    3.20
   2   4 -27   12.10    4.40
   1  -4 -27    6.90    4.00
   1   4 -27    3.30    3.40
   0  -4 -27   20.50    4.20
   0   4 -27   14.50    4.20
  -1  -4 -27   -0.60    1.80
  -1   4 -27   -1.50    2.60
  -2  -4 -27   33.30    5.40
  -2   4 -27   36.70    5.90
  -3  -4 -27    9.50    3.90
  -3   4 -27   16.50    4.40
   3  -5 -27   78.09    9.10
   3   5 -27   58.69    7.70
   2  -5 -27    8.20    4.00
   2   5 -27    4.00    3.30
   1  -5 -27    5.50    3.40
   1   5 -27    1.00    3.00
   0   5 -27   -0.60    3.20
  -1  -5 -27    4.50    2.90
  -1   5 -27    4.60    3.50
  -2  -5 -27    7.60    2.60
  -2   5 -27   19.40    4.90
   1  -6 -27   49.00    7.00
   1   6 -27   45.20    7.10
   0   6 -27  100.59    8.50
   4   0 -28   18.90    4.50
   4   0 -28   18.80    4.80
   3   0 -28   15.90    4.00
   2   0 -28   12.50    4.00
   1   0 -28    1.50    2.80
   0   0 -28  135.19    8.70
  -1   0 -28   41.40    5.80
  -2   0 -28    6.00    3.40
  -3   0 -28  127.29    9.10
   4  -1 -28    1.40    3.30
   4   1 -28    6.20    3.30
   4   1 -28    3.00    3.40
   3  -1 -28  105.29    7.90
   3  -1 -28  121.49    9.10
   3   1 -28  114.19    8.60
   2  -1 -28   56.79    6.70
   2   1 -28   60.69    7.20
   1  -1 -28   32.00    5.20
   1   1 -28   39.90    6.00
   0  -1 -28   12.40    3.80
   0   1 -28   13.00    3.90
  -1  -1 -28    2.50    2.80
  -1   1 -28    3.90    2.90
  -2  -1 -28   -0.30    2.60
  -2   1 -28   -1.30    2.80
  -3  -1 -28    6.80    3.50
  -3   1 -28   12.10    4.20
   4  -2 -28    1.60    3.50
   4   2 -28   -1.10    2.90
   3  -2 -28   32.60    5.80
   3   2 -28   25.30    5.40
   2  -2 -28    0.50    2.50
   2   2 -28    1.60    2.70
   1  -2 -28   20.60    4.20
   1   2 -28   20.10    4.80
   0  -2 -28   13.90    3.70
   0   2 -28   11.20    3.90
  -1  -2 -28    0.90    2.60
  -1   2 -28    0.10    2.70
  -2  -2 -28   20.40    4.40
  -2   2 -28    8.70    3.60
  -3  -2 -28   37.40    5.90
  -3   2 -28   34.70    5.80
   3  -3 -28   93.69    9.40
   3   3 -28   85.59    8.70
   2  -3 -28  128.49   13.80
   2   3 -28  118.99    8.90
   1  -3 -28   57.99    6.40
   1   3 -28   51.29    6.90
   0  -3 -28   87.99    6.80
   0   3 -28   88.29    8.80
  -1  -3 -28   58.79    6.50
  -1   3 -28   70.59    7.60
  -2  -3 -28   29.80    5.30
  -2   3 -28   36.70    6.10
   2  -4 -28   67.99    7.90
   2   4 -28   73.69    8.40
   1   4 -28   23.60    5.20
   0  -4 -28   12.60    3.70
   0   4 -28    5.00    3.80
  -1  -4 -28   13.80    3.60
  -1   4 -28   13.00    4.30
  -2  -4 -28   43.70    5.90
  -2   4 -28   53.49    6.80
   1   5 -28   23.80    5.20
   0   5 -28   12.80    4.50
   3   0 -29   -0.40    2.40
   2   0 -29    1.90    2.90
   1   0 -29   -0.20    2.90
   0   0 -29    4.90    3.00
  -1   0 -29   -1.60    2.40
  -2   0 -29    1.60    3.40
   3   1 -29   41.90    6.50
   2  -1 -29    2.20    2.60
   2   1 -29    1.10    2.90
   1  -1 -29   18.10    4.30
   1   1 -29   24.60    4.80
   0  -1 -29   64.99    7.20
   0   1 -29   62.29    7.00
  -1  -1 -29   14.10    4.20
  -1   1 -29   18.60    4.60
  -2  -1 -29    4.00    3.50
  -2   1 -29    1.60    3.50
   2  -2 -29   14.50    4.60
   2   2 -29    6.80    3.40
   1  -2 -29    3.80    3.10
   1   2 -29   -1.20    2.70
   0  -2 -29    2.30    3.20
   0   2 -29    4.60    3.50
  -1  -2 -29    0.70    2.60
  -1   2 -29   -1.00    2.70
  -2  -2 -29   22.50    4.80
  -2   2 -29   28.10    5.40
   2   3 -29    6.40    3.60
   1  -3 -29   21.00    4.90
   1   3 -29   18.60    4.70
   0  -3 -29   67.19    7.10
   0   3 -29   52.89    7.00
  -1  -3 -29    6.30    3.10
  -1   3 -29    3.20    3.40
   1   0 -30    1.40    3.10
   0   0 -30   22.80    5.20

_computing_structure_solution     'SHELXT 2014/4 (Sheldrick, 2014)'
;
_shelx_hkl_checksum              95030
loop_
_space_group_symop_operation_xyz
'x, y, z'
'-x, y+1/2, -z+1/2'
'-x, -y, -z'
'x, -y-1/2, z-1/2'
loop_
_atom_site_label
_atom_site_type_symbol
_atom_site_fract_x
_atom_site_fract_y
_atom_site_fract_z
_atom_site_U_iso_or_equiv
_atom_site_adp_type
_atom_site_occupancy
_atom_site_site_symmetry_order
_atom_site_calc_flag
_atom_site_refinement_flags_posn
_atom_site_refinement_flags_adp
C1 C 0.6717(2) 0.69728(15) 0.40875(7) 0.0385(4) Uani 1 1 d . .
C2 C 0.8221(2) 0.70431(19) 0.38853(8) 0.0503(4) Uani 1 1 d . .
H2 H 0.8588 0.6431 0.3637 0.060 Uiso 1 1 calc R U
C3 C 0.9161(3) 0.8053(2) 0.40643(9) 0.0600(5) Uani 1 1 d . .
H3 H 1.0178 0.8117 0.3937 0.072 Uiso 1 1 calc R U
C4 C 0.8608(3) 0.8964(2) 0.44300(9) 0.0585(5) Uani 1 1 d . .
H4 H 0.9260 0.9635 0.4543 0.070 Uiso 1 1 calc R U
C5 C 0.7108(3) 0.89042(17) 0.46317(8) 0.0513(5) Uani 1 1 d . .
H5 H 0.6741 0.9519 0.4879 0.062 Uiso 1 1 calc R U
C6 C 0.6168(2) 0.78904(16) 0.44516(7) 0.0406(4) Uani 1 1 d . .
C7 C 0.5447(2) 0.60023(15) 0.39705(7) 0.0369(4) Uani 1 1 d . .
C8 C 0.5873(3) 0.47070(17) 0.42118(7) 0.0515(5) Uani 1 1 d . .
H8A H 0.6138 0.4777 0.4618 0.077 Uiso 1 1 calc R U
H8B H 0.6758 0.4378 0.4018 0.077 Uiso 1 1 calc R U
H8C H 0.4992 0.4146 0.4153 0.077 Uiso 1 1 calc R U
C9 C 0.4538(2) 0.75902(17) 0.45746(7) 0.0449(4) Uani 1 1 d . .
C10 C 0.4967(2) 0.60334(14) 0.33238(6) 0.0349(3) Uani 1 1 d . .
H10A H 0.4514 0.6858 0.3236 0.042 Uiso 1 1 calc R U
H10B H 0.5914 0.5959 0.3109 0.042 Uiso 1 1 calc R U
C11 C 0.7027(2) 0.4693(2) 0.21065(9) 0.0531(5) Uani 1 1 d . .
H11 H 0.7662 0.4324 0.2398 0.064 Uiso 1 1 calc R U
C12 C 0.7692(3) 0.5315(2) 0.16538(10) 0.0654(6) Uani 1 1 d . .
H12 H 0.8781 0.5357 0.1635 0.079 Uiso 1 1 calc R U
C13 C 0.6747(3) 0.5868(2) 0.12334(9) 0.0644(6) Uani 1 1 d . .
H13 H 0.7199 0.6303 0.0934 0.077 Uiso 1 1 calc R U
C14 C 0.5136(3) 0.5790(2) 0.12461(8) 0.0616(6) Uani 1 1 d . .
H14 H 0.4507 0.6164 0.0955 0.074 Uiso 1 1 calc R U
C15 C 0.4448(2) 0.51569(19) 0.16924(8) 0.0496(4) Uani 1 1 d . .
H15 H 0.3360 0.5090 0.1702 0.059 Uiso 1 1 calc R U
C16 C 0.5411(2) 0.46282(15) 0.21215(7) 0.0370(4) Uani 1 1 d . .
C17 C 0.1007(2) 0.43125(17) 0.35013(8) 0.0414(4) Uani 1 1 d . .
C18 C 0.0121(2) 0.33306(19) 0.32664(9) 0.0518(5) Uani 1 1 d . .
H18 H 0.0051 0.3203 0.2869 0.062 Uiso 1 1 calc R U
C19 C -0.0665(2) 0.2537(2) 0.36330(11) 0.0598(5) Uani 1 1 d . .
H19 H -0.1292 0.1887 0.3480 0.072 Uiso 1 1 calc R U
C20 C -0.0522(2) 0.2706(2) 0.42189(11) 0.0597(5) Uani 1 1 d . .
H20 H -0.1049 0.2168 0.4462 0.072 Uiso 1 1 calc R U
C21 C 0.0398(3) 0.3671(2) 0.44499(9) 0.0576(5) Uani 1 1 d . .
H21 H 0.0509 0.3769 0.4848 0.069 Uiso 1 1 calc R U
C22 C 0.1158(2) 0.44942(19) 0.40922(8) 0.0494(4) Uani 1 1 d . .
H22 H 0.1760 0.5158 0.4246 0.059 Uiso 1 1 calc R U
N1 N 0.38400(16) 0.50567(12) 0.31067(5) 0.0345(3) Uani 1 1 d . .
O1 O 0.32982(16) 0.30917(12) 0.25380(6) 0.0526(3) Uani 1 1 d . .
O2 O 0.58654(16) 0.33575(12) 0.30584(5) 0.0502(3) Uani 1 1 d . .
O3 O 0.13101(16) 0.52081(15) 0.24675(6) 0.0617(4) Uani 1 1 d . .
O4 O 0.17933(16) 0.66415(12) 0.32913(6) 0.0565(4) Uani 1 1 d . .
O5 O 0.41367(14) 0.64894(11) 0.42977(5) 0.0442(3) Uani 1 1 d . .
O6 O 0.36187(19) 0.81335(14) 0.48654(6) 0.0651(4) Uani 1 1 d . .
S1 S 0.45916(5) 0.38691(4) 0.27159(2) 0.03670(13) Uani 1 1 d . .
S2 S 0.18991(5) 0.54098(4) 0.30441(2) 0.04276(13) Uani 1 1 d . .
loop_
_atom_site_aniso_label
_atom_site_aniso_U_11
_atom_site_aniso_U_22
_atom_site_aniso_U_33
_atom_site_aniso_U_23
_atom_site_aniso_U_13
_atom_site_aniso_U_12
C1 0.0483(10) 0.0368(8) 0.0305(8) -0.0034(6) 0.0032(7) 0.0023(7)
C2 0.0476(10) 0.0549(11) 0.0491(10) -0.0093(8) 0.0088(8) 0.0016(9)
C3 0.0513(12) 0.0668(13) 0.0619(13) -0.0040(10) 0.0030(10) -0.0104(10)
C4 0.0656(13) 0.0520(12) 0.0565(12) -0.0032(9) -0.0103(10) -0.0152(10)
C5 0.0747(14) 0.0402(10) 0.0386(9) -0.0082(7) -0.0011(9) -0.0009(9)
C6 0.0560(10) 0.0359(8) 0.0299(8) -0.0028(6) 0.0033(7) 0.0025(7)
C7 0.0481(9) 0.0335(8) 0.0299(8) -0.0041(6) 0.0097(7) 0.0019(7)
C8 0.0798(14) 0.0406(10) 0.0340(9) 0.0033(7) 0.0012(9) 0.0042(9)
C9 0.0629(11) 0.0413(9) 0.0315(8) -0.0045(7) 0.0122(8) 0.0027(8)
C10 0.0451(9) 0.0281(7) 0.0322(8) -0.0006(6) 0.0101(7) -0.0004(6)
C11 0.0505(11) 0.0602(12) 0.0494(11) -0.0007(9) 0.0104(9) 0.0034(9)
C12 0.0604(13) 0.0782(15) 0.0595(13) -0.0009(11) 0.0224(11) -0.0078(11)
C13 0.0904(17) 0.0626(13) 0.0424(11) -0.0046(9) 0.0244(11) -0.0213(12)
C14 0.0873(17) 0.0614(12) 0.0358(10) 0.0049(9) 0.0003(10) -0.0064(11)
C15 0.0551(11) 0.0560(11) 0.0376(9) 0.0010(8) 0.0010(8) -0.0027(9)
C16 0.0488(10) 0.0333(8) 0.0297(7) -0.0070(6) 0.0083(7) 0.0004(7)
C17 0.0356(9) 0.0426(9) 0.0467(9) 0.0037(7) 0.0077(7) 0.0037(7)
C18 0.0422(10) 0.0556(11) 0.0573(11) -0.0049(9) 0.0014(8) 0.0021(8)
C19 0.0431(10) 0.0502(11) 0.0866(16) -0.0040(10) 0.0082(10) -0.0074(9)
C20 0.0494(11) 0.0500(11) 0.0815(15) 0.0131(10) 0.0232(10) 0.0010(9)
C21 0.0619(13) 0.0596(12) 0.0525(11) 0.0078(9) 0.0162(10) -0.0008(10)
C22 0.0503(11) 0.0514(11) 0.0471(10) 0.0003(8) 0.0076(8) -0.0062(8)
N1 0.0394(7) 0.0308(6) 0.0338(7) -0.0035(5) 0.0076(5) 0.0036(5)
O1 0.0641(8) 0.0424(7) 0.0520(7) -0.0110(6) 0.0114(6) -0.0143(6)
O2 0.0639(8) 0.0434(7) 0.0438(7) 0.0030(5) 0.0065(6) 0.0192(6)
O3 0.0554(8) 0.0845(10) 0.0446(7) 0.0128(7) -0.0054(6) 0.0065(7)
O4 0.0571(8) 0.0412(7) 0.0730(9) 0.0073(6) 0.0212(7) 0.0158(6)
O5 0.0528(7) 0.0450(7) 0.0361(6) -0.0078(5) 0.0160(5) -0.0048(5)
O6 0.0780(10) 0.0613(9) 0.0585(8) -0.0189(7) 0.0304(8) 0.0048(8)
S1 0.0479(3) 0.0292(2) 0.0335(2) -0.00361(15) 0.00768(17) 0.00273(16)
S2 0.0421(2) 0.0442(2) 0.0425(2) 0.00763(18) 0.00696(18) 0.00872(18)
loop_
_atom_type_symbol
_atom_type_description
_atom_type_scat_dispersion_real
_atom_type_scat_dispersion_imag
_atom_type_scat_source
C C 0.0033 0.0016 'International Tables Vol C Tables 4.2.6.8 and 6.1.1.4'
H H 0.0000 0.0000 'International Tables Vol C Tables 4.2.6.8 and 6.1.1.4'
N N 0.0061 0.0033 'International Tables Vol C Tables 4.2.6.8 and 6.1.1.4'
O O 0.0106 0.0060 'International Tables Vol C Tables 4.2.6.8 and 6.1.1.4'
S S 0.1246 0.1234 'International Tables Vol C Tables 4.2.6.8 and 6.1.1.4'
loop_
_geom_angle_atom_site_label_1
_geom_angle_atom_site_label_2
_geom_angle_atom_site_label_3
_geom_angle
C6 C1 C2 120.87(17)
C6 C1 C7 109.16(15)
C2 C1 C7 129.97(15)
C1 C2 C3 118.03(18)
C1 C2 H2 121.0
C3 C2 H2 121.0
C4 C3 C2 120.8(2)
C4 C3 H3 119.6
C2 C3 H3 119.6
C3 C4 C5 121.53(18)
C3 C4 H4 119.2
C5 C4 H4 119.2
C4 C5 C6 117.51(17)
C4 C5 H5 121.2
C6 C5 H5 121.2
C1 C6 C5 121.25(18)
C1 C6 C9 108.50(15)
C5 C6 C9 130.24(16)
O5 C7 C1 102.94(12)
O5 C7 C8 107.43(13)
C1 C7 C8 113.03(15)
O5 C7 C10 108.81(13)
C1 C7 C10 108.51(13)
C8 C7 C10 115.32(13)
C7 C8 H8A 109.5
C7 C8 H8B 109.5
H8A C8 H8B 109.5
C7 C8 H8C 109.5
H8A C8 H8C 109.5
H8B C8 H8C 109.5
O6 C9 O5 121.08(17)
O6 C9 C6 130.76(17)
O5 C9 C6 108.16(14)
N1 C10 C7 117.09(12)
N1 C10 H10A 108.0
C7 C10 H10A 108.0
N1 C10 H10B 108.0
C7 C10 H10B 108.0
H10A C10 H10B 107.3
C16 C11 C12 119.2(2)
C16 C11 H11 120.4
C12 C11 H11 120.4
C13 C12 C11 119.8(2)
C13 C12 H12 120.1
C11 C12 H12 120.1
C12 C13 C14 120.95(19)
C12 C13 H13 119.5
C14 C13 H13 119.5
C13 C14 C15 120.1(2)
C13 C14 H14 120.0
C15 C14 H14 120.0
C16 C15 C14 118.54(19)
C16 C15 H15 120.7
C14 C15 H15 120.7
C15 C16 C11 121.47(17)
C15 C16 S1 120.29(14)
C11 C16 S1 118.22(14)
C18 C17 C22 121.26(17)
C18 C17 S2 119.95(14)
C22 C17 S2 118.72(14)
C17 C18 C19 118.86(19)
C17 C18 H18 120.6
C19 C18 H18 120.6
C20 C19 C18 120.39(19)
C20 C19 H19 119.8
C18 C19 H19 119.8
C19 C20 C21 120.27(19)
C19 C20 H20 119.9
C21 C20 H20 119.9
C20 C21 C22 120.3(2)
C20 C21 H21 119.8
C22 C21 H21 119.8
C21 C22 C17 118.84(18)
C21 C22 H22 120.6
C17 C22 H22 120.6
C10 N1 S1 116.37(10)
C10 N1 S2 119.30(10)
S1 N1 S2 120.63(8)
C9 O5 C7 111.23(13)
O1 S1 O2 120.24(9)
O1 S1 N1 106.12(7)
O2 S1 N1 106.30(7)
O1 S1 C16 111.42(8)
O2 S1 C16 106.87(8)
N1 S1 C16 104.72(7)
O3 S2 O4 119.23(9)
O3 S2 N1 110.33(8)
O4 S2 N1 104.25(8)
O3 S2 C17 108.86(9)
O4 S2 C17 108.73(8)
N1 S2 C17 104.40(7)
loop_
_geom_bond_atom_site_label_1
_geom_bond_atom_site_label_2
_geom_bond_distance
C1 C6 1.381(2)
C1 C2 1.385(3)
C1 C7 1.505(2)
C2 C3 1.385(3)
C2 H2 0.9300
C3 C4 1.380(3)
C3 H3 0.9300
C4 C5 1.381(3)
C4 H4 0.9300
C5 C6 1.389(3)
C5 H5 0.9300
C6 C9 1.464(3)
C7 O5 1.4701(19)
C7 C8 1.516(2)
C7 C10 1.536(2)
C8 H8A 0.9600
C8 H8B 0.9600
C8 H8C 0.9600
C9 O6 1.202(2)
C9 O5 1.364(2)
C10 N1 1.481(2)
C10 H10A 0.9700
C10 H10B 0.9700
C11 C16 1.379(3)
C11 C12 1.381(3)
C11 H11 0.9300
C12 C13 1.366(3)
C12 H12 0.9300
C13 C14 1.375(3)
C13 H13 0.9300
C14 C15 1.384(3)
C14 H14 0.9300
C15 C16 1.377(2)
C15 H15 0.9300
C16 S1 1.7655(16)
C17 C18 1.380(3)
C17 C22 1.383(3)
C17 S2 1.7656(18)
C18 C19 1.387(3)
C18 H18 0.9300
C19 C20 1.370(3)
C19 H19 0.9300
C20 C21 1.379(3)
C20 H20 0.9300
C21 C22 1.382(3)
C21 H21 0.9300
C22 H22 0.9300
N1 S1 1.6904(13)
N1 S2 1.6927(14)
O1 S1 1.4190(13)
O2 S1 1.4202(13)
O3 S2 1.4216(14)
O4 S2 1.4262(14)
