#------------------------------------------------------------------------------
#$Date: 2017-02-17 12:03:33 +0200 (Fri, 17 Feb 2017) $
#$Revision: 192229 $
#$URL: file:///home/coder/svn-repositories/cod/cif/1/54/52/1545284.cif $
#------------------------------------------------------------------------------
#
# This file is available in the Crystallography Open Database (COD),
# http://www.crystallography.net/
#
# All data on this site have been placed in the public domain by the
# contributors.
#
data_1545284
loop_
_publ_author_name
'N.N. Golovnev'
'M.S. Molokeev'
'A.I. Smolentsev'
'M.K. Lesnikov'
_publ_section_title
;
 Structure of
 Tetrakis((1,3-Diethyl-2-Thiobarbiturato)(Butanol-1))dicobalt(II)
;
_journal_issue                   2
_journal_name_full               'Russian Journal of Coordination Chemistry'
_journal_page_first              82
_journal_page_last               85
_journal_paper_doi               10.7868/S0132344X17010030
_journal_volume                  43
_journal_year                    2017
_chemical_formula_moiety         'C48 H84 Co2 N8 O12 S4'
_chemical_formula_sum            'C48 H84 Co2 N8 O12 S4'
_chemical_formula_weight         1211.33
_chemical_name_systematic
;
Bis( 2-1,3-diethyl-2-thiobarbiturato O,O')-bis(1,3-diethyl-2-thiobarbiturato O)-
tetra(butan-1-ol)-di-cobalt(II) 
;
_space_group_crystal_system      monoclinic
_space_group_IT_number           14
_space_group_name_Hall           '-P 2ybc'
_space_group_name_H-M_alt        'P 1 21/c 1'
_symmetry_space_group_name_Hall  '-P 2ybc'
_symmetry_space_group_name_H-M   'P 1 21/c 1'
_atom_sites_solution_hydrogens   mixed
_audit_creation_method           SHELXL-2014/7
_cell_angle_alpha                90
_cell_angle_beta                 92.196(2)
_cell_angle_gamma                90
_cell_formula_units_Z            2
_cell_length_a                   10.7185(5)
_cell_length_b                   21.9851(11)
_cell_length_c                   12.7235(7)
_cell_measurement_reflns_used    9874
_cell_measurement_temperature    150(2)
_cell_measurement_theta_max      27.44
_cell_measurement_theta_min      2.44
_cell_volume                     2996.1(3)
_computing_cell_refinement       'SAINT (Bruker, 2004)'
_computing_data_collection       'APEX2 (Bruker, 2004)'
_computing_data_reduction        'SAINT (Bruker, 2004)'
_computing_molecular_graphics    'SHELXTL (Bruker, 2004)'
_computing_publication_material  'SHELXTL (Bruker, 2004)'
_computing_structure_refinement  'SHELXL-2014/7 (Sheldrick, 2014)'
_computing_structure_solution    'SHELXTL (Bruker, 2004)'
_diffrn_ambient_temperature      150(2)
_diffrn_measured_fraction_theta_full 0.998
_diffrn_measured_fraction_theta_max 0.998
_diffrn_measurement_device_type  'Bruker Nonius X8Apex CCD area-detector'
_diffrn_measurement_method       '\f and \w scans'
_diffrn_radiation_monochromator  graphite
_diffrn_radiation_source         'fine-focus sealed tube'
_diffrn_radiation_type           MoK\a
_diffrn_radiation_wavelength     0.71073
_diffrn_reflns_av_R_equivalents  0.0627
_diffrn_reflns_av_unetI/netI     0.0544
_diffrn_reflns_Laue_measured_fraction_full 0.998
_diffrn_reflns_Laue_measured_fraction_max 0.998
_diffrn_reflns_limit_h_max       13
_diffrn_reflns_limit_h_min       -10
_diffrn_reflns_limit_k_max       26
_diffrn_reflns_limit_k_min       -26
_diffrn_reflns_limit_l_max       15
_diffrn_reflns_limit_l_min       -15
_diffrn_reflns_number            24414
_diffrn_reflns_point_group_measured_fraction_full 0.998
_diffrn_reflns_point_group_measured_fraction_max 0.998
_diffrn_reflns_theta_full        25.250
_diffrn_reflns_theta_max         25.677
_diffrn_reflns_theta_min         1.853
_exptl_absorpt_coefficient_mu    0.754
_exptl_absorpt_correction_T_max  0.9633
_exptl_absorpt_correction_T_min  0.7043
_exptl_absorpt_correction_type   multi-scan
_exptl_absorpt_process_details   'SADABS (Bruker, 2004)'
_exptl_crystal_colour            blue
_exptl_crystal_density_diffrn    1.343
_exptl_crystal_description       prism
_exptl_crystal_F_000             1284
_exptl_crystal_size_max          0.50
_exptl_crystal_size_mid          0.20
_exptl_crystal_size_min          0.05
_refine_diff_density_max         0.837
_refine_diff_density_min         -0.834
_refine_diff_density_rms         0.119
_refine_ls_extinction_coef       .
_refine_ls_extinction_method     none
_refine_ls_goodness_of_fit_ref   1.080
_refine_ls_hydrogen_treatment    mixed
_refine_ls_matrix_type           full
_refine_ls_number_parameters     372
_refine_ls_number_reflns         5669
_refine_ls_number_restraints     62
_refine_ls_restrained_S_all      1.082
_refine_ls_R_factor_all          0.1061
_refine_ls_R_factor_gt           0.0948
_refine_ls_shift/su_max          0.034
_refine_ls_shift/su_mean         0.001
_refine_ls_structure_factor_coef Fsqd
_refine_ls_weighting_details
'w=1/[\s^2^(Fo^2^)+34.3387P] where P=(Fo^2^+2Fc^2^)/3'
_refine_ls_weighting_scheme      calc
_refine_ls_wR_factor_gt          0.2119
_refine_ls_wR_factor_ref         0.2158
_reflns_Friedel_coverage         0.000
_reflns_Friedel_fraction_full    .
_reflns_Friedel_fraction_max     .
_reflns_number_gt                4748
_reflns_number_total             5669
_reflns_threshold_expression     'I > 2\s(I)'
_cod_data_source_file            CoDetba21-butanol2.cif
_cod_data_source_block           h
_cod_database_code               1545284
_shelx_shelxl_version_number     2014/7
_shelx_space_group_comment
;
The symmetry employed for this shelxl refinement is uniquely defined
by the following loop, which should always be used as a source of
symmetry information in preference to the above space-group names.
They are only intended as comments.
;
_shelx_estimated_absorpt_t_min   0.704
_shelx_estimated_absorpt_t_max   0.963
_shelx_res_file
;

    h.res created by SHELXL-2014/7


TITL P21/c
CELL 0.71073 10.7185 21.9851 12.7235 90.000 92.196 90.000
ZERR 2.0000 0.0005 0.0011 0.0007 0.000 0.002 0.000
LATT 1
SYMM -X, 0.5+Y, 0.5-Z
SFAC C CO O S N H
UNIT 96 4 24 8 16 168
MERG 2
OMIT 0 180
SHEL 99999.00 0.82
FMAP 2
GRID
PLAN 20
TEMP -123
SIZE 0.5 0.2 0.05
BOND $H
EADP C2C1 C2C2
EADP C3C1 C3C2
EADP C4C1 C4C2
EADP C5C1 C5C2

EADP C2D1 C2D2
EADP C3D1 C3D2
EADP C4D1 C4D2
EADP C5D1 C5D2

ISOR 0.01 0.01 C2C1 C3C1 C4C1 C5C1
ISOR 0.01 0.01 C2D1 C3D1 C4D1 C5D1

DFIX 1.54 0.01 C2C1 C3C1
DFIX 1.54 0.01 C2C2 C3C2

DFIX 1.54 0.01 C3C1 C4C1
DFIX 1.54 0.01 C3C2 C4C2

DFIX 1.54 0.01 C4C1 C5C1
DFIX 1.54 0.01 C4C2 C5C2

DFIX 1.54 0.01 C2D1 C3D1
DFIX 1.54 0.01 C2D2 C3D2

DFIX 1.54 0.01 C3D1 C4D1
DFIX 1.54 0.01 C3D2 C4D2

DFIX 1.54 0.01 C4D1 C5D1
DFIX 1.54 0.01 C4D2 C5D2

DANG 2.5 0.02 C2D2 C4D2
DANG 2.5 0.02 C3D2 C5D2

OMIT -4 5 6
OMIT 1 11 1
OMIT 1 13 2
OMIT -4 7 12
L.S. 10
ACTA 50.5
WGHT    0.000000   34.338699
FVAR       0.14999
CO    2    0.727820    0.012799    0.373029    11.00000    0.02181    0.02353 =
         0.03520    0.00421    0.00035   -0.00056
S1    4    0.308476    0.223021    0.284504    11.00000    0.04092    0.04379 =
         0.06057    0.02901    0.00713    0.01019
O1A   3    0.223466    0.051163    0.520976    11.00000    0.02929    0.02573 =
         0.03151    0.00846    0.00431    0.00288
O2A   3    0.567077    0.037140    0.306036    11.00000    0.02454    0.04540 =
         0.02910    0.00018    0.00313    0.00897
N1A   5    0.445573    0.122947    0.306350    11.00000    0.02491    0.04178 =
         0.02757    0.00752    0.00081    0.00234
N3A   5    0.270173    0.128241    0.410414    11.00000    0.02169    0.03087 =
         0.02844    0.00466    0.00102    0.00536
C2A   1    0.343029    0.155838    0.336355    11.00000    0.02393    0.03251 =
         0.03679    0.00930   -0.00475   -0.00023
C4A   1    0.295637    0.070775    0.451602    11.00000    0.02572    0.01609 =
         0.02848    0.00210   -0.00038    0.00015
C5A   1    0.396246    0.038949    0.414019    11.00000    0.02232    0.02644 =
         0.03316    0.00291   -0.00140    0.00271
AFIX  43
H5A   6    0.412142   -0.001204    0.438660    11.00000   -1.20000
AFIX   0
C6A   1    0.472752    0.063731    0.342794    11.00000    0.02576    0.03615 =
         0.02717   -0.00031   -0.00467    0.00048
C7A   1    0.534505    0.150432    0.233505    11.00000    0.02973    0.05215 =
         0.04064    0.01619    0.00893    0.00022
AFIX  23
H7A1  6    0.620013    0.135972    0.252035    11.00000   -1.20000
H7A2  6    0.533481    0.195224    0.241437    11.00000   -1.20000
AFIX   0
C8A   1    0.501031    0.133845    0.119451    11.00000    0.05941    0.06933 =
         0.04072    0.01697    0.01043   -0.00442
AFIX 137
H8A1  6    0.504220    0.089570    0.111043    11.00000   -1.50000
H8A2  6    0.560745    0.152926    0.073226    11.00000   -1.50000
H8A3  6    0.416626    0.148385    0.100824    11.00000   -1.50000
AFIX   0
C9A   1    0.165221    0.163264    0.452851    11.00000    0.02773    0.02800 =
         0.04265    0.00349    0.00375    0.00998
AFIX  23
H9A1  6    0.101367    0.134608    0.477494    11.00000   -1.20000
H9A2  6    0.126111    0.188302    0.395924    11.00000   -1.20000
AFIX   0
C10A  1    0.206828    0.203881    0.542104    11.00000    0.05138    0.03586 =
         0.04922   -0.00115    0.00560    0.01495
AFIX 137
H10A  6    0.241940    0.179110    0.600042    11.00000   -1.50000
H10B  6    0.135202    0.226954    0.566394    11.00000   -1.50000
H10C  6    0.270542    0.232134    0.518226    11.00000   -1.50000
AFIX   0
S2    4    0.818304    0.274145    0.668740    11.00000    0.04585    0.02114 =
         0.07132   -0.01413   -0.00391    0.00372
O1B   3    0.726027    0.090377    0.458383    11.00000    0.03052    0.02267 =
         0.04189   -0.00273   -0.00437    0.00161
O2B   3    1.033158    0.078023    0.733695    11.00000    0.03255    0.03451 =
         0.05360   -0.01273   -0.01094    0.01051
N1B   5    0.933585    0.167417    0.693119    11.00000    0.02373    0.02214 =
         0.03607   -0.01062    0.00216    0.00026
N3B   5    0.780957    0.172769    0.555825    11.00000    0.02447    0.02169 =
         0.04107    0.00156    0.00438    0.00022
C2B   1    0.845650    0.201436    0.637147    11.00000    0.02635    0.02407 =
         0.03986   -0.00965    0.00806   -0.00135
C4B   1    0.795720    0.110303    0.533298    11.00000    0.02700    0.02286 =
         0.03184   -0.00126    0.00702    0.00036
C5B   1    0.883676    0.078301    0.592490    11.00000    0.02727    0.01920 =
         0.03920   -0.00895    0.00262    0.00485
AFIX  43
H5B   6    0.897277    0.036627    0.576852    11.00000   -1.20000
AFIX   0
C6B   1    0.952865    0.105107    0.674138    11.00000    0.02326    0.02434 =
         0.03847   -0.00006    0.00372   -0.00104
C7B   1    1.011851    0.195412    0.778546    11.00000    0.03178    0.02462 =
         0.04755   -0.01116   -0.00267   -0.00280
AFIX  23
H7B1  6    1.023013    0.239180    0.763208    11.00000   -1.20000
H7B2  6    1.095325    0.176076    0.780790    11.00000   -1.20000
AFIX   0
C8B   1    0.955201    0.188666    0.883735    11.00000    0.06662    0.07957 =
         0.03803   -0.02093    0.00578   -0.01543
AFIX 137
H8B1  6    0.876063    0.210982    0.883942    11.00000   -1.50000
H8B2  6    1.012579    0.205089    0.938448    11.00000   -1.50000
H8B3  6    0.939902    0.145514    0.897627    11.00000   -1.50000
AFIX   0
C9B   1    0.689377    0.207121    0.490116    11.00000    0.04202    0.02371 =
         0.04738    0.00141   -0.00713    0.00263
AFIX  23
H9B1  6    0.689402    0.191370    0.417224    11.00000   -1.20000
H9B2  6    0.714595    0.250420    0.488498    11.00000   -1.20000
AFIX   0
C10B  1    0.558658    0.202517    0.530535    11.00000    0.03299    0.03081 =
         0.06800   -0.00599   -0.00882   -0.00380
AFIX 137
H10D  6    0.531529    0.159950    0.528708    11.00000   -1.50000
H10E  6    0.501477    0.227045    0.486036    11.00000   -1.50000
H10F  6    0.558371    0.217578    0.603019    11.00000   -1.50000
AFIX   0
O1C   3    0.886974    0.029988    0.299929    11.00000    0.03840    0.02273 =
         0.08169    0.00654    0.02535    0.00332
H1C   6    0.929332   -0.005958    0.293596    11.00000   -1.20000
O1D   3    0.714398   -0.064736    0.270477    11.00000    0.04046    0.04295 =
         0.06962   -0.01860   -0.02247    0.00675
H1D   6    0.786959   -0.079753    0.265459    11.00000   -1.20000
PART 1
C2D1  1    0.625856   -0.085861    0.188786    10.50000    0.03577    0.03745 =
         0.03707   -0.00720    0.00536    0.00291
AFIX  23
H2D1  6    0.664588   -0.115800    0.141921    10.50000   -1.20000
H2D2  6    0.591811   -0.051596    0.146126    10.50000   -1.20000
AFIX   0
C3D1  1    0.524721   -0.115407    0.253868    10.50000    0.06823    0.06786 =
         0.04056   -0.00281   -0.00392   -0.00719
AFIX  23
H3D1  6    0.559256   -0.151487    0.291346    10.50000   -1.20000
H3D2  6    0.495577   -0.086184    0.306804    10.50000   -1.20000
AFIX   0
C4D1  1    0.415469   -0.134374    0.180009    10.50000    0.05990    0.08269 =
         0.08202    0.00843    0.00399    0.00273
AFIX  23
H4D1  6    0.362063   -0.163954    0.215976    10.50000   -1.20000
H4D2  6    0.447665   -0.154230    0.116685    10.50000   -1.20000
AFIX   0
C5D1  1    0.337923   -0.077979    0.147457    10.50000    0.06506    0.07971 =
         0.07052    0.00386    0.00541   -0.00677
AFIX 137
H5D1  6    0.328756   -0.051530    0.208679    10.50000   -1.50000
H5D2  6    0.255238   -0.090848    0.120431    10.50000   -1.50000
H5D3  6    0.380445   -0.055682    0.092554    10.50000   -1.50000
AFIX   0
C2C1  1    0.969554    0.080783    0.295779    10.50000    0.03892    0.04250 =
         0.06684    0.00211    0.01223   -0.00681
AFIX  23
H2C1  6    1.043234    0.073503    0.343424    10.50000   -1.20000
H2C2  6    0.926505    0.117679    0.320403    10.50000   -1.20000
AFIX   0
C4C1  1    1.116313    0.044583    0.162156    10.50000    0.09168    0.09152 =
         0.07922   -0.00099    0.01166   -0.01466
AFIX  23
H4C1  6    1.178650    0.046167    0.221554    10.50000   -1.20000
H4C2  6    1.078712    0.003449    0.161581    10.50000   -1.20000
AFIX   0
C5C1  1    1.184019    0.053360    0.060120    10.50000    0.09357    0.11925 =
         0.10457   -0.00503    0.04215    0.01018
AFIX 137
H5C1  6    1.124957    0.047893    0.000150    10.50000   -1.50000
H5C2  6    1.251346    0.023378    0.056248    10.50000   -1.50000
H5C3  6    1.219303    0.094453    0.058332    10.50000   -1.50000
AFIX   0
C3C1  1    1.013105    0.091356    0.182503    10.50000    0.04942    0.06063 =
         0.07188   -0.00105    0.01750   -0.01297
AFIX  23
H3C1  6    0.942293    0.085896    0.131106    10.50000   -1.20000
H3C2  6    1.045847    0.133197    0.175334    10.50000   -1.20000
PART 2
AFIX   0
C4C2  1    1.035734    0.054158    0.108330    10.50000    0.09168    0.09152 =
         0.07922   -0.00099    0.01166   -0.01466
AFIX  23
H4C3  6    0.954970    0.064130    0.072032    10.50000   -1.20000
H4C4  6    1.037648    0.009819    0.121878    10.50000   -1.20000
AFIX   0
C5C2  1    1.143227    0.071515    0.037966    10.50000    0.09357    0.11925 =
         0.10457   -0.00503    0.04215    0.01018
AFIX 137
H5C4  6    1.127301    0.111812    0.007377    10.50000   -1.50000
H5C5  6    1.149354    0.041484   -0.018521    10.50000   -1.50000
H5C6  6    1.221690    0.072336    0.080095    10.50000   -1.50000
AFIX   0
C2C2  1    0.924683    0.085057    0.271304    10.50000    0.03892    0.04250 =
         0.06684    0.00211    0.01223   -0.00681
AFIX  23
H2C3  6    0.933789    0.110500    0.335337    10.50000   -1.20000
H2C4  6    0.857793    0.103419    0.225822    10.50000   -1.20000
AFIX   0
C3C2  1    1.047259    0.088635    0.212897    10.50000    0.04942    0.06063 =
         0.07188   -0.00105    0.01750   -0.01297
AFIX  23
H3C3  6    1.067900    0.131755    0.199384    10.50000   -1.20000
H3C4  6    1.115857    0.070894    0.257300    10.50000   -1.20000
AFIX   0
C2D2  1    0.674319   -0.058237    0.169064    10.50000    0.03577    0.03745 =
         0.03707   -0.00720    0.00536    0.00291
AFIX  23
H2D3  6    0.717942   -0.088441    0.125954    10.50000   -1.20000
H2D4  6    0.698449   -0.017287    0.144645    10.50000   -1.20000
AFIX   0
C3D2  1    0.534399   -0.065970    0.149546    10.50000    0.06823    0.06786 =
         0.04056   -0.00281   -0.00392   -0.00719
AFIX  23
H3D3  6    0.511744   -0.060492    0.073976    10.50000   -1.20000
H3D4  6    0.488221   -0.035631    0.190422    10.50000   -1.20000
AFIX   0
C4D2  1    0.502408   -0.130857    0.185056    10.50000    0.05990    0.08269 =
         0.08202    0.00843    0.00399    0.00273
AFIX  23
H4D3  6    0.541677   -0.161617    0.140102    10.50000   -1.20000
H4D4  6    0.530315   -0.137759    0.259170    10.50000   -1.20000
AFIX   0
C5D2  1    0.359178   -0.133353    0.172266    10.50000    0.06506    0.07971 =
         0.07052    0.00386    0.00541   -0.00677
AFIX 137
H5D4  6    0.322247   -0.109211    0.227870    10.50000   -1.50000
H5D5  6    0.331215   -0.175655    0.177347    10.50000   -1.50000
H5D6  6    0.332843   -0.116785    0.103435    10.50000   -1.50000
AFIX   0
HKLF 4

REM  P21/c
REM R1 =  0.0948 for    4748 Fo > 4sig(Fo)  and  0.1061 for all    5669 data
REM    372 parameters refined using     62 restraints

END

WGHT      0.0000     33.9029

REM Highest difference peak  0.837,  deepest hole -0.834,  1-sigma level  0.119
Q1    1   1.1931  0.0136  0.1070  11.00000  0.05    0.63
Q2    1   1.0137  0.0924  0.0974  11.00000  0.05    0.63
Q3    1   0.4084 -0.0977  0.2369  11.00000  0.05    0.55
Q4    1   0.5736 -0.1222  0.1550  11.00000  0.05    0.52
Q5    1   0.7649 -0.0377  0.3163  11.00000  0.05    0.51
Q6    1   0.7702  0.2400  0.7422  11.00000  0.05    0.50
Q7    1   0.3374  0.1888  0.2222  11.00000  0.05    0.49
Q8    1   0.1795 -0.0418  0.1201  11.00000  0.05    0.48
Q9    1   0.8914  0.0678  0.2241  11.00000  0.05    0.47
Q10   1   1.2077  0.0618  0.1294  11.00000  0.05    0.46
Q11   1   0.8811  0.2779  0.7377  11.00000  0.05    0.43
Q12   1   0.4539 -0.0801  0.1830  11.00000  0.05    0.43
Q13   1   0.2928 -0.0574  0.2158  11.00000  0.05    0.43
Q14   1   0.6857 -0.0031  0.4259  11.00000  0.05    0.43
Q15   1   0.8434  0.0140  0.3632  11.00000  0.05    0.41
Q16   1   0.7413  0.0497  0.3640  11.00000  0.05    0.40
Q17   1   0.9727  0.0732  0.1388  11.00000  0.05    0.40
Q18   1   0.3762  0.2623  0.3428  11.00000  0.05    0.39
Q19   1   0.2785  0.2149  0.3418  11.00000  0.05    0.39
Q20   1   0.2205  0.0276  0.5528  11.00000  0.05    0.39
;
_shelx_res_checksum              17577
_shelx_hkl_file
;
  -1   0   0   -0.30    0.09
   1   0   0   -0.25    0.09
   2   0   0  205.43   15.57
   3   0   0    9.34    0.90
   4   0   0  531.01   40.17
   5   0   0  124.47    9.46
   6   0   0    5.66    0.78
   7   0   0  129.17    9.86
   8   0   0   30.57    2.53
   9   0   0   39.34    3.22
  10   0   0    0.77    0.62
  11   0   0   20.27    1.93
  12   0   0   12.93    1.51
  13   0   0   13.28    1.51
   0  -1   0   -0.34    0.08
   0  -1   0   -0.36    0.07
   0   1   0   -0.39    0.06
   0   1   0   -0.38    0.09
  -1  -1   0    7.96    0.61
  -1  -1   0    6.48    0.59
   1   1   0    6.38    0.62
   1   1   0    8.15    0.61
   1   1   0    8.00    0.59
  -2  -1   0  181.55   14.36
  -2  -1   0  186.38   13.91
   2   1   0  184.10   14.36
   2   1   0  185.43   13.96
  -3  -1   0   63.30    5.20
  -3  -1   0   65.37    5.06
   3  -1   0   67.87    5.08
   3   1   0   68.15    5.07
   3   1   0   65.49    5.21
   4  -1   0   89.34    7.38
   4   1   0  100.74    7.59
   4   1   0   96.97    7.59
   4   1   0  100.37    7.38
   5   1   0   10.38    0.98
   5   1   0   11.27    1.00
   5   1   0   10.39    1.04
   6   1   0   19.92    1.63
   6   1   0   19.10    1.63
   6   1   0   19.18    1.65
   7  -1   0   -0.22    0.46
   7   1   0   -0.09    0.43
   7   1   0   -0.44    0.38
   7   1   0   -0.46    0.36
   8  -1   0    3.43    0.66
   8   1   0    2.59    0.60
   8   1   0    2.22    0.46
   8   1   0    2.41    0.46
   9  -1   0    1.42    0.63
   9   1   0    0.90    0.59
  10  -1   0    5.72    0.91
  10   1   0    7.52    1.01
  11  -1   0    6.37    0.93
  11   1   0    3.84    0.86
  12  -1   0    0.75    0.75
  12   1   0    1.31    0.71
  13  -1   0    0.48    0.80
  13   1   0   -0.32    0.71
   0  -2   0  221.21   17.44
   0   2   0  225.79   17.43
  -1  -2   0   11.60    1.01
  -1  -2   0   11.71    0.95
  -1  -2   0   10.88    1.00
   1  -2   0    9.81    0.99
   1  -2   0   10.06    0.99
   1   2   0   12.10    0.95
   1   2   0   10.70    1.00
   1   2   0   12.13    1.02
  -2  -2   0    5.79    0.61
  -2  -2   0    5.40    0.61
  -2  -2   0    5.48    0.56
   2   2   0    5.87    0.56
   2   2   0    6.11    0.63
   2   2   0    6.14    0.64
  -3  -2   0   63.26    5.16
  -3  -2   0   62.85    5.16
  -3  -2   0   67.71    5.01
   3   2   0   66.57    5.18
   3   2   0   65.52    5.18
   3   2   0   69.08    5.01
  -4  -2   0   62.15    5.06
  -4  -2   0   64.94    4.93
   4  -2   0   62.74    4.95
   4   2   0   65.53    4.93
   4   2   0   65.92    5.08
   4   2   0   65.57    5.08
   5  -2   0   92.08    6.63
  -5  -2   0   88.35    6.60
  -5  -2   0   84.01    6.77
  -5  -2   0   83.85    6.78
   5   2   0   84.79    6.80
   5   2   0   84.34    6.60
   5   2   0   88.72    6.80
   6  -2   0  327.64   24.70
   6   2   0  337.08   25.50
   6   2   0  323.61   24.68
   6   2   0  320.70   25.50
   7  -2   0   55.35    4.38
   7   2   0   55.36    4.35
   7   2   0   55.03    4.43
   7   2   0   57.25    4.44
   8  -2   0  122.28    8.84
   8   2   0  112.03    8.79
   8   2   0  115.55    9.03
   8   2   0  110.31    9.02
   9   2   0   26.76    2.33
   9   2   0   27.71    2.29
   9   2   0   27.36    2.29
  10  -2   0    3.03    0.76
  10   2   0    2.98    0.57
  10   2   0    2.65    0.69
  11  -2   0   15.81    1.54
  11   2   0   12.86    1.46
  12  -2   0    3.72    0.91
  12   2   0    6.37    0.96
  13  -2   0   30.21    2.71
  13   2   0   29.62    2.63
   0  -3   0    0.14    0.18
   0  -3   0    0.08    0.19
   0   3   0    0.10    0.22
   0   3   0    0.08    0.18
   1  -3   0   59.23    4.52
  -1  -3   0   58.07    4.54
   1  -3   0   57.93    4.52
  -1  -3   0   57.65    4.53
  -1  -3   0   56.83    4.36
  -1   3   0   57.31    4.52
   1   3   0   56.46    4.53
   1   3   0   58.80    4.54
  -1   3   0   56.64    4.51
  -2  -3   0    5.80    0.69
  -2  -3   0    5.92    0.59
  -2  -3   0    5.35    0.71
   2   3   0    6.24    0.71
   2   3   0    6.32    0.60
   2   3   0    6.12    0.74
  -3  -3   0    2.49    0.41
  -3  -3   0    2.62    0.42
  -3  -3   0    3.05    0.37
   3   3   0    2.53    0.47
   3   3   0    2.56    0.44
   3   3   0    2.27    0.37
  -4  -3   0  154.47   12.30
  -4  -3   0  152.26   12.30
  -4  -3   0  161.35   11.90
   4   3   0  160.25   12.32
   4   3   0  159.86   12.31
   4   3   0  156.81   11.89
   5  -3   0    1.39    0.42
  -5  -3   0    0.34    0.32
  -5  -3   0    0.48    0.34
   5   3   0    0.42    0.40
   5   3   0    0.56    0.42
   5   3   0    0.44    0.33
   6  -3   0   18.76    1.71
  -6  -3   0   20.21    1.67
  -6  -3   0   20.16    1.65
  -6  -3   0   19.84    1.65
   6   3   0   20.04    1.70
   6   3   0   19.62    1.66
   6   3   0   19.21    1.69
   7  -3   0   34.35    3.03
   7   3   0   37.82    2.99
   7   3   0   37.99    3.06
   7   3   0   39.94    3.07
   8  -3   0    4.29    0.69
   8   3   0    2.22    0.56
   8   3   0    1.71    0.54
   8   3   0    1.93    0.54
   9  -3   0    4.69    0.81
   9   3   0    3.71    0.63
   9   3   0    3.32    0.68
   9   3   0    3.34    0.64
  10   3   0    8.14    1.02
  10   3   0    6.92    0.96
  10   3   0    6.17    0.94
  11  -3   0   -0.46    0.66
  11   3   0   -0.70    0.53
  11   3   0   -0.45    0.60
  12  -3   0    0.54    0.76
  12   3   0   -0.05    0.65
  13  -3   0    0.72    0.80
  14  -3   0    2.30    0.92
   0  -4   0    1.15    0.30
   0  -4   0    1.05    0.29
   0   4   0    1.05    0.30
   0   4   0    1.04    0.33
   1  -4   0   19.18    1.80
  -1  -4   0   25.99    1.85
  -1  -4   0   25.17    1.85
   1  -4   0   19.06    1.80
  -1   4   0   19.72    1.81
   1   4   0   23.75    1.82
  -1   4   0   19.48    1.80
   1   4   0   25.27    1.85
   2  -4   0  722.63   58.42
  -2  -4   0  798.03   56.54
   2  -4   0  714.20   58.42
  -2  -4   0  769.82   58.50
  -2  -4   0  748.11   58.52
   2   4   0  791.03   58.51
   2   4   0  738.06   58.46
   2   4   0  784.78   56.51
  -2   4   0  688.02   58.37
  -3  -4   0    5.90    0.74
  -3  -4   0    6.37    0.65
  -3  -4   0    6.05    0.76
   3   4   0    7.38    0.66
   3   4   0    5.30    0.81
   3   4   0    6.51    0.80
  -4  -4   0    2.25    0.36
  -4  -4   0    1.89    0.40
  -4  -4   0    1.51    0.39
   4   4   0    1.45    0.33
   4   4   0    1.88    0.47
   4   4   0    1.55    0.43
  -5  -4   0   15.49    1.39
  -5  -4   0   15.39    1.40
  -5  -4   0   16.98    1.38
   5   4   0   15.58    1.34
   5   4   0   15.29    1.43
   5   4   0   16.48    1.45
  -6  -4   0    6.93    0.83
   6  -4   0    8.75    0.93
  -6  -4   0    7.83    0.84
   6   4   0    6.84    0.90
   6   4   0    6.57    0.79
   6   4   0    7.09    0.91
  -7  -4   0  118.53    9.33
  -7  -4   0  128.91    9.34
   7   4   0  115.72    9.36
   7   4   0  114.72    9.06
   7   4   0  117.39    9.37
   8  -4   0    2.53    0.67
   8   4   0    3.87    0.65
   8   4   0    3.61    0.63
   8   4   0    3.99    0.62
   9  -4   0   10.79    1.32
   9   4   0   12.04    1.26
   9   4   0   11.59    1.22
   9   4   0   12.40    1.27
  10  -4   0    9.73    1.34
  10   4   0   11.76    1.25
  10   4   0   12.31    1.25
  10   4   0   11.40    1.23
  11  -4   0   13.35    1.44
  11   4   0   11.63    1.30
  11   4   0    9.88    1.27
  12  -4   0    3.59    0.89
  12   4   0    0.17    0.65
  12   4   0    1.78    0.65
  13  -4   0    1.62    0.87
  14  -4   0   -0.82    0.82
   0  -5   0    4.04    0.66
   0  -5   0    5.52    0.71
   0   5   0    4.14    0.59
   0   5   0    4.64    0.68
  -1  -5   0    4.74    0.78
   1  -5   0    7.47    0.75
  -1  -5   0    4.38    0.76
   1  -5   0    7.45    0.77
  -1   5   0    7.21    0.76
   1   5   0    4.43    0.79
  -1   5   0    7.31    0.77
   2  -5   0   26.24    2.00
  -2  -5   0   23.14    1.90
  -2  -5   0   22.10    2.04
  -2  -5   0   21.45    2.03
   2  -5   0   26.77    1.99
  -2   5   0   27.28    1.99
   2   5   0   23.10    2.06
  -2   5   0   25.57    1.99
   2   5   0   21.27    2.03
  -3  -5   0    0.13    0.24
  -3  -5   0    0.02    0.35
   3  -5   0    0.46    0.30
   3  -5   0    0.08    0.27
  -3  -5   0   -0.06    0.36
  -3   5   0    0.21    0.25
  -3   5   0    0.12    0.11
   3   5   0    0.36    0.39
   3   5   0    0.49    0.26
   3   5   0   -0.14    0.44
  -4  -5   0   34.97    2.86
   4  -5   0   37.24    2.78
  -4  -5   0   33.69    2.72
  -4  -5   0   34.06    2.84
   4   5   0   36.87    2.72
   4   5   0   34.04    2.86
   4   5   0   33.64    2.87
  -5  -5   0   29.03    2.50
  -5  -5   0   31.62    2.42
  -5  -5   0   30.41    2.51
   5   5   0   29.97    2.53
   5   5   0   30.67    2.41
   5   5   0   31.11    2.54
  -6  -5   0   63.35    5.15
  -6  -5   0   65.46    5.00
  -6  -5   0   66.71    5.15
   6   5   0   63.89    4.98
   6   5   0   62.05    5.17
   6   5   0   67.88    5.19
  -7  -5   0   12.35    1.22
  -7  -5   0   12.76    1.23
   7  -5   0   13.41    1.31
   7   5   0   12.54    1.29
   7   5   0   11.93    1.18
   7   5   0   12.91    1.29
  -8  -5   0   10.68    1.10
  -8  -5   0   10.34    1.07
   8   5   0   11.77    1.22
   8   5   0   12.12    1.25
   8   5   0   12.09    1.14
   9  -5   0    1.14    0.65
   9   5   0    0.98    0.62
   9   5   0    0.53    0.54
   9   5   0    0.61    0.60
  10  -5   0    7.59    1.14
  10   5   0    7.27    1.00
  10   5   0    8.17    1.06
  10   5   0    8.12    1.06
  11  -5   0   18.62    1.99
  11   5   0   23.82    1.96
  11   5   0   19.49    1.88
  12  -5   0   50.68    4.61
  12   5   0   60.79    4.62
  12   5   0   57.84    4.53
  13  -5   0    0.05    0.77
  13   5   0    0.14    0.63
  14  -5   0    2.38    0.94
   0  -6   0   53.85    4.37
   0  -6   0   57.21    4.38
   0   6   0   53.47    4.36
   0   6   0   54.92    4.38
  -1  -6   0   39.71    3.60
   1  -6   0   44.99    3.59
   1  -6   0   49.70    3.60
  -1   6   0   47.20    3.60
  -1   6   0   48.79    3.61
   1   6   0   38.85    3.62
  -2  -6   0    6.20    0.87
  -2  -6   0    6.12    0.86
   2  -6   0    8.45    0.84
   2  -6   0    9.26    0.83
  -2  -6   0    6.56    0.72
  -2   6   0    8.73    0.80
  -2   6   0    8.54    0.82
   2   6   0    5.50    0.87
   2   6   0    6.94    0.95
  -3  -6   0   17.14    1.68
  -3  -6   0   18.07    1.54
   3  -6   0   21.47    1.62
  -3  -6   0   17.98    1.67
   3  -6   0   20.97    1.61
   3   6   0   19.30    1.73
   3   6   0   17.44    1.68
  -3   6   0   20.07    1.60
   3   6   0   19.34    1.55
  -4  -6   0    3.05    0.55
  -4  -6   0    3.41    0.52
  -4  -6   0    3.03    0.54
   4   6   0    4.27    0.54
   4   6   0    3.34    0.61
   4   6   0    2.87    0.57
  -5  -6   0    5.26    0.65
   5  -6   0    3.94    0.58
  -5  -6   0    6.51    0.80
   5  -6   0    3.66    0.58
  -5  -6   0    6.44    0.83
   5   6   0    5.74    0.87
   5   6   0    6.14    0.84
  -6  -6   0   75.18    5.72
  -6  -6   0   70.34    5.72
  -6  -6   0   73.79    5.53
   6   6   0   65.90    5.72
   6   6   0   72.30    5.74
   6   6   0   73.91    5.51
  -7  -6   0    4.47    0.76
  -7  -6   0    5.35    0.77
  -7  -6   0    4.56    0.75
   7   6   0    5.49    0.76
   7   6   0    5.51    0.76
   7   6   0    5.36    0.74
  -8  -6   0   16.87    1.62
  -8  -6   0   19.42    1.63
   8   6   0   18.06    1.71
   8   6   0   18.62    1.61
   8   6   0   18.20    1.72
   9  -6   0    6.23    0.94
   9   6   0    7.01    0.92
   9   6   0    6.10    0.90
   9   6   0    6.52    0.91
  10  -6   0   11.88    1.36
  10   6   0   11.07    1.28
  10   6   0   10.21    1.21
  10   6   0   12.12    1.34
  11  -6   0   15.03    1.71
  11   6   0   14.74    1.56
  11   6   0   18.49    1.66
  12  -6   0    6.41    1.09
  12   6   0    4.23    0.87
  12   6   0    6.83    1.07
  13  -6   0    0.90    0.86
  13   6   0    1.94    0.74
  14  -6   0    4.31    1.07
   0  -7   0    0.31    0.42
   0  -7   0   -0.22    0.40
   0   7   0   -0.09    0.42
   0   7   0    0.11    0.47
  -1  -7   0    2.39    0.49
  -1  -7   0    2.04    0.48
   1   7   0    2.05    0.49
   1   7   0    2.51    0.56
   2  -7   0   49.14    3.63
   2  -7   0   49.70    3.62
  -2  -7   0   43.16    3.47
  -2  -7   0   40.18    3.63
  -2  -7   0   40.94    3.64
  -2   7   0   47.96    3.62
  -2   7   0   47.25    3.61
   2   7   0   42.32    3.64
   2   7   0   45.34    3.67
  -3  -7   0   18.37    1.69
  -3  -7   0   20.00    1.55
  -3  -7   0   18.75    1.68
   3   7   0   19.64    1.74
   3   7   0   18.47    1.69
   4  -7   0   33.22    2.58
   4  -7   0   32.86    2.59
  -4  -7   0   29.12    2.64
  -4  -7   0   31.17    2.50
  -4  -7   0   32.16    2.65
   4   7   0   32.90    2.68
   4   7   0   32.77    2.50
   4   7   0   29.72    2.65
  -4   7   0   32.39    2.55
   5  -7   0   83.32    6.73
  -5  -7   0   86.62    6.80
   5  -7   0   84.26    6.73
  -5  -7   0   86.59    6.80
  -5  -7   0   86.14    6.54
   5   7   0   89.08    6.53
   5   7   0   82.46    6.80
   5   7   0   87.53    6.82
  -6  -7   0  127.46    9.39
  -6  -7   0  118.21    9.72
  -6  -7   0  124.43    9.72
   6   7   0  125.36    9.75
   6   7   0  118.66    9.73
   6   7   0  126.38    9.37
  -7  -7   0    4.46    0.58
  -7  -7   0    3.51    0.60
  -7  -7   0    3.21    0.60
   7   7   0    3.66    0.72
   7   7   0    3.74    0.71
   7   7   0    4.90    0.71
   8  -7   0    4.68    0.80
  -8  -7   0    2.33    0.54
  -8  -7   0    2.35    0.54
   8   7   0    2.87    0.57
   8   7   0    2.13    0.67
   8   7   0    1.31    0.66
  -9  -7   0    2.00    0.44
   9  -7   0    2.81    0.74
   9   7   0    2.50    0.60
   9   7   0    2.48    0.73
   9   7   0    2.38    0.73
  10  -7   0    0.22    0.67
  10   7   0    1.12    0.68
  10   7   0   -0.01    0.66
  10   7   0    0.33    0.56
  11  -7   0    3.10    0.89
  11   7   0    3.01    0.81
  11   7   0    3.49    0.73
  12  -7   0    2.43    0.89
  12   7   0    3.35    0.84
  13  -7   0    2.13    0.97
  13   7   0    5.17    0.90
  14  -7   0    0.46    0.86
  14   7   0    0.50    0.75
   0  -8   0   78.38    6.34
   0  -8   0   85.12    6.35
   0   8   0   75.05    6.33
   0   8   0   81.66    6.35
  -1  -8   0  161.61   12.45
   1  -8   0  158.18   12.44
  -1  -8   0  150.34   12.45
   1  -8   0  165.06   12.44
   1   8   0  157.40   12.46
  -1   8   0  160.89   12.43
   1   8   0  149.98   12.44
  -1   8   0  166.62   12.45
   2  -8   0   45.24    3.89
  -2  -8   0   51.78    3.92
   2  -8   0   46.45    3.89
  -2  -8   0   52.70    3.74
  -2  -8   0   49.70    3.92
   2   8   0   52.02    3.93
   2   8   0   53.37    3.95
  -2   8   0   43.97    3.87
  -2   8   0   41.74    3.88
  -3  -8   0    1.89    0.51
  -3  -8   0    2.69    0.38
  -3  -8   0    1.90    0.51
   3   8   0    1.93    0.54
   3   8   0    2.14    0.59
  -4  -8   0   20.62    1.84
  -4  -8   0   21.52    1.70
  -4  -8   0   20.80    1.86
   4   8   0   19.87    1.84
   4   8   0   20.96    1.88
  -5  -8   0   34.11    2.65
  -5  -8   0   35.58    2.81
  -5  -8   0   33.70    2.80
   5  -8   0   27.28    2.70
   5   8   0   35.11    2.64
   5   8   0   33.44    2.81
   5   8   0   36.27    2.85
   6  -8   0   19.77    1.63
  -6  -8   0   18.65    1.63
  -6  -8   0   18.42    1.75
   6  -8   0   18.91    1.62
  -6  -8   0   18.76    1.73
   6   8   0   20.58    1.82
   6   8   0   18.77    1.79
   6   8   0   19.73    1.63
  -7  -8   0   10.85    1.20
  -7  -8   0   11.49    1.14
   7   8   0   11.61    1.35
   7   8   0   10.05    1.29
   7   8   0   12.77    1.13
  -8  -8   0    2.36    0.60
  -8  -8   0    2.57    0.53
   8   8   0    2.84    0.73
   8   8   0    3.54    0.59
   8   8   0    2.06    0.71
   9  -8   0   27.99    2.62
   9   8   0   31.54    2.69
   9   8   0   30.54    2.50
   9   8   0   31.35    2.67
  10  -8   0    3.49    0.82
  10   8   0    2.38    0.63
  10   8   0    1.29    0.76
  11  -8   0   24.44    2.27
  11   8   0   24.02    2.09
  11   8   0   23.33    2.23
  12  -8   0    0.74    0.81
  12   8   0    1.00    0.82
  13  -8   0   17.99    1.88
  13   8   0   14.37    1.74
  14   8   0    0.80    0.75
   0  -9   0   27.51    2.32
   0  -9   0   27.94    2.33
   0   9   0   28.40    2.35
   0   9   0   25.43    2.30
   1  -9   0   22.12    1.98
   1  -9   0   23.21    2.00
  -1   9   0   24.06    2.01
  -1   9   0   22.34    1.98
  -2  -9   0    1.01    0.50
   2  -9   0    2.38    0.50
   2  -9   0    2.04    0.49
  -2  -9   0    1.14    0.50
  -2   9   0    2.29    0.47
   2   9   0    1.17    0.55
  -2   9   0    1.80    0.51
   2   9   0    0.88    0.57
   3  -9   0    9.37    1.02
  -3  -9   0   10.21    0.92
  -3  -9   0    8.82    1.07
  -3  -9   0    9.41    1.09
   3  -9   0    9.05    1.00
   3   9   0   10.51    1.17
  -3   9   0    9.68    1.00
  -3   9   0    9.88    1.03
   3   9   0    9.36    1.12
   4  -9   0    1.57    0.47
  -4  -9   0    2.68    0.43
  -4  -9   0    2.84    0.60
  -4  -9   0    2.92    0.60
   4   9   0    2.82    0.63
   4   9   0    2.46    0.66
   5  -9   0   26.38    2.21
   5  -9   0   28.24    2.22
  -5  -9   0   26.77    2.32
  -5  -9   0   25.74    2.14
  -5  -9   0   26.07    2.30
   5   9   0   25.23    2.31
   5   9   0   27.56    2.35
   6  -9   0    3.86    0.58
  -6  -9   0    5.25    0.73
   6  -9   0    3.62    0.56
  -6  -9   0    4.67    0.68
   6   9   0    5.28    0.69
   6   9   0    5.23    0.80
   6   9   0    5.72    0.82
  -7  -9   0    0.55    0.55
   7  -9   0    0.81    0.39
  -7  -9   0    0.92    0.41
   7   9   0    0.71    0.67
   7   9   0    0.63    0.45
   7   9   0    0.10    0.64
  -8  -9   0   12.06    1.22
  -8  -9   0   12.38    1.32
   8   9   0   12.66    1.45
   8   9   0   10.86    1.34
   8   9   0   12.80    1.21
  -9  -9   0    0.34    0.52
  -9  -9   0    0.19    0.47
   9  -9   0    0.39    0.68
   9   9   0    0.78    0.73
   9   9   0    0.68    0.53
   9   9   0    0.91    0.74
  10  -9   0    6.49    1.15
  10   9   0    9.24    1.29
  10   9   0   11.27    1.10
  11  -9   0    7.27    1.17
  11   9   0    7.27    1.03
  11   9   0    8.17    1.25
  12  -9   0    9.38    1.44
  12   9   0   11.81    1.49
  13  -9   0   -0.70    0.82
  13   9   0    0.18    0.77
  14   9   0    0.86    0.80
   0 -10   0   42.05    3.51
   0 -10   0   46.11    3.53
   0  10   0   38.45    3.49
   0  10   0   44.64    3.55
   1 -10   0   80.93    5.91
  -1 -10   0   67.34    5.90
   1 -10   0   84.29    5.91
  -1 -10   0   63.14    5.90
   1  10   0   66.17    5.91
   1  10   0   63.29    5.89
  -1  10   0   84.55    5.92
  -1  10   0   82.85    5.91
  -2 -10   0   29.96    2.65
   2 -10   0   36.00    2.63
  -2 -10   0   29.62    2.65
  -2  10   0   34.01    2.61
   2  10   0   27.94    2.65
   2  10   0   26.36    2.62
  -2  10   0   34.34    2.62
  -3 -10   0   72.89    5.52
  -3 -10   0   72.83    5.28
  -3 -10   0   72.22    5.53
  -3  10   0   53.76    5.47
   3  10   0   73.19    5.54
  -4 -10   0   62.29    5.08
  -4 -10   0   63.65    4.84
  -4 -10   0   62.70    5.08
   4  10   0   64.67    5.10
   4  10   0   61.35    5.08
   5 -10   0    7.17    0.81
  -5 -10   0    4.71    0.71
  -5 -10   0    4.33    0.76
  -5 -10   0    5.55    0.78
   5  10   0    5.47    0.87
   5  10   0    4.61    0.81
  -5  10   0    4.71    0.62
  -5  10   0    6.87    0.74
  -6 -10   0    3.49    0.51
  -6 -10   0    2.58    0.66
   6  10   0    3.63    0.77
   6  10   0    2.98    0.74
  -7 -10   0   36.69    3.39
   7 -10   0   43.60    3.28
   7 -10   0   44.85    3.29
  -7 -10   0   37.22    3.22
   7  10   0   39.13    3.45
   7  10   0   41.38    3.22
  -8 -10   0    0.46    0.56
  -8 -10   0    0.29    0.43
   8  10   0    1.03    0.52
   8  10   0    0.83    0.71
   8  10   0    0.00    0.70
  -9 -10   0   20.94    1.85
  -9 -10   0   20.58    1.94
   9 -10   0   19.64    2.02
   9  10   0   22.63    2.11
   9  10   0   21.63    1.83
   9  10   0   21.70    2.06
  10 -10   0    0.88    0.74
  10  10   0    0.65    0.55
  10  10   0    0.53    0.78
  11 -10   0    7.63    1.25
  11  10   0    8.97    1.10
  11  10   0    9.11    1.32
  12 -10   0    2.26    0.91
  12  10   0    2.41    0.94
  13 -10   0    4.75    1.14
  13  10   0    5.44    1.06
  14  10   0    1.67    0.89
   0 -11   0   12.19    1.29
   0 -11   0   11.04    1.23
   0  11   0   11.24    1.25
   0  11   0   11.39    1.34
  -1 -11   0  238.43   18.75
  -1 -11   0  231.26   18.76
   1 -11   0  262.11   18.76
   1 -11   0  243.21   18.75
   1  11   0  227.39   18.75
  -1  11   0  240.85   18.75
   1  11   0  231.32   18.76
  -1  11   0  241.83   18.75
   2 -11   0    4.10    0.67
   2 -11   0    5.12    0.69
  -2  11   0    4.14    0.71
  -2  11   0    4.28    0.67
  -3 -11   0   24.25    2.30
   3 -11   0   27.55    2.27
  -3 -11   0   24.49    2.12
   3 -11   0   29.16    2.27
  -3 -11   0   25.22    2.31
   3  11   0   22.94    2.29
  -3  11   0   28.46    2.27
   3  11   0   25.84    2.35
  -3  11   0   29.59    2.29
   4 -11   0   12.82    1.53
  -4 -11   0   19.83    1.47
   4 -11   0   13.93    1.54
  -4 -11   0   20.57    1.66
  -4 -11   0   20.27    1.68
   4  11   0   20.45    1.73
   4  11   0   18.15    1.66
  -4  11   0   13.60    1.52
  -4  11   0   14.30    1.55
  -5 -11   0    3.80    0.73
  -5 -11   0    4.40    0.66
   5  11   0    3.22    0.76
   5  11   0    4.22    0.80
  -6 -11   0   33.84    2.61
   6 -11   0   30.01    2.70
  -6 -11   0   35.71    2.83
   6 -11   0   28.23    2.68
   6  11   0   31.97    2.83
   6  11   0   37.15    2.89
  -7 -11   0    1.43    0.45
   7 -11   0    0.84    0.47
   7 -11   0    0.84    0.46
  -7 -11   0    1.44    0.63
   7  11   0    1.44    0.76
   7  11   0    0.49    0.73
   8 -11   0   33.56    3.07
  -8 -11   0   38.35    3.21
  -8 -11   0   41.01    3.06
   8  11   0   39.92    3.29
   8  11   0   37.57    3.26
   9 -11   0    3.53    0.86
   9  11   0    2.89    0.63
   9  11   0    1.22    0.86
   9  11   0    2.37    0.88
  10 -11   0    8.11    1.28
  10  11   0    8.88    1.32
  10  11   0    9.30    1.09
  11 -11   0    0.94    0.78
  11  11   0    0.33    0.81
  12 -11   0    7.03    1.30
  12  11   0   10.67    1.45
  13  11   0    0.29    0.87
  14  11   0    2.09    0.99
   0 -12   0    0.61    0.53
   0 -12   0    1.15    0.56
   0  12   0    1.20    0.65
   0  12   0    1.17    0.60
  -1 -12   0   76.27    6.12
   2 -12   0   23.36    1.98
   2 -12   0   22.41    1.97
  -2  12   0   19.65    1.94
  -2  12   0   21.60    1.98
   3 -12   0   60.41    5.59
  -3 -12   0   75.16    5.37
  -3 -12   0   77.68    5.65
  -3  12   0   59.67    5.58
   3  12   0   77.26    5.65
   4 -12   0   29.61    2.37
  -4 -12   0   22.75    2.41
  -4  12   0   30.84    2.35
  -4  12   0   31.91    2.37
   4  12   0   21.23    2.45
  -5 -12   0   18.78    1.43
  -5 -12   0   18.47    1.63
   5 -12   0   13.75    1.52
   5 -12   0   13.20    1.50
  -5  12   0   12.50    1.47
   5  12   0   17.71    1.65
   5  12   0   19.74    1.71
  -6 -12   0    4.27    0.86
  -6 -12   0    6.39    0.77
   6  12   0    3.38    0.90
   6  12   0    4.45    0.92
   7 -12   0    0.75    0.51
   7 -12   0    0.53    0.48
  -7 -12   0    1.15    0.44
  -7 -12   0    1.46    0.66
   7  12   0    0.88    0.78
   7  12   0    0.94    0.74
  -8 -12   0    8.34    1.19
  -8 -12   0    9.03    1.03
   8  12   0    8.39    1.30
   8  12   0    8.28    1.36
   9 -12   0   24.17    2.20
   9  12   0   22.27    2.24
  10  12   0    4.29    0.99
  11  12   0    4.81    1.06
  12 -12   0    0.16    0.85
  12  12   0   -0.04    0.87
  13  12   0    4.56    1.10
  14  12   0    0.26    0.92
   0 -13   0    0.54    0.52
   0 -13   0    0.13    0.55
   0  13   0   -0.06    0.61
   0  13   0    0.31    0.62
   1 -13   0  279.75   25.37
   1 -13   0  311.95   25.37
  -1 -13   0  372.27   25.40
  -1 -13   0  351.60   25.41
  -1  13   0  302.61   25.37
  -1  13   0  307.51   25.36
   1  13   0  346.61   25.39
   2 -13   0    6.61    0.97
   2 -13   0    5.72    0.95
  -2  13   0    6.59    0.94
  -2  13   0    4.91    0.82
   3 -13   0  127.86   10.37
  -3 -13   0  124.33    9.98
  -3 -13   0  121.90   10.40
   3 -13   0  147.37   10.39
  -3 -13   0  132.74   10.41
   3  13   0  129.65   10.43
  -3  13   0  137.71   10.37
  -3  13   0  139.67   10.38
   3  13   0  120.93   10.39
   4 -13   0   78.30    6.29
   4 -13   0   74.62    6.30
  -4 -13   0   85.60    6.38
  -4 -13   0   80.62    6.06
   4  13   0   76.74    6.35
  -4  13   0   76.54    6.29
   4  13   0   84.05    6.38
  -4  13   0   75.18    6.27
   5 -13   0  133.88   11.34
  -5 -13   0  156.49   10.96
   5 -13   0  132.81   11.35
  -5  13   0  134.28   11.31
   5  13   0  170.88   11.46
   5  13   0  154.74   11.42
  -5  13   0  127.89   11.32
   6 -13   0   40.43    3.47
   6 -13   0   39.25    3.46
  -6 -13   0   48.36    3.35
   6  13   0   46.13    3.57
   6  13   0   51.23    3.65
  -6  13   0   36.54    3.38
  -6  13   0   35.58    3.39
  -7 -13   0   14.12    1.41
  -7 -13   0   13.23    1.58
   7 -13   0   17.73    1.48
   7 -13   0   16.66    1.48
   7  13   0   13.91    1.70
   7  13   0   13.22    1.65
  -8 -13   0    9.85    1.10
  -8 -13   0    9.79    1.29
   8  13   0   10.42    1.47
   8  13   0   10.07    1.41
   9 -13   0    0.42    0.49
   9  13   0    0.80    0.80
  10 -13   0    7.49    1.24
  10  13   0   10.56    1.42
  11 -13   0    4.20    1.04
  12  13   0    4.95    1.17
  13  13   0   12.10    1.68
   0 -14   0  109.61    9.22
   0 -14   0  119.09    9.22
   0  14   0  116.83    9.23
   0  14   0  119.14    9.24
   1 -14   0   21.70    1.91
   1 -14   0   19.33    1.88
  -1 -14   0   19.86    1.91
  -1 -14   0   21.25    1.94
   1  14   0   21.47    1.99
  -1  14   0   19.71    1.93
  -1  14   0   19.02    1.89
   1  14   0   19.60    1.94
  -2 -14   0   46.34    4.05
   2 -14   0   47.35    4.03
   2 -14   0   52.71    4.06
  -2 -14   0   50.18    4.09
  -2  14   0   48.03    4.05
   2  14   0   46.97    4.07
   2  14   0   51.24    4.12
  -2  14   0   50.13    4.04
  -3 -14   0   19.89    1.74
   3 -14   0   22.38    1.91
  -3 -14   0   20.33    1.96
   3 -14   0   19.76    1.88
   3  14   0   20.70    2.02
   3  14   0   18.73    1.94
  -3  14   0   20.51    1.92
  -4 -14   0   22.59    2.11
  -4 -14   0   24.07    2.34
   4 -14   0   29.11    2.29
   4 -14   0   27.44    2.28
  -4  14   0   26.73    2.23
   4  14   0   24.48    2.34
   4  14   0   24.17    2.38
   5 -14   0   54.03    4.46
  -5 -14   0   58.83    4.54
  -5 -14   0   54.45    4.26
   5 -14   0   53.55    4.44
   5  14   0   59.81    4.58
  -5  14   0   49.84    4.41
   5  14   0   52.46    4.52
  -6 -14   0   18.48    1.78
   6 -14   0   22.90    1.93
   6 -14   0   24.23    1.93
  -6 -14   0   19.58    2.02
   6  14   0   17.66    2.01
   6  14   0   20.88    2.15
  -7 -14   0   32.76    2.69
   7 -14   0   26.11    2.56
  -7 -14   0   30.78    2.46
   7 -14   0   25.15    2.53
   7  14   0   31.21    2.73
   7  14   0   34.31    2.79
  -8 -14   0    2.68    0.76
   8  14   0    2.28    0.91
   8  14   0    2.52    0.91
   9 -14   0   10.45    1.18
   9  14   0   11.59    1.50
  10 -14   0    0.35    0.80
  10  14   0    2.10    0.96
  11 -14   0    6.09    1.10
  11  14   0    4.32    1.13
  12  14   0    0.82    0.97
  13  14   0    0.64    0.94
   0 -15   0   12.07    1.35
   0 -15   0   10.78    1.32
   0  15   0   11.03    1.38
  -1 -15   0  101.02    7.93
   1 -15   0   99.66    7.91
  -1 -15   0  109.45    7.95
   1 -15   0   86.50    7.90
   1  15   0  104.21    7.95
  -1  15   0   94.74    7.90
  -2 -15   0    5.35    0.89
   2  15   0    6.15    0.99
   2  15   0    5.32    0.95
  -3 -15   0   24.12    2.00
  -3 -15   0   23.80    2.21
   3  15   0   23.80    2.28
   3  15   0   22.66    2.22
  -4 -15   0    4.13    0.88
  -4 -15   0    5.96    0.81
   4  15   0    3.30    0.91
   4  15   0    4.63    0.98
  -5 -15   0   24.86    2.38
  -5 -15   0   26.03    2.16
   5  15   0   24.10    2.39
   5  15   0   27.34    2.47
   6 -15   0   45.35    4.15
   6 -15   0   45.43    4.14
  -6 -15   0   56.79    4.29
  -6 -15   0   49.90    3.98
   6  15   0   56.55    4.32
   6  15   0   51.35    4.27
  -7 -15   0   15.29    1.70
   7  15   0   15.14    1.77
   7  15   0   17.13    1.87
  -8 -15   0   10.92    1.33
   8 -15   0    7.80    1.16
   8  15   0    9.98    1.46
   8  15   0   11.67    1.60
   9 -15   0    7.90    1.00
   9  15   0    4.43    1.14
  10 -15   0   25.71    2.57
  10  15   0   29.41    2.65
  11 -15   0   -0.26    0.80
  11  15   0    0.38    0.93
  12  15   0   20.66    2.26
   0 -16   0   13.08    1.50
   0 -16   0   15.64    1.57
   0  16   0   13.70    1.57
  -1 -16   0   14.86    1.57
  -1 -16   0   14.09    1.56
   1  16   0   13.77    1.63
   2 -16   0    0.35    0.61
   2 -16   0    0.24    0.58
  -2 -16   0    1.16    0.70
   2  16   0    0.99    0.80
  -2  16   0    0.96    0.70
   3 -16   0    3.52    0.81
  -3 -16   0    5.15    0.68
   3 -16   0    3.29    0.77
  -3 -16   0    5.92    0.94
   3  16   0    6.16    1.03
  -3  16   0    3.53    0.83
  -4 -16   0   33.31    3.13
  -4 -16   0   37.93    2.90
   4  16   0   35.31    3.17
  -5 -16   0    3.20    0.61
  -5 -16   0    3.68    0.86
   5  16   0    4.03    0.97
   6 -16   0    8.86    1.14
  -6 -16   0    7.39    1.01
  -6 -16   0    8.04    1.27
   6 -16   0    8.56    1.12
  -6  16   0    7.25    1.01
   6  16   0    7.75    1.24
  -7 -16   0    0.76    0.73
  -7 -16   0    0.64    0.47
   7 -16   0    1.55    0.65
   7 -16   0    2.16    0.67
   7  16   0    1.04    0.91
  -8 -16   0   11.84    1.47
   8  16   0   11.22    1.56
   9 -16   0    2.46    0.69
   9  16   0    0.82    0.90
  10 -16   0    0.20    0.77
  10  16   0    0.68    0.92
  11  16   0    1.27    0.98
  12  16   0   -0.32    1.00
   0 -17   0    0.25    0.63
   0 -17   0   -0.05    0.64
   0  17   0   -0.77    0.74
  -1 -17   0   31.23    2.58
   1 -17   0   29.59    2.55
   1 -17   0   24.90    2.52
  -1  17   0   25.96    2.55
   1  17   0   29.60    2.60
   2 -17   0   24.97    2.35
   2 -17   0   22.13    2.29
  -2 -17   0   26.61    2.36
   2  17   0   28.24    2.43
  -2  17   0   24.36    2.37
  -3 -17   0   41.49    3.58
  -3 -17   0   42.52    3.33
   3  17   0   39.76    3.58
   4 -17   0   23.44    2.22
   4 -17   0   24.11    2.23
  -4  17   0   23.29    2.19
   5 -17   0    1.07    0.66
  -5 -17   0    0.39    0.49
   5 -17   0   -0.22    0.63
  -5 -17   0    1.10    0.76
   5  17   0    0.35    0.86
  -5  17   0    0.29    0.62
   6 -17   0   29.64    2.54
   6 -17   0   26.99    2.51
  -7 -17   0   25.39    2.38
   7 -17   0   24.93    2.27
   7  17   0   24.54    2.44
  -8 -17   0   12.18    1.52
   8  17   0   11.42    1.64
   9 -17   0    6.86    1.11
  10 -17   0    0.16    0.77
  10 -17   0    0.35    0.61
  10  17   0    0.64    0.94
  11  17   0    0.69    1.02
   0 -18   0   12.22    1.47
   0  18   0   12.31    1.54
   1 -18   0    4.77    0.87
   1 -18   0    4.25    0.89
  -1  18   0    4.33    0.97
   2 -18   0   59.67    5.29
  -2 -18   0   75.62    5.37
   2 -18   0   53.72    5.27
   2  18   0   74.12    5.38
  -2  18   0   61.16    5.31
   3 -18   0    8.54    1.21
  -3 -18   0    5.47    0.83
   3 -18   0    8.63    1.17
  -3 -18   0    6.18    1.10
  -3  18   0    9.34    1.26
   3  18   0    5.43    1.18
  -4 -18   0    4.50    0.69
  -4 -18   0    5.55    0.96
   4 -18   0    2.41    0.82
   4  18   0    4.96    1.10
  -5 -18   0    0.68    0.53
   5 -18   0    1.77    0.72
  -5 -18   0    0.71    0.78
   5 -18   0    2.34    0.74
  -5  18   0    1.72    0.69
   5  18   0    0.21    0.92
  -6 -18   0    3.66    0.64
  -6 -18   0    3.72    0.91
   6  18   0    3.29    1.05
  -7 -18   0    4.96    1.02
   7  18   0    6.49    1.19
  -8 -18   0   25.10    2.44
   8 -18   0   24.00    2.32
   8  18   0   27.20    2.53
   9 -18   0    0.38    0.70
   9  18   0    1.40    0.94
  10 -18   0    0.39    0.63
  10  18   0    1.02    0.98
  11  18   0    0.32    1.05
   0 -19   0    3.87    0.89
   0  19   0    4.07    1.01
   1 -19   0   14.13    1.58
  -1 -19   0   13.38    1.60
   1  19   0   13.97    1.71
  -1  19   0   14.31    1.67
   2 -19   0   33.27    3.02
   2 -19   0   35.34    3.04
  -2  19   0   33.99    3.09
  -3 -19   0   22.06    2.23
  -3 -19   0   23.99    2.04
   3  19   0   22.51    2.31
   4 -19   0    8.90    1.33
   4 -19   0    8.20    1.22
  -4  19   0    8.66    1.32
   5 -19   0   11.97    1.41
   5 -19   0   10.19    1.47
  -5  19   0   10.01    1.40
  -6 -19   0   31.63    3.02
   6 -19   0   36.13    2.96
   6  19   0   33.24    3.11
  -7 -19   0   11.59    1.52
   7  19   0    9.94    1.61
   8 -19   0    5.15    0.95
   8  19   0    5.43    1.21
   9 -19   0    1.58    0.75
   9  19   0    0.51    0.95
  10 -19   0    7.08    1.09
  10  19   0    7.76    1.43
   0 -20   0   31.82    2.86
   0  20   0   31.20    2.91
   1 -20   0    0.80    0.78
  -1 -20   0    5.39    0.96
   1  20   0    5.30    1.07
  -1  20   0    0.59    0.91
   2 -20   0    4.75    0.96
  -2  20   0    5.61    1.08
   3 -20   0   -0.17    0.69
   3 -20   0    0.04    0.69
  -3 -20   0    0.97    0.55
  -3 -20   0    1.27    0.79
  -3  20   0   -0.14    0.79
   3  20   0    1.67    1.00
   4 -20   0    0.56    0.70
  -4 -20   0    0.53    0.77
   4 -20   0    1.07    0.75
  -4 -20   0   -0.21    0.50
  -4  20   0   -0.11    0.76
   4  20   0   -0.40    0.84
  -5 -20   0    2.92    0.67
  -5 -20   0    3.85    0.95
   5  20   0    2.78    1.10
  -6 -20   0    1.16    0.82
   6  20   0    1.36    1.05
  -7 -20   0    5.13    1.08
   7  20   0    5.11    1.22
   8 -20   0    4.17    0.93
   8  20   0    4.13    1.21
   9 -20   0    0.72    0.76
   9  20   0    1.98    1.06
  10 -20   0    3.82    0.83
  10  20   0    5.44    1.33
   0 -21   0   -0.02    0.74
   0  21   0    0.48    0.94
   1 -21   0    7.17    1.17
  -1 -21   0    9.24    1.27
  -1  21   0    6.50    1.27
   1  21   0    9.71    1.50
  -2 -21   0   33.72    2.77
   2 -21   0   24.00    2.66
   2  21   0   34.37    2.84
  -2  21   0   27.22    2.76
  -3 -21   0   11.87    1.47
   3 -21   0    9.26    1.36
   3  21   0   11.80    1.57
  -3  21   0    9.44    1.47
  -4 -21   0   50.07    3.76
   4 -21   0   34.74    3.60
  -4 -21   0   44.73    3.44
  -4  21   0   36.58    3.61
   4  21   0   45.42    3.75
   5 -21   0   17.44    1.85
  -5 -21   0   19.55    1.98
   5  21   0   17.38    2.07
  -6 -21   0   18.65    2.01
   6  21   0   17.70    2.09
  -7 -21   0    3.71    1.03
   7 -21   0    2.89    0.86
   7  21   0    3.82    1.18
   8 -21   0   20.90    2.20
   8  21   0   25.38    2.47
   9 -21   0    3.25    0.90
   9  21   0    0.66    1.03
  10 -21   0    2.99    0.83
   0 -22   0   -0.03    0.76
   0  22   0   -0.61    0.94
  -1 -22   0    2.52    0.85
   1 -22   0    0.91    0.80
   1  22   0    1.47    0.93
  -1  22   0    1.44    1.03
   2 -22   0    2.74    0.87
  -2 -22   0    3.50    0.94
   2  22   0    3.87    1.15
  -2  22   0    2.25    1.00
  -3 -22   0    0.74    0.83
   3 -22   0   -0.07    0.75
  -3  22   0   -0.42    0.83
   3  22   0    0.67    0.92
   4 -22   0    0.64    0.78
  -4 -22   0    0.49    0.80
   4  22   0    0.34    0.94
   5 -22   0    4.96    0.95
  -5 -22   0    3.94    1.01
   5  22   0    3.62    1.22
   6 -22   0    0.56    0.76
  -6 -22   0   -0.15    0.83
   6  22   0   -0.13    0.96
  -7 -22   0    0.42    0.88
   7 -22   0    2.01    0.84
   7  22   0    1.14    1.01
   8 -22   0    0.56    0.81
   8  22   0    0.10    1.01
   9 -22   0    0.33    0.82
   9  22   0    0.60    1.05
  10 -22   0    0.38    0.81
   0 -23   0    0.69    0.83
   0  23   0    1.17    0.95
   1 -23   0   18.21    1.81
  -1 -23   0   14.28    1.77
   1  23   0   13.61    1.93
   2 -23   0    2.94    0.93
  -2 -23   0    5.21    1.06
   2  23   0    4.97    1.23
  -2  23   0    3.14    1.04
   3 -23   0   30.03    2.83
  -3  23   0   30.70    2.84
  -4 -23   0    1.05    0.87
   4  23   0    0.96    0.98
  -6 -23   0    0.42    0.89
   6 -23   0   -0.57    0.79
   6  23   0    0.12    1.01
   7 -23   0    0.53    0.81
  -7 -23   0    0.49    0.91
   7  23   0   -0.51    0.98
   8 -23   0   17.49    2.02
   8  23   0   20.78    2.32
   9 -23   0    2.55    0.94
  10 -23   0   25.31    2.47
   0 -24   0   -0.08    0.83
   0  24   0   -0.32    0.95
   1 -24   0    0.20    0.81
  -1 -24   0   -0.52    0.79
  -1  24   0    0.17    0.91
   1  24   0    0.00    0.97
   2 -24   0    5.86    1.16
  -2 -24   0    7.40    1.26
   2  24   0    8.00    1.42
  -3 -24   0    0.10    0.81
   3 -24   0    0.80    0.81
   3  24   0    0.68    0.99
  -4 -24   0    4.10    1.06
   4  24   0    4.31    1.28
   5 -24   0   -0.05    0.80
  -5 -24   0    1.84    0.99
   5  24   0    1.55    1.05
  -6 -24   0    6.89    1.30
   6 -24   0    5.71    1.15
   6  24   0    7.55    1.47
   7 -24   0    0.36    0.87
   7  24   0    1.67    1.10
   8 -24   0    0.17    0.87
   8  24   0    0.37    1.09
   9 -24   0    0.77    0.90
   0 -25   0    1.41    0.92
   0  25   0    1.14    1.04
  -1 -25   0    5.54    1.12
   1 -25   0    4.35    1.08
   1  25   0    6.04    1.43
  -1  25   0    5.50    1.26
  -2 -25   0   28.33    2.82
   2  25   0   31.10    3.02
  -3 -25   0    6.76    1.28
   3 -25   0   10.29    1.36
   3  25   0    7.92    1.52
  -4 -25   0   42.26    3.91
   4  25   0   45.80    4.03
   5 -25   0    7.84    1.21
  -5 -25   0    4.77    1.19
   5  25   0    5.27    1.43
   6 -25   0   12.08    1.78
  -6 -25   0   19.03    2.02
   6  25   0   17.00    2.16
   7 -25   0    5.71    1.11
   7  25   0    1.22    1.20
   8 -25   0    3.93    1.04
   0 -26   0    1.01    0.88
   0  26   0    2.56    1.25
  -1 -26   0    3.33    0.99
   1 -26   0    0.66    0.84
   1  26   0    3.75    1.38
  -1  26   0    0.84    1.00
   2 -26   0    5.89    1.09
  -2 -26   0    4.32    1.09
   2  26   0    5.41    1.47
  -3 -26   0    2.35    1.02
   3 -26   0    0.99    0.85
   3  26   0    4.94    1.43
   4 -26   0   11.84    1.50
  -4 -26   0    7.91    1.44
   4  26   0    8.58    1.71
   5 -26   0    6.77    1.18
  -5 -26   0    2.79    1.14
   5  26   0    4.23    1.49
  -6 -26   0    8.50    1.42
   6 -26   0    6.19    1.21
   6  26   0    7.90    1.67
   7 -26   0   -0.15    0.90
   0 -27   0    2.28    0.94
   0  27   0    2.21    1.26
  -1 -27   0    3.40    1.07
   1 -27   0    6.63    1.18
   1  27   0    3.79    1.43
   2 -27   0    2.61    0.98
  -2 -27   0    1.96    0.98
   2  27   0    0.93    1.15
  -3 -27   0    7.51    1.36
   3  27   0    6.86    1.65
   4 -27   0    0.46    0.89
  -4 -27   0    0.16    0.97
   4  27   0    1.40    1.21
  -5 -27   0    0.47    1.03
   5 -27   0    3.44    1.03
   5  27   0    0.44    1.18
   0 -28   0    8.26    1.39
   0  28   0    8.99    1.62
  -1 -28   0    0.34    0.92
   1 -28   0   -0.47    0.89
   1  28   0    0.22    1.05
  -2 -28   0    5.95    1.27
   2 -28   0    4.84    1.19
   2  28   0    7.12    1.58
  -3 -28   0    2.05    1.08
   3 -28   0    1.37    0.97
   3  28   0    1.53    1.24
   4 -28   0    4.48    1.10
  -4 -28   0    1.11    1.06
   4  28   0    0.89    1.21
  -5 -28   0    0.63    1.02
   5  28   0    0.29    1.21
   0 -29   0    0.61    0.97
  -1 -29   0    2.47    1.10
   1 -29   0    2.81    1.09
   1  29   0    4.29    1.48
  -2 -29   0    2.57    1.12
   2  29   0    3.56    1.47
  -3 -29   0    3.59    1.21
   3  29   0    3.80    1.50
  -4 -29   0    1.52    1.09
   4  29   0    0.38    1.21
  -5 -29   0    1.43    1.10
   2  30   0    3.28    1.51
  -3 -30   0    1.98    1.15
   3  30   0    2.63    1.48
  13   0  -1    0.29    0.75
  12   0  -1    1.54    0.78
  11   0  -1    0.43    0.69
  10   0  -1    0.82    0.65
   9   0  -1    2.88    0.70
   8   0  -1   -0.09    0.52
   7   0  -1    2.17    0.40
   7   0  -1    2.18    0.54
   7   0  -1    1.87    0.41
   6   0  -1   -0.09    0.33
   6   0  -1   -0.77    0.41
   6   0  -1    0.22    0.33
   5   0  -1    4.16    0.57
   5   0  -1    4.60    0.60
   5   0  -1    3.63    0.57
   4   0  -1    0.05    0.37
   4   0  -1   -0.26    0.28
   4   0  -1   -0.33    0.27
  -4   0   1   -0.22    0.35
   3   0  -1   10.83    1.01
  -3   0   1    9.78    0.98
   3   0  -1   10.15    0.92
   3   0  -1   10.28    0.94
   2   0  -1    0.03    0.24
   2   0  -1    0.00    0.23
   2   0  -1    0.16    0.27
  -2   0   1    0.43    0.29
  -2   0   1   -0.17    0.17
  -1   0   1   -0.72    0.17
   1   0  -1   -0.65    0.16
   1   0  -1   -0.59    0.17
  -1   0   1   -0.71    0.15
   0   0   1   -0.31    0.10
   0   0  -1   -0.41    0.07
   0   0  -1   -0.72    0.11
   0   0   1   -0.72    0.09
  -1   0  -1   -0.24    0.15
   1   0   1   -0.34    0.15
  -2   0  -1   -0.33    0.17
   2   0   1   -0.24    0.20
   3   0   1   -0.20    0.23
   3   0   1   -0.04    0.23
   4   0   1   12.59    1.09
   4   0   1   13.13    1.14
   4   0   1   13.15    1.10
   5   0   1    0.15    0.35
   6   0   1    0.34    0.40
   7   0   1    0.15    0.46
   8   0   1   -0.05    0.51
   9   0   1    1.70    0.62
  10   0   1   -0.85    0.58
  11   0   1   -0.95    0.59
  12   0   1   -0.15    0.72
  13   0   1   -0.80    0.69
  14  -1  -1    0.72    0.81
  13  -1  -1    6.68    1.12
  13   1  -1    5.95    1.06
  12  -1  -1    4.43    0.97
  12   1  -1    6.11    0.96
  11  -1  -1   13.04    1.52
  11   1  -1   14.59    1.49
  10  -1  -1   10.10    1.21
  10   1  -1    8.86    1.19
   9  -1  -1    2.86    0.74
   9   1  -1    4.55    0.78
   9   1  -1    4.30    0.61
   9   1  -1    4.48    0.60
   8   1  -1   57.54    4.73
   8   1  -1   60.95    4.69
   8   1  -1   60.39    4.74
   7  -1  -1    4.00    0.70
   7   1  -1    4.18    0.57
   7   1  -1    4.79    0.68
   7   1  -1    4.60    0.70
   6  -1  -1  312.49   24.38
   6   1  -1  327.59   24.38
   6   1  -1  319.74   25.15
   6   1  -1  331.42   25.16
   5  -1  -1   12.87    1.11
  -5  -1   1   10.82    1.09
   5   1  -1   10.08    1.01
   5   1  -1   10.50    1.02
   5   1  -1   10.32    1.06
   4  -1  -1  225.83   16.81
  -4  -1   1  204.08   16.81
  -4  -1   1  214.46   16.30
   4  -1  -1  231.45   16.32
   4  -1  -1  218.62   16.81
   4   1  -1  210.95   16.83
   4   1  -1  212.82   16.30
   4   1  -1  208.63   16.82
   3  -1  -1   59.56    4.80
  -3  -1   1   63.66    4.70
  -3  -1   1   61.87    4.81
   3  -1  -1   60.04    4.70
   3   1  -1   62.05    4.82
   3   1  -1   62.33    4.70
   3   1  -1   63.27    4.82
  -3   1   1   57.41    4.69
  -2  -1   1  652.58   53.12
   2  -1  -1  720.59   53.12
  -2  -1   1  654.78   53.12
   2  -1  -1  723.75   51.53
  -2  -1   1  648.32   51.43
   2   1  -1  673.53   53.15
   2   1  -1  684.86   51.47
  -2   1   1  698.26   51.47
  -1  -1   1   44.04    3.49
   1  -1  -1   45.62    3.38
   1  -1  -1   46.45    3.49
  -1  -1   1   43.36    3.38
  -1  -1   1   42.67    3.49
   1   1  -1   44.66    3.49
   1   1  -1   45.18    3.38
   1   1  -1   45.76    3.50
  -1   1   1   44.43    3.48
  -1   1   1   42.44    3.38
  -1  -1  -1  146.98   11.77
   1  -1   1  163.56   11.77
   1  -1   1  158.17   11.79
  -1   1  -1  140.14   11.76
   1   1   1  138.64   11.77
   1   1   1  149.19   11.77
  -1   1  -1  159.14   11.81
  -2  -1  -1  426.00   33.83
   2  -1   1  439.36   33.83
   2   1   1  429.25   33.84
   2   1   1  434.69   33.87
   2   1   1  442.22   32.70
  -3  -1  -1  118.96    9.32
   3   1   1  119.21    9.32
   3   1   1  119.77    9.32
   3   1   1  119.06    9.02
  -4  -1  -1   58.15    4.83
   4   1   1   64.46    4.72
   4   1   1   61.56    4.85
   4   1   1   62.29    4.85
   5  -1   1  190.36   15.62
   5   1   1  214.48   16.12
   5   1   1  210.28   15.61
   5   1   1  211.39   16.12
   6   1   1    9.97    0.95
   6   1   1    9.93    0.94
   6   1   1    9.05    0.98
   7  -1   1  123.39    9.39
   7   1   1  118.88    9.37
   7   1   1  125.99    9.63
   7   1   1  123.50    9.62
   8  -1   1   15.72    1.57
   8   1   1   18.15    1.48
   8   1   1   17.85    1.49
   8   1   1   15.99    1.54
   9  -1   1   30.39    2.38
   9   1   1   25.03    2.32
  10  -1   1   15.28    1.47
  10   1   1   12.54    1.42
  11  -1   1    3.91    0.83
  11   1   1    3.46    0.79
  12  -1   1   43.25    3.57
  12   1   1   42.94    3.54
  13  -1   1    2.50    0.87
  14  -2  -1    0.00    0.81
  13  -2  -1    2.28    0.91
  13   2  -1   -0.21    0.73
  12  -2  -1    0.13    0.76
  12   2  -1    1.01    0.74
  11  -2  -1    3.41    0.85
  11   2  -1    4.47    0.83
  11   2  -1    4.58    0.64
  10  -2  -1    2.40    0.69
  10   2  -1    0.74    0.51
  10   2  -1    0.66    0.60
  10   2  -1    0.72    0.48
   9  -2  -1    3.48    0.74
   9   2  -1    1.83    0.54
   9   2  -1    1.81    0.63
   9   2  -1    1.21    0.52
   8  -2  -1    0.93    0.57
   8   2  -1    0.31    0.47
   8   2  -1    0.31    0.47
   8   2  -1    1.35    0.56
   7   2  -1   47.16    3.66
   7   2  -1   42.39    3.64
   7   2  -1   47.04    3.62
  -6  -2   1    0.88    0.45
   6  -2  -1    1.32    0.48
   6   2  -1    0.02    0.42
   6   2  -1    0.52    0.45
   6   2  -1    0.23    0.41
   5  -2  -1   45.63    4.23
  -5  -2   1   55.61    4.31
  -5  -2   1   56.05    4.24
   5   2  -1   55.94    4.33
   5   2  -1   54.26    4.33
   5   2  -1   59.17    4.24
   4  -2  -1    0.41    0.37
  -4  -2   1    0.40    0.25
  -4  -2   1    0.55    0.30
  -4  -2   1    0.94    0.36
   4   2  -1    0.34    0.34
   4   2  -1    0.42    0.35
   4   2  -1    0.51    0.37
  -3  -2   1   82.32    6.48
   3  -2  -1   81.48    6.30
  -3  -2   1   80.33    6.28
   3  -2  -1   83.66    6.45
  -3  -2   1   82.29    6.48
   3   2  -1   83.64    6.28
   3   2  -1   83.56    6.48
   3   2  -1   81.82    6.48
   2  -2  -1   71.01    6.74
  -2  -2   1   85.23    6.54
  -2  -2   1   87.98    6.76
  -2  -2   1   86.51    6.76
   2   2  -1   90.55    6.77
   2   2  -1   90.99    6.77
   2   2  -1   91.69    6.54
   1  -2  -1  169.27   12.62
  -1  -2   1  157.62   13.03
  -1  -2   1  158.65   13.03
   1  -2  -1  186.90   13.06
  -1  -2   1  162.32   12.59
   1  -2  -1  163.26   13.05
   1   2  -1  161.86   13.03
   1   2  -1  163.32   12.66
   1   2  -1  159.17   13.03
  -1   2   1  182.28   13.03
  -1   2   1  170.09   13.04
   0  -2   1   11.84    1.05
   0  -2   1   12.96    1.05
   0  -2  -1   13.32    1.05
   0  -2  -1   14.00    1.06
   0   2  -1   11.93    1.05
   0   2   1   13.01    1.05
   0   2  -1   11.81    1.05
   0   2   1   13.11    1.05
   1  -2   1   99.50    7.79
  -1  -2  -1  102.49    7.80
  -1  -2  -1   97.81    7.80
   1  -2   1  100.87    7.79
   1   2   1   94.46    7.79
  -1   2  -1   98.63    7.79
   1   2   1  103.92    7.80
  -1   2  -1   96.82    7.79
  -2  -2  -1   14.53    1.29
  -2  -2  -1   15.37    1.28
   2   2   1   14.90    1.28
   2   2   1   15.15    1.29
  -3  -2  -1   38.92    3.21
  -3  -2  -1   41.98    3.22
   3   2   1   40.99    3.22
   3   2   1   40.64    3.10
   3   2   1   39.74    3.23
  -4  -2  -1    9.27    0.88
   4   2   1   10.12    0.94
   4   2   1    9.14    0.92
   4   2   1    9.54    0.88
  -5  -2  -1    7.06    0.69
   5   2   1    7.56    0.80
   5   2   1    6.81    0.76
   5   2   1    5.42    0.75
   6  -2   1    1.24    0.45
   6   2   1    0.43    0.38
   6   2   1    0.97    0.39
   6   2   1    0.90    0.39
   7  -2   1    3.51    0.66
   7   2   1    6.16    0.76
   7   2   1    5.49    0.73
   7   2   1    4.68    0.66
   8  -2   1    0.70    0.52
   8   2   1    0.30    0.48
   8   2   1   -0.02    0.44
   8   2   1    0.94    0.46
   9  -2   1    0.83    0.61
   9   2   1   -0.14    0.54
   9   2   1    0.72    0.47
   9   2   1    0.37    0.46
  10  -2   1    1.22    0.66
  10   2   1    0.09    0.48
  10   2   1    0.46    0.60
  11  -2   1    8.41    1.23
  11   2   1   10.07    1.15
  12  -2   1    0.13    0.74
  12   2   1    1.14    0.66
  13  -2   1    1.89    0.86
  14  -3  -1    2.62    1.00
  13  -3  -1   23.20    2.38
  13   3  -1   26.67    2.33
  12  -3  -1    7.06    1.11
  12   3  -1    6.95    1.04
  11  -3  -1    0.58    0.69
  11   3  -1   -0.80    0.60
  11   3  -1   -0.27    0.56
  10  -3  -1   -0.05    0.66
  10   3  -1    0.28    0.52
  10   3  -1    0.31    0.59
  10   3  -1    0.09    0.54
   9  -3  -1   23.75    2.15
   9   3  -1   23.21    2.07
   9   3  -1   22.51    2.07
   9   3  -1   25.74    2.08
   8  -3  -1  102.33    8.63
   8   3  -1  116.95    8.84
   8   3  -1  119.51    8.84
   8   3  -1  109.31    8.59
  -7  -3   1    1.83    0.50
  -7  -3   1    0.86    0.34
   7  -3  -1    0.82    0.53
   7   3  -1    0.98    0.47
   7   3  -1    0.65    0.47
   7   3  -1    0.88    0.46
  -6  -3   1  169.03   12.83
  -6  -3   1  168.13   13.21
   6  -3  -1  180.64   12.87
   6   3  -1  161.88   13.23
   6   3  -1  161.25   12.82
   6   3  -1  174.54   13.24
  -5  -3   1   21.97    1.91
  -5  -3   1   24.45    1.94
  -5  -3   1   22.59    1.93
   5   3  -1   23.48    1.96
   5   3  -1   23.55    1.91
   5   3  -1   23.42    1.95
   4  -3  -1  330.71   25.66
   4  -3  -1  334.94   24.83
  -4  -3   1  329.66   24.80
  -4  -3   1  334.62   25.64
  -4  -3   1  314.85   25.64
   4   3  -1  314.10   24.79
   4   3  -1  345.25   25.66
  -3  -3   1   11.45    1.03
  -3  -3   1   11.32    1.07
  -3  -3   1   11.12    1.07
   3   3  -1   12.20    1.03
   3   3  -1   10.89    1.07
   3   3  -1   11.75    1.12
  -2  -3   1    0.74    0.37
   2  -3  -1    1.61    0.31
   2  -3  -1    1.71    0.31
  -2  -3   1    0.57    0.37
  -2  -3   1    1.08    0.30
  -2   3   1    1.10    0.26
   2   3  -1    1.07    0.43
   2   3  -1    0.66    0.37
  -2   3   1    1.39    0.30
   2   3  -1    1.37    0.31
  -1  -3   1  333.39   27.60
   1  -3  -1  385.14   27.69
  -1  -3   1  338.69   27.64
   1  -3  -1  368.50   27.67
  -1  -3   1  334.39   26.76
  -1   3   1  358.03   27.64
  -1   3   1  379.55   27.66
   1   3  -1  338.83   27.62
   1   3  -1  351.86   26.78
   1   3  -1  358.42   27.62
   0  -3  -1    1.51    0.26
   0  -3  -1    1.85    0.27
   0   3   1    1.48    0.28
   0   3   1    1.47    0.27
   0   3  -1    0.87    0.27
  -1  -3  -1  817.39   61.64
   1  -3   1  787.69   61.57
   1  -3   1  751.36   61.57
  -1  -3  -1  819.38   61.66
   1   3   1  837.23   61.63
  -1   3  -1  761.77   61.57
  -1   3  -1  755.42   61.56
   1   3   1  794.32   61.61
  -2  -3  -1   94.10    7.41
  -2  -3  -1   96.67    7.41
   2   3   1   91.48    7.41
   2   3   1   95.93    7.42
  -3  -3  -1   81.30    6.11
  -3  -3  -1   78.69    6.35
  -3  -3  -1   81.52    6.35
   3   3   1   82.98    6.36
   3   3   1   80.68    6.35
   3   3   1   78.27    6.10
  -4  -3  -1   45.20    3.36
  -4  -3  -1   44.29    3.50
  -4  -3  -1   43.49    3.49
   4   3   1   41.91    3.36
   4   3   1   44.64    3.51
   4   3   1   43.18    3.51
  -5  -3  -1  150.64   11.84
   5   3   1  155.05   11.86
   5   3   1  148.32   11.85
   5   3   1  152.00   11.45
  -6  -3  -1    4.92    0.64
   6   3   1    4.80    0.74
   6   3   1    4.84    0.69
   6   3   1    5.40    0.75
   7  -3   1   52.88    3.89
   7   3   1   45.10    3.93
   7   3   1   48.08    3.82
   7   3   1   50.56    3.94
   8  -3   1    0.97    0.56
   8   3   1    2.46    0.57
   8   3   1    1.92    0.55
   8   3   1    2.50    0.56
   9   3   1   15.63    1.54
   9   3   1   17.90    1.57
   9   3   1   17.24    1.56
  10  -3   1    5.15    0.84
  10   3   1    3.57    0.68
  10   3   1    3.58    0.68
  10   3   1    2.93    0.69
  11  -3   1   31.83    2.48
  11   3   1   27.82    2.35
  11   3   1   23.67    2.34
  12  -3   1    5.79    1.01
  12   3   1    6.27    0.92
  13  -3   1   -0.73    0.74
  14  -4  -1   11.98    1.61
  13  -4  -1    0.64    0.82
  13   4  -1    0.04    0.71
  12  -4  -1    7.48    1.24
  12   4  -1    9.86    1.29
  12   4  -1   11.03    1.21
  11  -4  -1    1.14    0.76
  11   4  -1    2.52    0.68
  11   4  -1    2.92    0.74
  10  -4  -1    1.92    0.73
  10   4  -1    2.44    0.64
  10   4  -1    1.86    0.67
  10   4  -1    2.13    0.61
   9  -4  -1    2.38    0.71
   9   4  -1    0.86    0.56
   9   4  -1    1.57    0.59
   9   4  -1    1.15    0.59
   8  -4  -1    1.08    0.61
  -8  -4   1    1.46    0.37
  -8  -4   1    1.39    0.53
   8   4  -1    0.98    0.53
   8   4  -1    1.27    0.57
   8   4  -1    1.02    0.52
   7  -4  -1    3.87    0.76
  -7  -4   1    6.72    0.87
  -7  -4   1    5.90    0.79
   7   4  -1    7.03    0.82
   7   4  -1    6.06    0.88
   7   4  -1    5.86    0.86
  -6  -4   1   35.58    2.91
  -6  -4   1   34.09    2.94
   6  -4  -1   39.93    2.95
  -6  -4   1   38.93    2.96
   6   4  -1   34.48    2.97
   6   4  -1   36.79    2.99
   6   4  -1   35.31    2.89
  -5  -4   1   23.28    2.00
  -5  -4   1   23.76    2.00
  -5  -4   1   24.76    1.97
   5   4  -1   24.46    1.94
   5   4  -1   22.53    2.00
   5   4  -1   23.58    2.03
  -4  -4   1    1.09    0.38
   4  -4  -1    1.88    0.43
  -4  -4   1    0.90    0.33
  -4  -4   1    0.85    0.37
   4   4  -1    1.11    0.41
   4   4  -1    1.29    0.36
   4   4  -1    0.83    0.45
  -3  -4   1   35.24    2.89
   3  -4  -1   41.65    2.96
   3  -4  -1   41.91    2.96
  -3  -4   1   34.58    3.00
  -3  -4   1   34.93    3.00
   3   4  -1   35.56    2.89
   3   4  -1   35.93    3.02
   3   4  -1   34.33    2.99
  -3   4   1   39.13    2.94
   2  -4  -1    4.75    0.61
  -2  -4   1    2.52    0.51
  -2  -4   1    3.28    0.53
   2  -4  -1    4.84    0.57
   2   4  -1    2.73    0.53
  -2   4   1    4.90    0.59
  -2   4   1    4.86    0.58
   2   4  -1    3.33    0.58
   1  -4  -1   28.88    1.95
  -1  -4   1   21.31    1.96
  -1  -4   1   23.86    1.87
  -1  -4   1   22.41    1.98
   1   4  -1   22.38    1.97
   1   4  -1   23.62    2.00
   0  -4   1   22.45    2.05
   0  -4  -1   27.36    2.05
   0  -4   1   21.43    2.05
   0  -4  -1   29.17    2.07
   0   4   1   29.05    2.07
   0   4  -1   22.29    2.06
   0   4  -1   22.07    2.04
   0   4   1   27.40    2.06
  -1  -4  -1  302.98   25.18
   1  -4   1  344.06   25.17
   1  -4   1  342.60   25.15
  -1  -4  -1  308.44   25.16
  -1   4  -1  317.03   25.15
  -1   4  -1  337.41   25.15
   1   4   1  328.88   25.17
   1   4   1  301.61   25.16
  -2  -4  -1  641.30   48.93
   2  -4   1  648.94   48.86
   2  -4   1  651.39   48.88
  -2  -4  -1  636.17   47.21
  -2  -4  -1  622.49   48.96
  -2   4  -1  556.87   48.86
  -2   4  -1  641.15   48.87
   2   4   1  601.40   48.90
   2   4   1  650.27   48.94
  -3  -4  -1   11.85    1.11
   3  -4   1   11.04    1.04
  -3  -4  -1   12.14    1.14
  -3  -4  -1   12.15    0.99
   3  -4   1   11.47    1.05
   3   4   1   12.42    1.16
   3   4   1   12.49    0.98
   3   4   1   12.68    1.14
  -4  -4  -1   10.99    1.07
  -4  -4  -1   11.43    1.07
  -4  -4  -1   11.30    0.96
   4   4   1   11.46    1.10
   4   4   1   11.59    1.12
   4   4   1   10.83    0.95
  -5  -4  -1    0.28    0.29
  -5  -4  -1   -0.24    0.35
  -5  -4  -1   -0.16    0.36
   5   4   1   -0.15    0.43
   5   4   1    0.12    0.45
   5   4   1   -0.30    0.28
  -6  -4  -1  102.90    7.87
   6   4   1   98.08    7.89
   6   4   1  102.31    7.90
   6   4   1   97.34    7.61
  -7  -4  -1    2.96    0.46
   7   4   1    3.05    0.59
   7   4   1    2.56    0.50
   7   4   1    2.63    0.57
   8  -4   1   42.35    3.57
   8   4   1   44.75    3.61
   8   4   1   48.41    3.63
   8   4   1   42.07    3.49
   9  -4   1    0.76    0.63
   9   4   1    1.47    0.54
   9   4   1    2.39    0.59
   9   4   1    1.99    0.63
  10  -4   1   13.21    1.53
  10   4   1   16.22    1.50
  10   4   1   16.17    1.47
  10   4   1   13.52    1.41
  11  -4   1    0.64    0.70
  11   4   1    1.73    0.60
  11   4   1    0.81    0.59
  12  -4   1   20.03    2.04
  12   4   1   19.60    1.91
  12   4   1   22.85    1.92
  13  -4   1    0.32    0.77
  14  -5  -1    4.71    1.10
  13  -5  -1    0.21    0.80
  13   5  -1   -0.05    0.68
  12  -5  -1   46.99    3.77
  12   5  -1   42.38    3.65
  12   5  -1   44.43    3.69
  11  -5  -1   -0.28    0.71
  11   5  -1    0.46    0.63
  11   5  -1    0.30    0.65
  10  -5  -1   19.29    1.76
  10   5  -1   16.64    1.64
  10   5  -1   16.49    1.63
  10   5  -1   16.54    1.66
   9  -5  -1    1.20    0.65
   9   5  -1    0.47    0.57
   9   5  -1    0.15    0.58
   9   5  -1    0.29    0.55
  -8  -5   1   17.66    1.53
  -8  -5   1   18.14    1.64
  -8  -5   1   16.39    1.55
   8   5  -1   17.10    1.64
   8   5  -1   17.45    1.58
   8   5  -1   18.53    1.66
  -7  -5   1    0.10    0.41
  -7  -5   1    0.31    0.31
  -7  -5   1    0.23    0.40
   7  -5  -1   -0.14    0.50
   7   5  -1   -0.03    0.51
   7   5  -1    0.43    0.51
   7   5  -1    0.70    0.45
  -6  -5   1   30.12    2.47
  -6  -5   1   31.75    2.53
   6  -5  -1   33.21    2.53
  -6  -5   1   28.86    2.51
   6   5  -1   28.91    2.55
   6   5  -1   30.33    2.57
   6   5  -1   29.78    2.45
  -5  -5   1    9.26    1.01
  -5  -5   1    9.78    0.98
   5  -5  -1    8.25    1.03
  -5  -5   1   10.16    1.02
   5  -5  -1    9.23    0.91
   5   5  -1   11.40    0.97
   5   5  -1   10.70    1.07
   5   5  -1    9.26    1.02
  -4  -5   1   24.25    2.00
   4  -5  -1   20.29    1.92
  -4  -5   1   24.12    1.99
  -4  -5   1   26.14    1.93
   4  -5  -1   19.90    1.93
   4   5  -1   24.46    2.01
   4   5  -1   25.32    2.03
   4   5  -1   26.11    1.92
  -3  -5   1   18.31    1.63
  -3  -5   1   19.31    1.55
  -3  -5   1   18.94    1.64
   3   5  -1   19.32    1.54
   3   5  -1   18.18    1.62
   3   5  -1   18.51    1.66
  -2  -5   1   15.86    1.27
  -2  -5   1   15.37    1.38
  -2  -5   1   14.85    1.36
   2   5  -1   15.05    1.39
   2   5  -1   15.42    1.26
   2   5  -1   13.32    1.35
  -1  -5   1    9.63    1.02
   1  -5  -1    9.55    0.99
  -1  -5   1   10.38    1.06
   1  -5  -1   10.53    1.01
  -1  -5   1   10.82    0.93
  -1   5   1   10.07    1.01
  -1   5   1   10.06    1.03
   1   5  -1    8.78    1.00
   1   5  -1   10.37    1.09
   0  -5  -1  172.32   14.01
   0  -5   1  194.24   14.02
   0  -5  -1  170.83   14.01
   0  -5   1  187.07   14.02
   0   5   1  172.11   14.01
   0   5  -1  184.21   14.01
   0   5   1  167.55   14.01
   0   5  -1  186.89   14.02
   1  -5   1  255.48   22.70
  -1  -5  -1  315.72   22.73
  -1  -5  -1  326.46   22.73
  -1   5  -1  257.41   22.70
   1   5   1  321.04   22.73
   1   5   1  311.11   22.72
  -1   5  -1  253.32   22.70
  -2  -5  -1   63.07    4.89
  -2  -5  -1   59.35    4.88
  -2  -5  -1   62.78    4.66
   2   5   1   62.28    4.90
   2   5   1   59.98    4.88
   3  -5   1   31.31    2.17
  -3  -5  -1   25.58    2.22
  -3  -5  -1   24.40    2.21
  -3  -5  -1   24.65    2.06
   3   5   1   27.08    2.06
   3   5   1   24.69    2.24
   3   5   1   24.22    2.21
  -3   5  -1   30.97    2.14
  -4  -5  -1   43.17    3.55
  -4  -5  -1   43.06    3.56
  -4  -5  -1   45.97    3.39
   4   5   1   43.00    3.57
   4   5   1   46.25    3.38
   4   5   1   43.15    3.58
  -5  -5  -1   68.56    5.44
  -5  -5  -1   67.37    5.22
  -5  -5  -1   69.81    5.44
   5   5   1   67.69    5.45
   5   5   1   69.02    5.22
   5   5   1   68.71    5.45
  -6  -5  -1    4.86    0.76
  -6  -5  -1    4.57    0.72
   6   5   1    4.74    0.69
   6   5   1    4.89    0.67
   6   5   1    3.92    0.62
  -7  -5  -1   40.04    3.28
   7   5   1   43.44    3.35
   7   5   1   38.82    3.17
   7   5   1   40.39    3.33
  -8  -5  -1    2.29    0.45
   8  -5   1    1.27    0.61
   8   5   1    2.24    0.62
   8   5   1    1.96    0.51
   8   5   1    2.80    0.63
   9  -5   1    7.95    1.04
   9   5   1    6.06    1.02
   9   5   1    6.67    0.88
   9   5   1    6.32    1.04
  10  -5   1    4.04    0.84
  10   5   1    4.03    0.72
  10   5   1    5.58    0.79
  10   5   1    4.25    0.76
  11  -5   1    2.89    0.79
  11   5   1    2.04    0.69
  11   5   1    0.65    0.57
  12  -5   1   20.14    2.04
  12   5   1   23.21    1.96
  12   5   1   18.58    1.89
  13  -5   1    0.26    0.79
  14  -6  -1    1.49    0.94
  14   6  -1    1.34    0.73
  13  -6  -1    1.76    0.87
  13   6  -1    2.43    0.80
  12  -6  -1    8.24    1.37
  12   6  -1   10.89    1.28
  12   6  -1    9.81    1.24
  11   6  -1   10.85    1.27
  11   6  -1   10.36    1.31
  10  -6  -1   19.92    1.74
  10   6  -1   14.93    1.64
  10   6  -1   16.30    1.57
  10   6  -1   14.92    1.62
  -9  -6   1   24.90    2.03
  -9  -6   1   22.71    1.96
   9  -6  -1   18.95    2.07
   9   6  -1   23.43    2.06
   9   6  -1   23.37    2.07
   9   6  -1   23.18    1.99
  -8  -6   1   42.10    3.30
   8  -6  -1   40.64    3.36
  -8  -6   1   39.17    3.33
   8   6  -1   38.64    3.38
   8   6  -1   42.32    3.28
   8   6  -1   42.77    3.41
  -7  -6   1   13.60    1.43
  -7  -6   1   15.69    1.44
  -7  -6   1   15.40    1.45
   7  -6  -1   15.14    1.50
   7   6  -1   15.85    1.52
   7   6  -1   15.65    1.54
   7   6  -1   17.03    1.42
  -6  -6   1   85.30    6.75
  -6  -6   1   85.84    6.74
  -6  -6   1   86.57    6.54
   6  -6  -1   86.49    6.59
   6   6  -1   83.32    6.52
   6   6  -1   87.45    6.77
   6   6  -1   80.94    6.75
  -5  -6   1   28.70    2.29
  -5  -6   1   28.05    2.38
  -5  -6   1   27.31    2.38
   5   6  -1   28.78    2.42
   5   6  -1   27.66    2.41
   5   6  -1   29.78    2.29
  -4  -6   1   72.66    5.56
   4  -6  -1   77.26    5.72
  -4  -6   1   71.41    5.76
  -4  -6   1   71.31    5.76
   4  -6  -1   73.54    5.71
   4   6  -1   72.89    5.77
  -4   6   1   69.47    5.69
   4   6  -1   72.89    5.55
   4   6  -1   71.01    5.76
  -3  -6   1   38.39    2.96
  -3  -6   1   38.46    3.10
  -3  -6   1   39.56    3.10
   3   6  -1   37.31    3.09
   3   6  -1   36.68    2.95
   2  -6  -1    4.13    0.66
   2  -6  -1    4.23    0.65
  -2  -6   1    5.89    0.76
  -2   6   1    4.01    0.64
  -2   6   1    4.47    0.68
  -1  -6   1   21.13    1.55
  -1  -6   1   19.30    1.52
   1  -6  -1   16.50    1.50
   1  -6  -1   14.27    1.48
  -1   6   1   15.27    1.51
  -1   6   1   14.92    1.50
   1   6  -1   18.35    1.51
   0  -6   1  115.17   10.52
   0  -6  -1  154.69   10.53
   0   6  -1  113.31   10.51
   0   6   1  154.33   10.53
   1  -6   1    2.36    0.48
   1  -6   1    2.29    0.46
  -1  -6  -1    2.70    0.49
  -1  -6  -1    2.79    0.49
  -1   6  -1    2.38    0.48
   1   6   1    2.41    0.49
   1   6   1    2.84    0.53
  -1   6  -1    2.22    0.46
   2  -6   1  155.43   11.78
  -2  -6  -1  151.69   11.35
   2  -6   1  148.93   11.78
  -2  -6  -1  151.66   11.80
  -2  -6  -1  151.25   11.80
  -2   6  -1  148.47   11.77
   2   6   1  155.66   11.81
   2   6   1  147.47   11.80
  -2   6  -1  145.19   11.77
  -3  -6  -1    4.59    0.49
  -3  -6  -1    4.07    0.66
   3  -6   1    3.61    0.62
   3  -6   1    3.80    0.61
  -3  -6  -1    4.40    0.58
   3   6   1    4.93    0.66
   3   6   1    4.76    0.61
  -3   6  -1    3.46    0.59
  -4  -6  -1    0.16    0.41
  -4  -6  -1    0.22    0.40
   4  -6   1    0.81    0.33
   4  -6   1    0.68    0.34
  -4  -6  -1    0.22    0.24
   4   6   1   -0.62    0.46
   4   6   1    0.24    0.50
  -5  -6  -1    2.59    0.39
  -5  -6  -1    1.99    0.50
  -5  -6  -1    2.35    0.51
   5   6   1    2.57    0.58
   5   6   1    1.79    0.56
   5   6   1    3.49    0.49
  -6  -6  -1  132.28    9.89
  -6  -6  -1  122.89    9.89
  -6  -6  -1  123.30    9.53
   6   6   1  125.73    9.52
   6   6   1  127.64    9.91
   6   6   1  122.52    9.90
  -7  -6  -1   -0.12    0.41
  -7  -6  -1    0.20    0.41
   7   6   1   -0.08    0.54
   7   6   1    0.20    0.37
   7   6   1    0.34    0.54
  -8  -6  -1   -0.04    0.42
   8  -6   1    0.82    0.57
   8   6   1    0.10    0.45
   8   6   1   -0.13    0.59
   8   6   1    0.63    0.62
   9  -6   1    0.10    0.59
   9   6   1   -0.64    0.48
   9   6   1    0.26    0.60
   9   6   1   -0.33    0.63
  10  -6   1    4.74    0.86
  10   6   1    3.97    0.79
  10   6   1    4.20    0.80
  10   6   1    2.86    0.66
  11   6   1    6.84    1.08
  11   6   1    6.14    0.93
  12  -6   1    4.31    0.99
  12   6   1    5.84    0.88
  13  -6   1    2.46    0.96
  13   6   1    3.59    0.80
  14  -6   1    1.31    0.88
  14  -7  -1    1.08    0.95
  14   7  -1    2.11    0.79
  13  -7  -1    7.09    1.28
  13   7  -1   10.34    1.35
  12  -7  -1   -0.02    0.79
  12   7  -1    0.52    0.70
  12   7  -1   -0.40    0.70
  11  -7  -1   34.11    3.30
  11   7  -1   39.12    3.18
  11   7  -1   41.94    3.30
  10  -7  -1   14.52    1.58
  10   7  -1   12.70    1.49
  10   7  -1   15.06    1.43
  10   7  -1   13.52    1.50
  -9  -7   1   12.04    1.29
   9  -7  -1   10.23    1.33
   9   7  -1   11.08    1.35
   9   7  -1   11.69    1.23
   9   7  -1   11.83    1.32
  -8  -7   1    6.19    0.90
  -8  -7   1    6.01    0.95
   8  -7  -1    5.88    0.92
   8   7  -1    6.43    0.91
   8   7  -1    6.41    0.91
   8   7  -1    6.98    0.91
  -7  -7   1    0.94    0.49
   7  -7  -1    1.38    0.60
  -7  -7   1    0.90    0.45
  -7  -7   1    0.49    0.48
   7   7  -1    1.47    0.50
   7   7  -1    1.12    0.63
   7   7  -1    1.06    0.59
   6  -7  -1  176.79   15.20
   6  -7  -1  173.53   14.79
  -6  -7   1  198.77   15.27
  -6  -7   1  195.38   14.76
  -6  -7   1  202.13   15.28
   6  -7  -1  193.28   15.20
   6   7  -1  215.25   15.30
   6   7  -1  203.62   14.76
   6   7  -1  195.49   15.28
   5  -7  -1   10.67    1.08
  -5  -7   1   12.71    1.12
  -5  -7   1   12.44    1.21
  -5  -7   1   12.07    1.23
   5  -7  -1    9.86    1.09
   5   7  -1   12.62    1.10
   5   7  -1   12.73    1.27
   5   7  -1   11.80    1.24
   4  -7  -1   42.84    3.14
  -4  -7   1   37.19    3.05
   4  -7  -1   39.79    3.13
  -4  -7   1   37.08    3.20
  -4  -7   1   37.37    3.20
   4   7  -1   39.00    3.06
   4   7  -1   37.63    3.21
  -4   7   1   41.87    3.13
   4   7  -1   37.87    3.21
  -3  -7   1   15.14    1.44
  -3  -7   1   16.29    1.32
  -3  -7   1   14.67    1.41
   3   7  -1   14.43    1.43
   3   7  -1   15.75    1.47
   3   7  -1   15.42    1.30
  -2  -7   1  100.03    7.67
  -2  -7   1   97.82    7.97
  -2  -7   1  103.86    7.97
   2  -7  -1  105.26    7.95
   2  -7  -1  100.65    7.95
   2   7  -1  102.37    7.97
   2   7  -1  106.71    7.99
  -2   7   1   97.80    7.95
  -2   7   1   95.82    7.93
  -1  -7   1   73.79    6.35
   1  -7  -1   83.21    6.34
  -1  -7   1   80.09    6.35
   1  -7  -1   87.19    6.34
   1   7  -1   75.72    6.35
  -1   7   1   83.54    6.34
   1   7  -1   74.56    6.35
  -1   7   1   83.82    6.35
   0  -7   1    1.10    0.43
   0  -7   1    1.49    0.46
   0  -7  -1    0.60    0.41
   0  -7  -1    0.61    0.40
   0   7   1    0.45    0.42
   0   7  -1    1.46    0.48
   0   7  -1    1.23    0.45
   0   7   1   -0.07    0.46
  -1  -7  -1   17.21    1.50
  -1  -7  -1   15.86    1.51
   1   7   1   17.34    1.54
   1   7   1   16.50    1.50
  -2  -7  -1   -0.01    0.40
   2  -7   1    0.44    0.40
  -2  -7  -1   -0.19    0.39
   2  -7   1    0.19    0.37
   2   7   1   -0.08    0.48
  -2   7  -1    0.01    0.35
   2   7   1   -0.03    0.43
  -2   7  -1    0.40    0.38
  -3  -7  -1   60.46    4.81
  -3  -7  -1   62.10    4.59
  -3  -7  -1   56.57    4.80
   3   7   1   63.43    4.84
   3   7   1   58.35    4.81
   4  -7   1   16.36    1.79
  -4  -7  -1   22.56    1.71
  -4  -7  -1   23.08    1.87
  -4  -7  -1   21.98    1.88
   4   7   1   23.69    1.92
   4   7   1   22.08    1.90
  -5  -7  -1    0.56    0.42
  -5  -7  -1    0.53    0.28
   5  -7   1   -0.01    0.33
  -5  -7  -1    0.36    0.45
   5  -7   1    0.52    0.37
   5   7   1    0.17    0.53
   5   7   1    0.47    0.51
   5   7   1    1.16    0.31
  -6  -7  -1  127.46    9.99
  -6  -7  -1  130.31    9.98
  -6  -7  -1  125.23    9.61
   6   7   1  121.40    9.99
   6   7   1  130.44   10.01
   6   7   1  126.07    9.60
  -7  -7  -1   19.13    1.84
  -7  -7  -1   20.78    1.86
  -7  -7  -1   21.08    1.73
   7   7   1   20.37    1.89
   7   7   1   22.17    1.72
   7   7   1   20.67    1.91
  -8  -7  -1    0.81    0.46
   8   7   1    0.10    0.64
   8   7   1    1.21    0.67
   8   7   1    1.20    0.48
   9  -7   1   28.56    2.52
   9   7   1   27.09    2.51
   9   7   1   29.85    2.37
   9   7   1   29.80    2.56
  10  -7   1    2.79    0.75
  10   7   1    1.64    0.75
  10   7   1    0.86    0.56
  11   7   1    7.82    1.05
  11   7   1    8.16    1.20
  12  -7   1    8.19    1.29
  12   7   1    8.96    1.24
  13  -7   1    5.64    1.10
  13   7   1    5.26    0.96
  14  -7   1    0.04    0.88
  14   7   1    1.17    0.77
  14   8  -1    2.59    0.87
  13  -8  -1    4.73    1.08
  13   8  -1    6.23    1.07
  12  -8  -1    5.25    1.08
  12   8  -1    5.51    0.97
  12   8  -1    5.36    0.91
  11  -8  -1    3.62    0.90
  11   8  -1    1.83    0.72
  11   8  -1    2.25    0.84
  10  -8  -1    3.14    0.84
  10   8  -1    2.21    0.67
  10   8  -1    1.39    0.75
   9  -8  -1    3.95    0.84
  -9  -8   1    3.59    0.64
  -9  -8   1    3.51    0.67
   9   8  -1    3.47    0.81
   9   8  -1    3.98    0.71
   9   8  -1    4.17    0.83
  -8  -8   1   43.98    3.45
   8  -8  -1   39.60    3.51
  -8  -8   1   40.77    3.52
   8   8  -1   44.62    3.59
   8   8  -1   44.71    3.43
   8   8  -1   43.21    3.58
  -7  -8   1   11.91    1.20
  -7  -8   1   11.06    1.25
   7   8  -1   12.76    1.19
   7   8  -1   12.47    1.39
   7   8  -1    9.84    1.30
  -6  -8   1   11.32    1.21
  -6  -8   1   10.39    1.11
  -6  -8   1   11.56    1.23
   6   8  -1   11.52    1.12
   6   8  -1   12.27    1.31
   6   8  -1   11.18    1.28
   5  -8  -1   12.64    1.35
  -5  -8   1   17.29    1.49
  -5  -8   1   16.33    1.49
  -5  -8   1   16.92    1.37
   5  -8  -1   12.29    1.36
   5   8  -1   14.89    1.49
   5   8  -1   17.04    1.36
   5   8  -1   16.55    1.53
  -4  -8   1    4.39    0.66
  -4  -8   1    4.51    0.69
  -4  -8   1    4.88    0.68
   4   8  -1    4.03    0.66
   4   8  -1    3.84    0.69
   4   8  -1    5.68    0.75
  -3  -8   1   11.81    1.23
  -3  -8   1   12.54    1.27
  -3  -8   1   13.95    1.14
   3  -8  -1   11.82    1.20
   3  -8  -1   11.33    1.18
   3   8  -1   13.12    1.26
  -3   8   1   11.94    1.20
  -3   8   1   11.89    1.18
   3   8  -1   12.75    1.31
  -2  -8   1   14.97    1.42
  -2  -8   1   14.26    1.42
  -2  -8   1   15.43    1.29
   2   8  -1   14.57    1.40
   2   8  -1   15.41    1.47
  -1  -8   1   51.86    4.18
  -1  -8   1   53.25    4.19
   1   8  -1   50.04    4.17
   1   8  -1   52.37    4.18
   0  -8   1   62.17    4.99
   0  -8  -1   63.32    4.99
   0  -8  -1   66.37    4.99
   0  -8   1   63.39    4.99
   0   8  -1   61.89    5.00
   0   8   1   59.80    4.97
   0   8   1   65.06    5.00
   0   8  -1   57.81    4.97
  -1  -8  -1   20.62    1.87
  -1  -8  -1   22.82    1.89
   1   8   1   20.72    1.86
   1   8   1   22.10    1.90
   2  -8   1   71.96    6.37
   2  -8   1   75.73    6.37
  -2  -8  -1   87.49    6.41
  -2   8  -1   73.36    6.36
   2   8   1   90.51    6.42
   2   8   1   94.36    6.43
  -2   8  -1   72.83    6.37
  -3  -8  -1   35.53    2.96
   3  -8   1   33.53    2.91
   3  -8   1   35.44    2.91
  -3  -8  -1   36.14    2.77
  -3  -8  -1   37.82    2.98
   3   8   1   35.47    2.97
  -3   8  -1   35.52    2.89
   3   8   1   35.66    2.96
  -3   8  -1   36.74    2.90
  -4  -8  -1    4.18    0.52
  -4  -8  -1    3.20    0.60
  -4  -8  -1    3.76    0.60
   4   8   1    3.85    0.68
   4   8   1    2.98    0.65
  -5  -8  -1    1.73    0.34
  -5  -8  -1    1.99    0.50
  -5  -8  -1    1.59    0.51
   5   8   1    1.58    0.60
   5   8   1    1.34    0.59
  -6  -8  -1   39.45    3.32
  -6  -8  -1   39.25    3.32
  -6  -8  -1   39.79    3.13
   6   8   1   38.53    3.33
   6   8   1   41.21    3.13
   6   8   1   42.57    3.37
  -7  -8  -1    8.84    0.94
  -7  -8  -1    8.00    1.10
   7   8   1    9.69    1.22
   7   8   1   10.64    0.95
   7   8   1    9.21    1.19
  -8  -8  -1   52.35    4.47
   8   8   1   55.81    4.28
   8   8   1   60.88    4.57
   8   8   1   52.39    4.51
   9  -8   1    1.19    0.65
   9   8   1    0.11    0.68
   9   8   1    1.20    0.71
   9   8   1    1.56    0.51
  10  -8   1   22.33    2.44
  10   8   1   29.43    2.30
  10   8   1   30.69    2.52
  11  -8   1    3.28    0.87
  11   8   1    3.79    0.88
  11   8   1    3.63    0.69
  12  -8   1    0.12    0.79
  12   8   1    1.36    0.80
  13  -8   1    6.82    1.21
  14  -8   1   -0.85    0.85
  14   8   1    0.28    0.75
  14   9  -1    6.26    1.09
  13  -9  -1    2.70    1.00
  13   9  -1    2.61    0.94
  12  -9  -1    4.48    1.01
  12   9  -1    2.00    0.87
  11  -9  -1    4.17    0.95
  11   9  -1    1.55    0.69
  11   9  -1    2.11    0.84
  10  -9  -1   51.33    3.85
  10   9  -1   44.57    3.66
  10   9  -1   41.99    3.81
  -9  -9   1    0.82    0.51
  -9  -9   1    0.91    0.53
   9  -9  -1    0.53    0.68
   9   9  -1    0.47    0.72
   9   9  -1    0.90    0.56
   9   9  -1    1.14    0.74
  -8  -9   1    4.89    0.77
  -8  -9   1    5.05    0.74
   8   9  -1    6.37    0.87
   8   9  -1    5.19    0.89
   8   9  -1    5.72    0.93
  -7  -9   1   15.26    1.56
  -7  -9   1   15.98    1.45
   7   9  -1   13.10    1.58
   7   9  -1   17.24    1.44
   7   9  -1   15.95    1.64
   6  -9  -1    0.06    0.38
   6  -9  -1   -0.35    0.38
  -6  -9   1    0.18    0.38
  -6  -9   1    0.27    0.52
   6   9  -1    0.07    0.62
   6   9  -1    0.27    0.42
   6   9  -1    0.04    0.60
  -5  -9   1   64.30    4.92
  -5  -9   1   66.14    5.15
  -5  -9   1   62.99    5.12
   5   9  -1   61.82    4.91
   5   9  -1   61.17    5.13
   5   9  -1   65.96    5.16
  -4  -9   1    3.00    0.47
  -4  -9   1    3.20    0.62
  -4  -9   1    2.38    0.59
   4   9  -1    2.96    0.68
   4   9  -1    2.79    0.64
   3  -9  -1   13.50    1.45
  -3  -9   1   18.86    1.38
   3  -9  -1   12.89    1.44
  -3  -9   1   18.59    1.55
  -3  -9   1   17.14    1.51
  -3   9   1   12.34    1.45
   3   9  -1   17.77    1.55
  -3   9   1   14.46    1.44
   3   9  -1   18.05    1.58
  -2  -9   1   27.24    2.20
  -2  -9   1   25.56    2.04
  -2  -9   1   24.69    2.19
   2   9  -1   25.71    2.22
   2   9  -1   23.04    2.17
   1  -9  -1   10.41    1.09
   1  -9  -1   10.95    1.06
  -1   9   1   11.44    1.10
  -1   9   1   10.45    1.08
   1   9  -1    6.77    1.05
   1   9  -1    7.75    1.13
   0  -9  -1    8.28    0.97
   0  -9  -1    7.84    0.95
   0   9   1    6.92    0.99
   0   9   1    7.82    0.97
   1  -9   1   45.21    4.10
  -1  -9  -1   55.49    4.13
  -1  -9  -1   57.72    4.14
   1  -9   1   45.90    4.09
  -1   9  -1   46.43    4.12
   1   9   1   57.90    4.15
   1   9   1   54.63    4.12
  -1   9  -1   44.91    4.09
  -2  -9  -1  134.49   11.06
  -2  -9  -1  131.12   11.06
   2  -9   1  152.84   11.04
   2  -9   1  148.58   11.05
   2   9   1  128.89   11.06
  -2   9  -1  152.41   11.04
   2   9   1  131.79   11.06
  -2   9  -1  144.47   11.03
   3  -9   1  105.27    8.09
  -3  -9  -1  104.86    8.13
   3  -9   1  103.84    8.10
  -3  -9  -1   98.51    8.13
  -3  -9  -1   99.58    7.78
  -3   9  -1  104.15    8.08
  -3   9  -1  103.11    8.08
   3   9   1  104.91    8.14
   3   9   1   99.87    8.13
  -4  -9  -1   63.65    5.44
  -4  -9  -1   66.11    5.19
  -4  -9  -1   66.97    5.45
   4  -9   1   71.33    5.40
   4  -9   1   69.67    5.41
  -4   9  -1   73.51    5.39
   4   9   1   68.47    5.48
   4   9   1   64.03    5.45
  -5  -9  -1   33.96    2.78
  -5  -9  -1   32.71    2.78
  -5  -9  -1   32.19    2.58
   5   9   1   34.10    2.81
   5   9   1   31.73    2.79
  -6  -9  -1   43.52    3.82
  -6  -9  -1   41.69    3.61
   6  -9   1   51.76    3.75
   6  -9   1   53.95    3.75
   6   9   1   41.76    3.85
   6   9   1   46.95    3.88
  -7  -9  -1   66.59    5.48
  -7  -9  -1   67.29    5.23
   7   9   1   66.10    5.50
   7   9   1   70.37    5.22
   7   9   1   70.00    5.52
  -8  -9  -1    0.32    0.40
  -8  -9  -1    0.22    0.53
   8   9   1    0.11    0.68
   8   9   1    0.47    0.44
   8   9   1   -0.75    0.69
  -9  -9  -1   14.58    1.61
   9  -9   1   17.95    1.69
   9   9   1   17.18    1.48
   9   9   1   16.51    1.70
   9   9   1   16.17    1.76
  10  -9   1   25.08    2.48
  10   9   1   28.43    2.29
  10   9   1   29.17    2.54
  11  -9   1    9.52    1.36
  11   9   1   11.71    1.41
  12  -9   1   12.50    1.56
  12   9   1   12.36    1.54
  13  -9   1    9.85    1.46
  13   9   1    9.31    1.40
  14   9   1   10.41    1.45
  14  10  -1    0.47    0.84
  13 -10  -1    0.33    0.88
  13  10  -1    2.08    0.94
  12  10  -1    7.11    1.13
  11 -10  -1    9.97    1.45
  11  10  -1    9.78    1.22
  11  10  -1   11.01    1.42
  10 -10  -1    6.61    1.17
  10  10  -1    9.64    1.13
  10  10  -1   10.56    1.27
  -9 -10   1   10.36    1.23
  -9 -10   1   10.93    1.22
   9  10  -1   10.48    1.44
   9  10  -1   10.55    1.36
   9  10  -1   10.97    1.19
  -8 -10   1   31.92    2.55
  -8 -10   1   28.46    2.62
   8 -10  -1   26.34    2.63
   8  10  -1   32.28    2.52
   8  10  -1   29.93    2.68
   8  10  -1   33.41    2.74
  -7 -10   1   32.53    2.66
   7 -10  -1   33.36    2.68
   7 -10  -1   32.63    2.68
  -7 -10   1   31.69    2.79
   7  10  -1   34.95    2.66
   7  10  -1   28.73    2.81
   7  10  -1   32.79    2.86
  -6 -10   1    7.07    1.05
  -6 -10   1    7.43    0.93
   6  10  -1    7.86    1.19
   6  10  -1    6.86    0.99
   6  10  -1    8.44    0.92
  -5 -10   1   53.93    3.91
   5 -10  -1   42.09    4.01
  -5 -10   1   52.56    4.10
  -5 -10   1   54.97    4.12
   5 -10  -1   45.18    4.01
   5  10  -1   52.26    4.11
  -5  10   1   45.73    4.00
   5  10  -1   55.05    4.13
  -4 -10   1    1.41    0.59
   4 -10  -1    2.77    0.50
  -4 -10   1    1.63    0.42
  -4 -10   1    1.13    0.56
   4  10  -1    1.92    0.66
   4  10  -1    1.26    0.61
  -4  10   1    3.05    0.49
  -3 -10   1   26.92    2.33
  -3 -10   1   24.79    2.15
   3 -10  -1   27.69    2.27
   3 -10  -1   28.87    2.26
  -3 -10   1   25.34    2.31
  -3  10   1   26.38    2.27
  -3  10   1   26.93    2.25
   3  10  -1   26.74    2.35
   3  10  -1   25.93    2.33
  -2 -10   1   46.20    3.90
  -2 -10   1   50.13    3.72
  -2 -10   1   49.00    3.92
   2  10  -1   47.31    3.91
   2  10  -1   46.03    3.90
   1 -10  -1    4.52    0.65
  -1 -10   1    2.75    0.65
  -1 -10   1    2.42    0.63
   1 -10  -1    4.40    0.62
   1  10  -1    2.52    0.67
  -1  10   1    4.39    0.69
   1  10  -1    3.07    0.66
  -1  10   1    4.40    0.66
   0 -10  -1  805.46   60.85
   0 -10   1  794.55   60.73
   0 -10   1  738.95   60.78
   0 -10  -1  767.42   60.88
   0  10   1  806.15   60.74
   0  10   1  756.44   60.73
   0  10  -1  824.65   60.75
   0  10  -1  745.42   60.73
   1 -10   1    1.57    0.51
  -1 -10  -1    0.73    0.51
   1 -10   1    1.69    0.53
  -1 -10  -1    0.63    0.48
   1  10   1    0.32    0.54
  -1  10  -1    1.23    0.51
   1  10   1    0.46    0.59
  -1  10  -1    1.58    0.56
   2 -10   1  169.35   13.62
  -2 -10  -1  189.84   13.67
   2 -10   1  162.98   13.63
  -2 -10  -1  176.55   13.66
  -2  10  -1  170.36   13.63
   2  10   1  175.70   13.66
   2  10   1  183.70   13.67
  -2  10  -1  163.02   13.61
  -3 -10  -1    0.21    0.49
   3 -10   1    0.14    0.47
  -3 -10  -1    0.62    0.50
  -3 -10  -1    0.34    0.28
   3 -10   1    0.28    0.44
  -3  10  -1    0.18    0.46
   3  10   1    0.64    0.61
   3  10   1    0.36    0.57
  -3  10  -1    0.27    0.43
  -4 -10  -1   50.93    4.05
  -4 -10  -1   53.08    3.83
  -4 -10  -1   51.91    4.06
  -4  10  -1   45.08    3.98
  -4  10  -1   40.48    3.96
   4  10   1   52.46    4.08
   4  10   1   54.78    4.09
   5 -10   1    4.93    0.79
   5 -10   1    5.73    0.79
  -5 -10  -1    6.42    0.69
  -5 -10  -1    6.32    0.91
  -5 -10  -1    6.21    0.97
  -5  10  -1    4.36    0.65
   5  10   1    5.48    0.86
  -5  10  -1    5.92    0.74
   5  10   1    5.78    0.88
   6 -10   1   25.50    2.62
  -6 -10  -1   33.67    2.53
  -6 -10  -1   33.08    2.73
   6  10   1   32.85    2.77
   6  10   1   35.68    2.81
  -7 -10  -1   44.92    3.62
  -7 -10  -1   45.44    3.40
   7  10   1   46.93    3.68
   7  10   1   35.95    3.60
  -8 -10  -1    1.04    0.42
  -8 -10  -1    0.42    0.59
   8  10   1    0.78    0.75
   8  10   1    0.63    0.73
   9  10   1    4.32    0.64
   9  10   1    3.83    0.90
   9  10   1    3.30    0.88
  10 -10   1    0.27    0.73
  10  10   1    0.53    0.51
  10  10   1    0.44    0.82
  11 -10   1    3.72    0.92
  11  10   1    5.03    0.97
  12 -10   1   -0.29    0.77
  12  10   1    0.68    0.79
  13 -10   1    2.90    1.00
  13  10   1    5.54    1.02
  14  10   1   -0.25    0.84
  14  11  -1   -0.13    0.87
  13  11  -1    6.46    1.20
  12 -11  -1   -0.06    0.87
  12  11  -1    0.96    0.83
  11 -11  -1   15.68    1.81
  11  11  -1   14.97    1.57
  11  11  -1   16.94    1.81
  10 -11  -1    0.92    0.77
  10  11  -1    0.22    0.62
  10  11  -1    1.36    0.79
  -9 -11   1   12.69    1.36
   9  11  -1   13.05    1.58
   9  11  -1   13.90    1.32
   9  11  -1   10.44    1.48
   8 -11  -1   13.12    1.44
  -8 -11   1   11.44    1.29
   8 -11  -1   13.90    1.22
  -8 -11   1   10.17    1.35
   8  11  -1   12.14    1.25
   8  11  -1   12.70    1.60
   8  11  -1   11.68    1.46
  -7 -11   1    0.97    0.62
   7 -11  -1    0.56    0.47
   7 -11  -1    0.20    0.48
  -7 -11   1    0.98    0.46
   7  11  -1    0.93    0.73
   7  11  -1    1.19    0.55
   7  11  -1    1.27    0.76
  -6 -11   1   25.57    2.38
   6 -11  -1   28.26    2.27
   6 -11  -1   29.44    2.28
  -6 -11   1   24.31    2.20
   6  11  -1   26.37    2.43
   6  11  -1   25.17    2.41
   5 -11  -1    1.83    0.50
  -5 -11   1    1.15    0.43
  -5 -11   1    0.99    0.58
   5 -11  -1    1.95    0.52
   5  11  -1    0.84    0.65
  -5  11   1    0.89    0.34
  -5  11   1    1.83    0.51
   5  11  -1    0.83    0.65
  -4 -11   1  176.57   13.86
  -4 -11   1  178.96   14.39
   4 -11  -1  181.42   14.34
  -4 -11   1  172.63   14.39
   4 -11  -1  196.78   14.35
  -4  11   1  185.17   14.33
   4  11  -1  182.28   14.40
  -4  11   1  203.81   14.35
   4  11  -1  168.94   14.38
  -3 -11   1   79.92    6.14
  -3 -11   1   76.83    6.15
   3 -11  -1   78.80    6.10
  -3 -11   1   75.49    5.88
   3 -11  -1   75.37    6.10
   3  11  -1   75.31    6.14
  -3  11   1   72.74    6.08
   3  11  -1   74.36    6.14
  -3  11   1   80.25    6.11
  -2 -11   1  244.87   18.41
  -2 -11   1  240.03   19.09
   2 -11  -1  232.00   19.06
   2 -11  -1  251.39   19.06
  -2 -11   1  256.39   19.09
  -2  11   1  239.44   19.07
  -2  11   1  234.73   19.05
   2  11  -1  253.09   19.10
   2  11  -1  240.91   19.08
   1 -11  -1   49.80    4.09
   1 -11  -1   46.84    4.09
  -1 -11   1   55.71    4.13
  -1 -11   1   50.58    4.10
   1  11  -1   52.19    4.12
   1  11  -1   52.73    4.12
  -1  11   1   48.25    4.11
  -1  11   1   46.74    4.10
   0 -11   1   52.48    4.97
   0 -11  -1   69.73    5.00
   0 -11  -1   70.17    5.01
   0  11   1   68.96    5.00
   0  11  -1   54.31    4.99
   0  11  -1   49.86    4.96
   0  11   1   68.28    5.01
  -1 -11  -1   26.60    2.36
  -1 -11  -1   28.36    2.36
   1  11   1   28.30    2.41
   1  11   1   25.26    2.34
   2 -11   1   14.94    1.40
  -2 -11  -1   13.26    1.40
   2 -11   1   13.03    1.39
  -2 -11  -1   16.40    1.44
  -2  11  -1   12.33    1.40
   2  11   1   15.06    1.52
   2  11   1   14.88    1.45
  -2  11  -1   12.67    1.35
  -3 -11  -1    8.24    0.81
  -3 -11  -1    7.07    1.06
  -3 -11  -1    7.82    1.08
   3  11   1    7.91    1.14
   3  11   1    7.46    1.09
  -4 -11  -1   54.34    3.77
  -4 -11  -1   53.88    4.01
  -4 -11  -1   51.74    4.00
  -4  11  -1   39.62    3.91
  -4  11  -1   40.79    3.92
   4  11   1   52.97    4.03
   5 -11   1   25.58    2.36
  -5 -11  -1   29.50    2.23
   5 -11   1   25.99    2.36
  -5 -11  -1   30.37    2.45
   5  11   1   30.31    2.51
   5  11   1   29.26    2.48
  -5  11  -1   25.59    2.31
  -6 -11  -1   25.84    2.20
   6 -11   1   19.11    2.09
  -6 -11  -1   25.30    1.99
   6  11   1   26.02    2.26
   6  11   1   26.83    2.30
  -7 -11  -1   22.60    1.74
   7 -11   1   17.36    1.78
  -7 -11  -1   22.33    1.97
   7 -11   1   17.67    1.78
   7  11   1   23.53    2.06
   7  11   1   20.72    1.99
  -8 -11  -1   14.30    1.31
  -8 -11  -1   14.24    1.53
   8  11   1   14.94    1.66
   8  11   1   14.40    1.61
   9  11   1   21.83    2.13
   9  11   1   20.42    2.05
  10 -11   1    0.03    0.73
  10  11   1   -0.14    0.80
  11 -11   1    3.90    0.97
  11  11   1    3.06    0.96
  12 -11   1    0.71    0.81
  12  11   1    0.26    0.81
  13 -11   1    5.00    1.12
  13  11   1    4.13    1.03
  14  11   1   -0.38    0.89
  13  12  -1    2.61    1.06
  12 -12  -1    4.01    1.08
  12  12  -1    6.43    1.13
  11 -12  -1    4.22    1.00
  11  12  -1    2.68    0.99
  11  12  -1    2.39    0.74
  10 -12  -1    2.21    0.88
  10  12  -1    2.43    0.92
  10  12  -1    3.78    0.74
   9 -12  -1    1.35    0.76
   9 -12  -1    1.25    0.47
   9  12  -1   -0.01    0.58
   9  12  -1   -0.15    0.80
  -8 -12   1    8.31    1.18
  -8 -12   1    9.02    1.09
   8  12  -1    8.47    1.32
   8  12  -1    7.91    1.20
   7 -12  -1   17.33    1.67
  -7 -12   1   18.15    1.65
  -7 -12   1   18.80    1.83
   7 -12  -1   17.66    1.66
   7  12  -1   18.13    1.86
   7  12  -1   18.49    1.89
  -6 -12   1   31.33    2.93
  -6 -12   1   31.27    2.76
   6  12  -1   31.16    2.99
  -6  12   1   40.67    2.78
   5 -12  -1   70.97    5.67
   5 -12  -1   68.13    5.67
  -5 -12   1   73.88    5.49
  -5 -12   1   74.50    5.75
   5  12  -1   75.74    5.77
  -5  12   1   66.27    5.65
  -5  12   1   66.61    5.64
   5  12  -1   72.78    5.76
   4 -12  -1   12.47    1.25
   4 -12  -1   11.37    1.20
   4  12  -1    7.75    1.34
  -4  12   1   11.33    1.21
  -4  12   1   12.29    1.26
  -3 -12   1  168.81   12.41
  -3 -12   1  154.96   11.93
  -3 -12   1  166.24   12.42
   3 -12  -1  129.58   12.34
   3  12  -1  163.22   12.41
   3  12  -1  161.38   12.40
   2 -12  -1   13.32    1.37
   2 -12  -1   14.93    1.43
  -2  12   1   12.60    1.40
  -2  12   1   14.44    1.45
   1 -12  -1  248.89   22.02
   1 -12  -1  257.86   22.01
  -1 -12   1  313.51   22.06
   1  12  -1  325.65   22.06
  -1  12   1  262.46   22.02
   0 -12   1   16.70    1.50
   0 -12  -1   14.01    1.47
   0 -12   1   14.54    1.44
   0 -12  -1   12.53    1.44
   0  12  -1   15.39    1.44
   0  12  -1   16.15    1.54
   0  12   1   12.38    1.43
   0  12   1   12.33    1.52
  -1 -12  -1  208.08   17.82
  -1 -12  -1  192.84   17.82
   1 -12   1  255.89   17.84
  -1  12  -1  253.26   17.83
  -1  12  -1  258.13   17.85
   1  12   1  196.69   17.83
   2 -12   1   25.79    2.10
   2 -12   1   27.39    2.09
  -2 -12  -1   21.46    2.13
  -2  12  -1   24.77    2.07
   2  12   1   18.06    2.12
   2  12   1   21.14    2.18
  -2  12  -1   26.15    2.12
  -3 -12  -1   20.62    2.03
  -3 -12  -1   19.95    1.80
   3 -12   1   25.84    1.98
  -3 -12  -1   19.32    2.01
   3  12   1   18.95    2.03
  -3  12  -1   24.95    1.99
  -3  12  -1   25.22    1.96
   3  12   1   21.56    2.09
  -4 -12  -1    7.93    0.92
   4 -12   1   10.18    1.11
   4 -12   1   11.44    1.13
  -4 -12  -1    8.07    1.15
  -4  12  -1   10.27    1.10
   4  12   1    8.12    1.28
  -4  12  -1   10.80    1.11
   4  12   1    8.47    1.23
  -5 -12  -1    0.29    0.57
   5 -12   1   -0.39    0.49
   5 -12   1    0.05    0.52
  -5 -12  -1    0.34    0.34
   5  12   1    0.15    0.68
  -5  12  -1   -0.42    0.46
   5  12   1   -0.58    0.67
  -5  12  -1   -0.05    0.35
  -6 -12  -1  151.28   11.48
   6 -12   1  139.80   11.88
  -6 -12  -1  161.89   11.99
   6 -12   1  143.98   11.90
   6  12   1  161.65   12.01
   6  12   1  150.86   11.98
  -7 -12  -1   32.53    2.58
   7 -12   1   24.76    2.40
   7 -12   1   25.75    2.42
  -7 -12  -1   29.98    2.31
   7  12   1   28.14    2.56
   7  12   1   31.66    2.66
   8 -12   1   70.06    5.04
   8 -12   1   68.68    5.04
  -8 -12  -1   58.78    4.88
  -8 -12  -1   58.92    5.15
   8  12   1   64.67    5.22
   8  12   1   56.73    5.17
   9  12   1    2.36    0.89
  10 -12   1   13.04    1.63
  10  12   1   15.92    1.75
  11 -12   1    6.92    1.22
  11  12   1   10.75    1.43
  12 -12   1    2.46    0.92
  12  12   1    1.93    0.96
  13  12   1   15.84    1.87
  13  13  -1    1.99    1.04
  12 -13  -1    6.51    1.21
  12  13  -1    5.16    1.15
  11 -13  -1    0.62    0.81
  11  13  -1    0.20    0.87
  10 -13  -1   28.76    2.39
  10  13  -1   20.88    2.34
   9 -13  -1   -0.47    0.49
   9 -13  -1   -0.19    0.70
   9  13  -1   -0.01    0.80
  -8 -13   1   44.14    3.57
  -8 -13   1   42.56    3.73
   8  13  -1   41.55    3.77
   8  13  -1   49.63    3.87
   7 -13  -1   12.23    1.33
  -7 -13   1   12.46    1.32
   7 -13  -1   12.50    1.36
  -7 -13   1   13.61    1.50
   7  13  -1   13.08    1.57
   7  13  -1   14.68    1.68
  -6 -13   1   16.97    1.59
  -6 -13   1   16.70    1.78
   6  13  -1   17.32    1.81
   6  13  -1   19.29    1.94
  -5 -13   1   24.96    2.33
  -5 -13   1   27.31    2.16
   5  13  -1   24.67    2.35
   5  13  -1   25.09    2.41
  -4 -13   1    0.28    0.62
   4 -13  -1    0.43    0.51
   4 -13  -1    0.42    0.52
  -4 -13   1    0.41    0.42
   4  13  -1   -0.19    0.68
  -4  13   1    0.12    0.55
  -4  13   1    0.23    0.52
   4  13  -1    0.08    0.68
  -3 -13   1   23.32    2.12
  -3 -13   1   23.03    2.16
  -3 -13   1   23.23    1.95
   3  13  -1   22.93    2.15
   3  13  -1   22.86    2.19
   2 -13  -1   12.25    1.32
   2 -13  -1   12.92    1.38
  -2  13   1   11.96    1.35
  -2  13   1   12.83    1.41
   1 -13  -1   36.83    3.12
  -1  13   1   38.12    3.14
  -1  13   1   36.43    3.14
   0 -13  -1    4.80    0.72
   0 -13   1    3.10    0.69
   0 -13  -1    4.16    0.73
   0 -13   1    3.70    0.70
   0  13  -1    3.59    0.78
   0  13  -1    2.92    0.73
   0  13   1    4.17    0.76
   0  13   1    4.24    0.80
   1 -13   1   15.19    1.42
   1 -13   1   15.24    1.46
  -1 -13  -1   12.94    1.48
  -1 -13  -1   11.60    1.42
  -1  13  -1   14.37    1.44
  -1  13  -1   15.33    1.50
   1  13   1   11.27    1.42
   1  13   1   12.83    1.54
  -2 -13  -1   31.17    3.23
   2 -13   1   42.93    3.21
   2 -13   1   43.56    3.21
   2  13   1   29.93    3.23
  -2  13  -1   43.40    3.21
  -3 -13  -1   81.63    6.53
  -3 -13  -1   78.48    6.54
   3 -13   1   88.49    6.50
  -3 -13  -1   75.34    6.21
   3 -13   1   85.52    6.51
   3  13   1   74.81    6.52
  -3  13  -1   82.15    6.48
  -3  13  -1   85.50    6.50
   3  13   1   79.45    6.56
  -4 -13  -1   36.33    3.01
   4 -13   1   38.65    3.19
  -4 -13  -1   34.67    3.23
   4 -13   1   42.29    3.21
  -4  13  -1   41.38    3.17
  -4  13  -1   39.80    3.19
   4  13   1   38.20    3.30
   4  13   1   34.26    3.25
   5 -13   1  158.52   10.84
  -5 -13  -1  116.48   10.40
  -5 -13  -1  120.90   10.86
  -5  13  -1  152.85   10.80
  -5  13  -1  152.48   10.79
   5  13   1  121.76   10.87
   6 -13   1   10.17    1.19
   6 -13   1    9.79    1.17
  -6  13  -1    9.54    1.06
  -6  13  -1   10.82    1.06
  -7 -13  -1    7.45    0.92
  -7 -13  -1    9.47    1.26
   7  13   1    9.46    1.44
   7  13   1    8.74    1.26
   8 -13   1    4.57    0.74
   8 -13   1    4.70    0.74
  -8 -13  -1    7.41    1.12
   8  13   1    7.32    1.08
   8  13   1    8.60    1.31
   9  13   1   13.17    1.60
  10 -13   1   13.27    1.68
  10  13   1   16.87    1.83
  11 -13   1    1.15    0.87
  11  13   1    0.54    0.89
  12 -13   1    3.96    1.03
  12  13   1    4.90    1.10
  13  13   1    0.94    0.95
  13  14  -1    1.33    1.07
  12  14  -1    3.94    1.12
  11 -14  -1    1.15    0.85
  11  14  -1    1.13    0.97
  10 -14  -1    8.43    1.34
   9 -14  -1   18.12    1.97
   9  14  -1   20.80    2.01
  -8 -14   1   11.43    1.37
  -8 -14   1    9.54    1.20
   8  14  -1   10.00    1.44
   8  14  -1   12.81    1.62
   7 -14  -1  106.99    9.46
   7 -14  -1  102.88    9.46
  -7 -14   1  122.38    9.18
  -7 -14   1  129.95    9.58
   7  14  -1  138.82    9.64
   7  14  -1  120.16    9.57
  -6 -14   1   36.63    3.03
  -6 -14   1   37.51    3.25
   6  14  -1   36.71    3.27
   6  14  -1   39.02    3.32
  -5 -14   1  134.86    9.58
   5 -14  -1  121.54    9.91
  -5 -14   1  130.30    9.98
   5 -14  -1  108.26    9.89
   5  14  -1  127.65    9.98
   5  14  -1  143.24   10.03
  -5  14   1  113.02    9.87
   4 -14  -1    0.09    0.53
   4 -14  -1   -0.31    0.53
  -4 -14   1   -0.13    0.42
  -4 -14   1   -0.35    0.63
  -4  14   1    0.02    0.56
   4  14  -1   -1.19    0.69
   4  14  -1   -0.01    0.72
  -3 -14   1   86.88    6.30
   3 -14  -1   80.15    6.54
   3 -14  -1   73.02    6.53
  -3 -14   1   85.91    6.59
   3  14  -1   87.37    6.61
   3  14  -1   83.80    6.59
  -3  14   1   74.83    6.52
   2 -14  -1   78.11    5.37
  -2 -14   1   65.11    5.13
  -2 -14   1   62.49    5.38
  -2 -14   1   62.72    5.36
  -2  14   1   77.36    5.36
   2  14  -1   60.55    5.37
   2  14  -1   56.04    5.35
   1 -14  -1   31.22    2.65
   1 -14  -1   33.15    2.68
  -1 -14   1   30.71    2.70
  -1 -14   1   28.55    2.68
  -1  14   1   29.67    2.68
   1  14  -1   29.50    2.72
   1  14  -1   28.64    2.69
  -1  14   1   33.60    2.69
   0 -14  -1  160.37   12.43
   0 -14   1  154.22   12.42
   0 -14  -1  174.23   12.44
   0 -14   1  133.03   12.40
   0  14  -1  159.11   12.44
   0  14  -1  145.98   12.41
   0  14   1  169.31   12.44
   0  14   1  163.56   12.42
  -1 -14  -1   63.33    5.44
  -1 -14  -1   67.56    5.44
   1 -14   1   74.38    5.46
   1 -14   1   65.20    5.43
  -1  14  -1   69.17    5.46
   1  14   1   64.13    5.44
   1  14   1   68.86    5.48
  -1  14  -1   65.11    5.41
  -2 -14  -1  153.92   11.18
   2 -14   1  120.18   11.11
  -2  14  -1  121.68   11.11
   2  14   1  162.15   11.20
   2  14   1  148.37   11.16
  -3 -14  -1   17.40    1.94
  -3 -14  -1   18.78    1.74
   3 -14   1   24.96    1.96
  -3  14  -1   24.01    1.90
   3  14   1   18.71    1.99
   3  14   1   20.44    2.05
  -4 -14  -1   74.39    5.55
   4 -14   1   57.87    5.78
  -4 -14  -1   80.36    5.87
   4  14   1   76.87    5.88
  -5 -14  -1   36.62    2.97
  -5 -14  -1   36.63    3.21
   5  14   1   38.62    3.28
   5  14   1   37.86    3.27
  -6 -14  -1    1.39    0.71
   6 -14   1    0.36    0.56
  -6 -14  -1    1.20    0.42
   6 -14   1   -0.07    0.57
  -6  14  -1    0.25    0.34
   6  14   1    1.48    0.83
   6  14   1    1.16    0.85
  -7 -14  -1    3.51    0.81
   7  14   1    3.04    0.92
   7  14   1    3.70    0.93
   8 -14   1    1.43    0.57
  -8 -14  -1    1.95    0.74
   8 -14   1    1.70    0.57
   8  14   1    2.23    0.90
   8  14   1    0.89    0.79
   9 -14   1    1.81    0.59
   9  14   1    3.80    0.99
  10  14   1    2.66    1.04
  11 -14   1   12.25    1.71
  11  14   1   16.28    1.82
  12  14   1    5.76    1.20
  13  14   1    8.51    1.39
  12  15  -1    5.10    1.22
  11 -15  -1    5.08    1.13
  11  15  -1    8.23    1.30
  10 -15  -1    0.21    0.78
  10  15  -1    0.17    0.91
   9 -15  -1   -0.46    0.58
   9 -15  -1    0.23    0.72
   9  15  -1    0.72    0.85
  -8 -15   1    1.96    0.73
   8 -15  -1    0.60    0.61
   8  15  -1    1.38    0.92
   8  15  -1    1.79    0.88
   7 -15  -1   12.22    1.43
  -7 -15   1   12.10    1.35
   7 -15  -1   11.87    1.42
  -7 -15   1   15.28    1.59
   7  15  -1   13.82    1.59
   7  15  -1   16.79    1.80
  -6 -15   1    4.20    0.70
  -6 -15   1    4.48    0.93
   6  15  -1    4.26    0.97
   6  15  -1    3.95    1.00
  -5 -15   1    1.09    0.74
   5 -15  -1    0.73    0.61
  -5 -15   1    0.97    0.52
   5 -15  -1    0.98    0.62
  -5  15   1    0.80    0.61
   5  15  -1    1.51    0.87
   5  15  -1    0.98    0.84
  -4 -15   1  112.58    8.82
   4 -15  -1  113.26    8.76
  -4 -15   1  115.24    8.45
   4 -15  -1   99.21    8.74
   4  15  -1  117.24    8.85
   4  15  -1  107.06    8.81
  -4  15   1  106.97    8.74
   3 -15  -1   14.93    1.45
   3 -15  -1   13.54    1.39
  -3 -15   1    9.67    1.41
  -3 -15   1   10.86    1.21
   3  15  -1   10.84    1.49
  -3  15   1   13.61    1.41
   3  15  -1   11.31    1.48
   2 -15  -1   54.99    4.17
   2 -15  -1   51.26    4.16
  -2 -15   1   45.58    4.16
   2  15  -1   47.86    4.19
  -2  15   1   51.72    4.16
   1 -15  -1    0.44    0.59
   1 -15  -1    0.45    0.57
  -1 -15   1    0.23    0.62
  -1 -15   1    0.28    0.64
   1  15  -1    0.15    0.70
  -1  15   1   -0.01    0.69
   0 -15  -1    3.23    0.77
   0 -15   1    7.00    1.09
   0 -15  -1    4.54    0.79
   0 -15   1    6.41    0.98
   0  15   1    4.19    0.86
   0  15  -1    6.47    0.92
  -1 -15  -1    4.80    0.83
  -1 -15  -1    5.60    0.85
   1 -15   1    4.17    0.83
   1 -15   1    5.17    0.85
   1  15   1    5.55    0.92
  -1  15  -1    4.23    0.84
   2 -15   1    0.96    0.62
   2 -15   1    1.58    0.64
  -2 -15  -1    0.39    0.64
   2  15   1    0.64    0.75
  -2  15  -1    1.36    0.68
   3 -15   1    9.49    1.30
  -3 -15  -1   12.43    1.14
   3 -15   1   10.98    1.35
  -3 -15  -1   13.29    1.41
   3  15   1   12.95    1.50
  -3  15  -1    8.58    1.27
   3  15   1   11.65    1.44
  -4 -15  -1   57.33    4.66
  -4 -15  -1   52.33    4.37
   4  15   1   57.11    4.68
   4  15   1   59.48    4.72
   5 -15   1   25.77    2.10
   5 -15   1   23.34    2.09
  -5 -15  -1   20.28    1.89
  -5 -15  -1   20.97    2.14
  -5  15  -1   22.92    2.02
   5  15   1   23.07    2.26
   5  15   1   21.31    2.19
   6 -15   1    2.87    0.69
  -6 -15  -1    3.78    0.84
  -6 -15  -1    2.62    0.51
   6 -15   1    2.25    0.70
   6  15   1    3.17    0.96
   6  15   1    3.07    0.92
  -7 -15  -1    8.33    1.26
   7 -15   1   10.43    1.20
  -7 -15  -1    7.44    0.95
   7 -15   1   10.41    1.14
   7  15   1    7.10    1.20
   7  15   1    7.26    1.20
  -8 -15  -1    7.02    1.06
   8  15   1    5.74    1.14
   9 -15   1    2.53    0.65
   9  15   1    1.89    0.97
  10  15   1    0.24    0.91
  11 -15   1    3.38    0.98
  11  15   1    1.05    0.97
  12  15   1   -0.14    0.91
  12  16  -1    9.30    1.47
  11  16  -1    5.76    1.24
  10 -16  -1    0.14    0.81
  10  16  -1    2.30    1.04
   9 -16  -1   20.98    2.15
   9 -16  -1   23.04    2.04
   9  16  -1   21.55    2.29
  -8 -16   1    3.91    0.89
   8 -16  -1    3.28    0.76
   8  16  -1    3.72    1.02
  -7 -16   1    2.63    0.82
  -7 -16   1    1.92    0.57
   7  16  -1    1.89    0.90
   6 -16  -1    2.94    0.71
   6 -16  -1    2.99    0.72
  -6 -16   1    1.31    0.56
  -6 -16   1    1.45    0.80
   6  16  -1    1.47    0.90
  -6  16   1    3.23    0.63
  -5 -16   1   39.33    3.22
   5 -16  -1   40.34    3.36
   5 -16  -1   44.32    3.40
  -5 -16   1   39.02    3.45
  -5  16   1   39.04    3.34
   5  16  -1   36.22    3.45
   4 -16  -1   31.54    2.47
  -4 -16   1   24.53    2.34
  -4 -16   1   21.99    2.51
  -4  16   1   33.21    2.53
  -3 -16   1   38.83    2.88
  -3 -16   1   38.14    3.10
   3 -16  -1   31.13    3.00
   3 -16  -1   34.49    3.04
  -3  16   1   33.01    3.03
   3  16  -1   34.99    3.09
   2 -16  -1    4.66    0.81
   2 -16  -1    3.98    0.80
  -2  16   1    4.11    0.86
  -1 -16   1   59.98    4.55
   1 -16  -1   48.73    4.50
  -1  16   1   49.99    4.53
   1  16  -1   60.74    4.56
   0 -16  -1    2.78    0.70
   0 -16   1    0.86    0.63
   0 -16  -1    2.80    0.71
   0 -16   1    0.30    0.65
   0  16   1    2.80    0.80
   0  16  -1    0.96    0.70
   1 -16   1   37.95    3.31
   1 -16   1   39.52    3.33
  -1  16  -1   38.99    3.33
   2 -16   1   17.29    1.69
   2 -16   1   15.89    1.67
  -2  16  -1   15.21    1.64
   3 -16   1    6.87    1.09
   3 -16   1    7.34    1.16
  -3 -16  -1    6.78    0.87
  -3 -16  -1    6.20    1.01
   3  16   1    4.81    1.05
  -3  16  -1    6.85    1.11
  -4 -16  -1   54.79    4.18
   4 -16   1   46.93    4.11
   4 -16   1   43.58    4.10
  -4 -16  -1   53.45    3.91
  -4  16  -1   46.09    4.10
   4  16   1   53.01    4.20
   5 -16   1   16.29    1.65
   5 -16   1   15.31    1.63
  -5  16  -1   15.43    1.57
   6 -16   1  112.12    7.96
   6 -16   1  112.10    7.97
  -6 -16  -1   87.45    7.61
  -6 -16  -1   97.31    8.03
   6  16   1   89.20    8.00
  -7 -16  -1    1.37    0.76
   7  16   1    2.31    0.92
  -8 -16  -1   42.68    3.43
   8 -16   1   34.65    3.22
   8  16   1   39.67    3.44
   9 -16   1    3.17    0.73
   9  16   1    6.03    1.17
  10  16   1   15.47    1.95
  11  16   1    1.34    0.99
  12  16   1    0.24    0.96
  11  17  -1    0.44    1.00
  10 -17  -1    4.41    1.02
  10  17  -1    1.41    1.00
   9 -17  -1    0.67    0.77
   9 -17  -1    0.02    0.63
   9  17  -1    0.52    0.94
  -8 -17   1    5.44    1.03
   8 -17  -1    7.98    1.12
   8  17  -1    5.87    1.21
   7 -17  -1    7.55    1.08
  -7 -17   1    4.51    1.00
   7  17  -1    4.70    1.08
  -6 -17   1    0.31    0.51
   6 -17  -1   -0.04    0.63
   6 -17  -1    0.69    0.64
  -6 -17   1    0.39    0.76
   6  17  -1    0.57    0.88
  -5 -17   1    3.63    0.69
   5 -17  -1    5.17    0.86
  -5 -17   1    3.78    0.90
   5 -17  -1    3.72    0.80
  -5  17   1    4.35    0.78
   5  17  -1    3.73    1.00
   4 -17  -1    4.15    0.84
  -4 -17   1    5.47    0.99
  -4 -17   1    5.90    0.76
   4 -17  -1    4.34    0.90
  -4  17   1    3.52    0.88
   4  17  -1    6.24    1.08
  -3 -17   1   11.88    1.51
  -3 -17   1   13.33    1.32
   3  17  -1   11.69    1.58
   2 -17  -1    0.34    0.66
   2 -17  -1    0.09    0.66
  -2 -17   1    2.21    0.57
  -2 -17   1    1.54    0.74
  -2  17   1   -0.41    0.74
   2  17  -1    1.95    0.86
   1 -17  -1    1.27    0.68
   1 -17  -1    1.81    0.69
  -1 -17   1    0.44    0.68
   1  17  -1    0.27    0.78
  -1  17   1    1.17    0.84
   0 -17   1    1.20    0.69
   0 -17  -1   -0.05    0.65
   0 -17   1    0.85    0.69
   0 -17  -1    0.44    0.67
   0  17   1    0.18    0.81
   0  17  -1    0.56    0.74
   1 -17   1    0.83    0.66
  -1 -17  -1    1.44    0.72
   1 -17   1    0.99    0.67
  -1  17  -1    1.18    0.79
   1  17   1    1.43    0.85
   2 -17   1    2.70    0.75
  -2 -17  -1    1.03    0.74
   2 -17   1    2.11    0.73
   2  17   1    0.96    0.87
  -2  17  -1    2.93    0.81
  -3 -17  -1   14.45    1.76
   3 -17   1   19.59    1.76
  -3 -17  -1   15.23    1.52
   3 -17   1   17.93    1.74
  -3  17  -1   18.66    1.75
   3  17   1   13.84    1.80
   4 -17   1   18.95    1.81
  -4 -17  -1   16.87    1.54
  -4 -17  -1   15.42    1.75
   4 -17   1   18.79    1.75
   4  17   1   13.02    1.85
  -4  17  -1   17.53    1.76
   5 -17   1    8.62    1.26
   5 -17   1    9.53    1.32
  -5 -17  -1   11.23    1.12
  -5 -17  -1   11.73    1.38
  -5  17  -1    8.82    1.24
   5  17   1   10.05    1.46
  -6 -17  -1    3.34    0.57
  -6 -17  -1    4.12    0.90
   6 -17   1    1.84    0.75
   6 -17   1    1.81    0.75
   6  17   1    4.05    1.03
  -7 -17  -1    3.24    0.86
   7 -17   1    1.42    0.71
   7  17   1    2.28    0.92
  -8 -17  -1    1.13    0.81
   8 -17   1    1.07    0.64
   8  17   1    0.51    0.87
   9 -17   1    0.31    0.63
   9  17   1    1.13    0.94
  10 -17   1    2.94    0.70
  10  17   1    1.56    1.03
  11  17   1    0.48    0.97
  11  18  -1    5.13    1.29
  10  18  -1    0.12    0.96
   9 -18  -1   18.57    1.79
   9  18  -1   17.30    2.08
  -8 -18   1    2.29    0.86
   8 -18  -1    1.33    0.76
   8  18  -1    2.31    1.05
   7 -18  -1   31.17    2.99
  -7 -18   1   37.24    3.14
   7  18  -1   35.34    3.15
   6 -18  -1    5.14    0.90
  -6 -18   1    5.43    1.02
  -6 -18   1    4.79    0.77
   6  18  -1    5.36    1.08
   5 -18  -1    8.38    1.24
   5 -18  -1    8.41    1.13
  -5 -18   1    5.29    1.06
  -5 -18   1    5.09    0.83
   5  18  -1    5.30    1.13
  -5  18   1    7.24    0.95
   4 -18  -1   25.62    2.37
   4 -18  -1   27.01    2.45
  -4  18   1   25.54    2.43
   3 -18  -1    4.34    0.89
   3 -18  -1    5.26    0.91
  -3  18   1    5.96    0.98
  -2 -18   1   30.02    2.87
   2 -18  -1   35.86    2.90
  -2 -18   1   30.57    2.69
   2 -18  -1   33.91    2.87
  -2  18   1   33.39    2.91
   2  18  -1   29.53    2.88
   1 -18  -1    3.46    0.84
  -1 -18   1    4.99    0.93
   1 -18  -1    3.07    0.82
  -1  18   1    3.71    0.99
   1  18  -1    4.95    1.00
   0 -18   1    9.02    1.33
   0  18  -1   10.92    1.45
   1 -18   1    4.93    0.91
  -1 -18  -1    2.81    0.88
   1 -18   1    6.93    0.98
   1  18   1    2.91    0.98
  -1  18  -1    5.50    1.00
   2 -18   1   18.56    1.94
   2 -18   1   20.60    2.00
   3 -18   1   23.20    2.21
   3 -18   1   21.73    2.13
  -3  18  -1   22.63    2.18
   4 -18   1   11.51    1.41
  -4 -18  -1   10.65    1.41
  -4 -18  -1   11.82    1.20
   4 -18   1   12.71    1.46
   4  18   1    9.75    1.51
  -4  18  -1   11.42    1.42
  -5 -18  -1    0.40    0.48
   5 -18   1    0.51    0.68
  -5 -18  -1    0.71    0.74
   5 -18   1    0.46    0.68
   5  18   1    0.23    0.82
  -5  18  -1    0.21    0.62
   6 -18   1    1.14    0.74
  -6 -18  -1    2.05    0.83
   6  18   1    1.10    0.85
  -7 -18  -1    1.73    0.82
   7  18   1    1.37    0.90
   8 -18   1    2.16    0.73
   8  18   1    0.95    0.92
   9  18   1    5.47    1.28
  10 -18   1    3.79    0.79
  10  18   1    2.93    1.22
  11  18   1    9.96    1.55
  10  19  -1    0.05    0.98
   9 -19  -1   -0.19    0.67
   9  19  -1   -0.44    0.92
   8 -19  -1    5.09    0.97
   8  19  -1    5.74    1.24
  -7 -19   1   14.82    1.84
   7 -19  -1   17.91    1.75
   7  19  -1   14.92    1.93
  -6 -19   1    0.60    0.79
   6 -19  -1    0.72    0.71
  -6 -19   1    0.12    0.54
   6  19  -1    0.30    0.89
  -5 -19   1    5.24    0.83
  -5 -19   1    5.69    1.10
   5  19  -1    5.32    1.15
  -5  19   1    8.72    1.15
   4 -19  -1    0.06    0.70
  -4 -19   1   -0.14    0.50
  -4 -19   1   -0.24    0.73
   4 -19  -1   -0.53    0.65
  -4  19   1   -0.84    0.74
   4  19  -1    0.06    0.88
  -3 -19   1   10.75    1.49
   3 -19  -1   14.32    1.55
  -3 -19   1   10.10    1.31
   3 -19  -1   14.31    1.46
   3  19  -1   10.12    1.59
  -3  19   1   15.19    1.61
   2 -19  -1   12.07    1.51
   2 -19  -1   11.70    1.43
  -2 -19   1   10.73    1.28
  -2 -19   1   10.86    1.45
   2  19  -1   11.63    1.54
  -2  19   1   12.21    1.56
  -1 -19   1    3.44    0.87
   1 -19  -1    2.52    0.82
   1  19  -1    2.80    0.99
  -1  19   1    2.33    0.94
   0 -19   1    4.10    0.94
   0  19  -1    4.46    1.07
   0  19   1    7.80    1.17
   1 -19   1    1.45    0.77
  -1 -19  -1    2.31    0.82
  -1  19  -1    1.08    0.87
   1  19   1    1.36    0.97
   2 -19   1    1.76    0.77
   2 -19   1    2.89    0.81
  -2  19  -1    1.99    0.86
  -3 -19  -1    1.66    0.55
   3 -19   1    0.51    0.70
  -3 -19  -1    1.33    0.75
   3 -19   1    0.57    0.72
   3  19   1    0.81    0.96
  -3  19  -1    0.01    0.80
   4 -19   1    3.78    0.84
  -4 -19  -1    3.29    0.87
   4 -19   1    4.41    0.90
  -4 -19  -1    3.09    0.62
  -4  19  -1    3.48    0.85
   4  19   1    3.22    1.06
   5 -19   1    6.86    1.05
   5 -19   1    7.04    1.07
  -5 -19  -1    6.77    0.98
  -5 -19  -1    6.92    1.13
   5  19   1    6.80    1.25
   6 -19   1   10.80    1.40
  -6 -19  -1    9.60    1.44
   6  19   1   12.04    1.62
  -7 -19  -1    0.12    0.78
   7 -19   1   -0.36    0.72
   7  19   1   -0.01    0.91
   8 -19   1    0.12    0.68
   8  19   1    0.08    0.92
   9 -19   1    0.07    0.69
   9  19   1    0.39    1.01
  10 -19   1   -0.10    0.69
  10  19   1    0.41    1.04
  10  20  -1    1.95    1.17
   9 -20  -1    2.05    0.81
   9  20  -1    0.43    1.00
   8 -20  -1    1.29    0.81
   8  20  -1    0.96    0.99
   7 -20  -1   12.24    1.66
  -7 -20   1   16.81    1.84
   7  20  -1   17.28    1.95
  -6 -20   1    0.13    0.80
   6 -20  -1   -0.14    0.68
   6  20  -1    0.14    0.92
  -5 -20   1   16.83    1.71
  -5 -20   1   17.50    1.92
   5  20  -1   17.50    2.02
   4 -20  -1    6.82    1.14
   4 -20  -1    7.97    1.10
  -4  20   1    6.32    1.09
   3 -20  -1   19.54    2.15
   3 -20  -1   16.77    2.05
  -3 -20   1   25.90    2.24
  -3 -20   1   24.15    2.01
  -3  20   1   20.10    2.20
   3  20  -1   27.69    2.33
   2 -20  -1    7.23    1.09
  -2  20   1    7.46    1.17
  -1 -20   1   18.83    2.11
   1 -20  -1   23.12    2.15
   1  20  -1   23.56    2.27
  -1  20   1   22.62    2.23
   0 -20  -1    6.08    1.05
   0  20   1    5.48    1.21
  -1 -20  -1    2.51    0.85
  -1  20  -1    5.67    1.03
   1  20   1    2.36    1.06
  -2 -20  -1   33.45    2.79
  -2  20  -1   24.76    2.74
   2  20   1   33.61    2.90
  -3 -20  -1    1.51    0.57
   3 -20   1    3.40    0.86
   3 -20   1    3.03    0.81
  -3 -20  -1    1.38    0.79
   3  20   1    2.04    1.01
  -3  20  -1    3.33    0.94
   4 -20   1   15.03    1.80
  -4 -20  -1   18.93    1.65
   4 -20   1   17.77    1.89
  -4 -20  -1   18.55    1.88
  -4  20  -1   15.36    1.81
   4  20   1   19.44    2.03
   5 -20   1    2.03    0.80
  -5 -20  -1    0.61    0.80
   5  20   1   -0.39    0.89
   6 -20   1    0.73    0.73
  -6 -20  -1    0.97    0.82
   6  20   1    0.91    0.93
  -7 -20  -1    7.09    1.19
   7  20   1    6.20    1.34
   8 -20   1   16.49    1.70
   8  20   1   14.12    2.02
   9 -20   1    2.90    0.87
   9  20   1    6.75    1.37
  10 -20   1    3.58    0.86
  10  20   1    2.96    1.26
   9 -21  -1    0.21    0.78
   9  21  -1    0.11    1.01
   8 -21  -1   -0.18    0.78
   8  21  -1    0.03    0.99
  -7 -21   1    1.00    0.85
   7 -21  -1    1.78    0.84
   7  21  -1    1.48    0.99
   6 -21  -1    1.51    0.78
  -6 -21   1    0.19    0.85
   6  21  -1    0.44    0.96
   5 -21  -1    2.66    0.85
  -5 -21   1    3.50    0.95
   5  21  -1    3.54    1.16
   4 -21  -1    0.14    0.71
  -4 -21   1    0.52    0.84
  -4  21   1    0.31    0.83
   4  21  -1    1.18    0.96
  -3 -21   1    1.23    0.83
   3 -21  -1   -0.43    0.68
   3  21  -1    1.85    1.04
  -3  21   1   -0.37    0.82
  -2 -21   1    0.77    0.80
   2 -21  -1    2.57    0.79
  -2  21   1    3.55    0.97
   2  21  -1    1.00    1.03
   1 -21  -1    0.11    0.71
  -1 -21   1   -0.42    0.73
  -1  21   1   -0.17    0.90
   1  21  -1   -0.16    0.95
   0 -21  -1    4.53    0.96
   0  21   1    5.76    1.19
  -1 -21  -1    4.51    0.93
   1 -21   1    1.53    0.79
   1  21   1    3.84    1.13
  -1  21  -1    2.08    0.97
   2 -21   1    2.04    0.80
  -2 -21  -1    0.82    0.74
  -2  21  -1    1.83    0.91
   2  21   1    0.03    0.93
  -3 -21  -1    1.03    0.79
   3 -21   1    0.18    0.75
  -3 -21  -1    0.94    0.54
   3  21   1    1.15    0.91
  -3  21  -1    0.85    0.87
   4 -21   1   -0.44    0.71
  -4 -21  -1    0.23    0.80
   4  21   1   -0.52    0.87
  -4  21  -1   -0.28    0.77
  -5 -21  -1   -0.19    0.81
   5 -21   1    1.55    0.80
   5  21   1   -0.17    0.92
  -6 -21  -1    0.00    0.81
   6 -21   1    0.26    0.76
   6  21   1    0.65    0.96
   7 -21   1    1.73    0.77
  -7 -21  -1    0.48    0.87
   7  21   1    0.68    1.03
   8 -21   1    2.62    0.86
   8  21   1    0.95    1.08
   9 -21   1    0.84    0.80
   9  21   1    0.25    1.07
  10 -21   1    0.21    0.77
   9 -22  -1    5.60    1.02
   9  22  -1    2.56    1.27
   8 -22  -1    2.93    0.95
  -7 -22   1   -0.41    0.82
   7 -22  -1   -0.01    0.80
   7  22  -1    0.55    0.99
   6 -22  -1    0.36    0.79
  -6 -22   1    1.69    0.95
   6  22  -1    0.52    1.00
   5 -22  -1    9.49    1.39
  -5 -22   1   10.68    1.52
   5  22  -1   11.32    1.72
  -4 -22   1    1.65    0.91
   4  22  -1    2.93    1.16
   3 -22  -1    7.57    1.21
  -3  22   1    6.87    1.16
  -2 -22   1    2.19    0.90
   2 -22  -1    2.90    0.87
  -2  22   1    2.68    1.01
   2  22  -1    2.22    1.05
  -1 -22   1   24.62    2.42
   1  22  -1   25.22    2.50
   0 -22  -1    0.24    0.73
   0 -22   1    0.04    0.76
   0  22   1    0.27    0.87
   0  22  -1    0.10    0.92
   1 -22   1   11.17    1.50
  -1  22  -1   12.27    1.70
  -2 -22  -1   15.27    1.73
   2 -22   1   13.55    1.69
  -2  22  -1   15.62    1.85
   2  22   1   16.40    1.98
   3 -22   1   12.52    1.55
  -3  22  -1   11.35    1.64
   4 -22   1   11.92    1.52
  -4 -22  -1   10.37    1.54
   4  22   1   12.26    1.79
   5 -22   1    2.19    0.85
  -5 -22  -1    1.97    0.93
   5  22   1    1.45    1.03
  -6 -22  -1   11.43    1.60
   6  22   1   12.11    1.83
   7 -22   1    1.25    0.79
  -7 -22  -1    0.89    0.92
   7  22   1    0.43    1.03
   8 -22   1   36.13    3.11
   8  22   1   32.99    3.36
   9 -22   1    0.71    0.82
   9  22   1    1.14    1.10
  10 -22   1   15.99    1.83
  10 -23  -1   -0.62    0.89
   9 -23  -1    1.64    0.88
   8 -23  -1    1.36    0.93
   8  23  -1    0.73    1.08
  -7 -23   1    0.48    0.91
   7 -23  -1    0.55    0.85
   7  23  -1    1.54    1.20
   6 -23  -1    0.58    0.84
  -6 -23   1   -0.07    0.88
   6  23  -1   -0.48    0.96
   5 -23  -1    1.36    0.82
  -5 -23   1    0.89    0.92
   5  23  -1   -0.40    0.95
  -4 -23   1    1.50    0.91
   4 -23  -1    1.32    0.86
   4  23  -1    1.45    1.00
   3 -23  -1    3.46    0.95
  -3 -23   1    6.14    1.15
   3  23  -1    5.67    1.30
  -3  23   1    4.00    1.08
   2 -23  -1    1.45    0.81
  -2 -23   1    0.87    0.87
   2  23  -1    1.00    0.96
  -2  23   1    2.27    1.00
  -1 -23   1    2.60    0.93
   1 -23  -1    1.59    0.83
   1  23  -1    2.01    1.08
  -1  23   1    1.80    1.03
   0 -23  -1   -0.17    0.77
   0 -23   1    0.71    0.81
   0  23  -1    0.51    1.01
   0  23   1   -0.10    0.88
  -1 -23  -1    3.14    0.92
   1 -23   1    1.78    0.86
  -1  23  -1    1.77    1.03
   1  23   1    2.70    1.20
   2 -23   1    4.03    0.95
  -2  23  -1    3.36    1.11
   2  23   1    1.29    1.02
  -3 -23  -1    1.42    0.90
   3 -23   1    0.29    0.83
   3  23   1    1.25    1.04
  -3  23  -1    0.27    0.92
  -4 -23  -1    6.36    1.15
   4 -23   1    3.46    0.98
   4  23   1    5.51    1.34
  -5 -23  -1    3.78    1.03
   5 -23   1    2.51    0.90
   5  23   1    2.44    1.25
   6 -23   1   18.55    1.86
  -6 -23  -1   13.93    1.88
   6  23   1   15.75    2.12
   7 -23   1    1.65    0.84
   7  23   1    2.49    1.14
   8 -23   1    1.60    0.87
   8  23   1    4.40    1.39
   9 -23   1    0.71    0.84
  10 -23   1   -0.37    0.87
   9 -24  -1   11.18    1.59
   8 -24  -1    2.22    0.99
   8  24  -1    4.84    1.36
   7 -24  -1   19.85    2.07
   7  24  -1   16.97    2.25
  -6 -24   1    6.02    1.24
   6  24  -1    6.86    1.45
  -5 -24   1    9.62    1.61
   5 -24  -1   10.29    1.45
   5  24  -1   10.02    1.63
   4 -24  -1    2.70    0.90
  -4 -24   1    0.78    0.92
   4  24  -1    0.40    1.02
  -3 -24   1   15.24    1.87
   3 -24  -1   17.64    1.87
   3  24  -1   16.24    2.05
   2 -24  -1    6.70    1.15
  -2  24   1    5.88    1.27
  -1 -24   1    1.70    0.91
   1 -24  -1    0.54    0.81
   1  24  -1    0.57    0.95
  -1  24   1    0.79    0.93
   0 -24   1   18.11    2.18
   0 -24  -1   22.83    2.20
   0  24  -1   19.74    2.30
   0  24   1   24.10    2.38
   1 -24   1   10.96    1.47
  -1 -24  -1    8.06    1.33
  -1  24  -1   10.44    1.48
   1  24   1    8.33    1.50
   2 -24   1   23.89    2.77
  -2 -24  -1   34.92    2.89
  -2  24  -1   25.95    2.88
   2  24   1   36.92    3.05
  -3 -24  -1    0.84    0.87
   3 -24   1    4.10    0.97
   3  24   1    1.02    1.06
  -4 -24  -1   43.30    3.98
   4  24   1   46.44    4.09
  -5 -24  -1    2.08    0.98
   5 -24   1    2.63    0.94
   5  24   1    0.76    1.09
  -6 -24  -1    2.35    1.01
   6 -24   1    0.23    0.80
   6  24   1    4.11    1.37
   7  24   1   10.00    1.75
   8 -24   1    4.72    1.05
   9 -24   1    2.97    0.97
   8 -25  -1    0.85    0.95
   7 -25  -1    3.85    1.03
   7  25  -1    1.69    1.16
  -6 -25   1    3.84    1.13
   6 -25  -1    5.50    1.12
   6  25  -1    3.61    1.36
  -5 -25   1   17.93    2.06
   5  25  -1   16.09    2.17
   4 -25  -1    1.95    0.90
  -4 -25   1    2.93    1.09
   4  25  -1    3.03    1.27
  -3 -25   1    2.15    0.96
   3 -25  -1    0.51    0.84
   3  25  -1    1.71    1.07
   2 -25  -1    3.16    0.96
  -2 -25   1    1.28    0.93
   2  25  -1    0.17    1.03
  -2  25   1    3.15    1.13
   1 -25  -1    3.02    0.97
  -1 -25   1    1.70    0.92
   1  25  -1    1.31    1.04
  -1  25   1    3.30    1.18
   0 -25  -1    5.25    1.06
   0 -25   1    2.48    0.99
   0  25  -1    2.27    1.19
   0  25   1    4.88    1.26
   1 -25   1    3.21    1.00
  -1 -25  -1    4.29    1.04
   1  25   1    3.84    1.27
  -1  25  -1    4.14    1.27
  -2 -25  -1    1.49    0.93
   2  25   1    2.56    1.24
  -3 -25  -1    6.01    1.25
   3 -25   1    8.20    1.30
   3  25   1    5.74    1.50
  -4 -25  -1   14.81    2.01
   4 -25   1   18.77    1.98
   4  25   1   17.74    2.28
   5 -25   1    2.42    0.94
  -5 -25  -1    2.04    1.03
   5  25   1    2.81    1.38
   6 -25   1    1.15    0.87
  -6 -25  -1    1.06    1.00
   6  25   1    0.41    1.11
   7 -25   1    0.30    0.88
   7  25   1    0.99    1.17
   8 -25   1    0.66    0.87
   7 -26  -1    4.00    1.09
  -6 -26   1    2.15    1.09
   6 -26  -1    3.12    1.04
   6  26  -1    2.54    1.36
   5 -26  -1    3.02    1.00
  -5 -26   1    2.27    1.05
   5  26  -1    1.41    1.17
   4 -26  -1    6.24    1.12
  -4 -26   1    3.46    1.17
   4  26  -1    2.78    1.38
  -3 -26   1   16.44    2.04
   3  26  -1   17.73    2.21
  -2 -26   1    3.65    1.08
   2 -26  -1    1.64    0.95
   2  26  -1    4.18    1.32
  -1 -26   1   18.56    2.14
   1  26  -1   20.13    2.32
   0 -26   1    2.01    0.93
   0 -26  -1    0.78    0.88
   0  26  -1    1.18    1.05
   0  26   1    1.04    1.01
  -1 -26  -1    2.11    0.98
   1  26   1    4.20    1.32
   2 -26   1    5.65    1.15
  -2 -26  -1    5.78    1.22
   2  26   1    5.81    1.41
  -3 -26  -1    5.74    1.26
   3  26   1    7.19    1.54
  -4 -26  -1   16.95    2.19
   4 -26   1   22.57    2.17
   4  26   1   19.13    2.42
  -5 -26  -1    0.06    0.95
   5 -26   1    0.74    0.83
   5  26   1   -0.20    1.11
   6 -26   1   30.57    2.84
  -6 -26  -1   27.94    2.97
   6  26   1   30.60    3.10
   7 -26   1    0.87    0.89
  -6 -27   1    4.77    1.23
  -5 -27   1   -0.38    0.95
   5 -27  -1    0.12    0.92
   5  27  -1   -0.34    1.08
   4 -27  -1   22.34    2.39
  -4 -27   1   22.92    2.48
   4  27  -1   24.76    2.67
   3 -27  -1    6.10    1.26
  -3 -27   1   10.32    1.62
   3  27  -1   10.14    1.70
   2 -27  -1   26.62    2.68
  -2 -27   1   27.85    2.77
   2  27  -1   27.87    2.90
   1 -27  -1    0.23    0.87
  -1 -27   1    1.56    0.97
   1  27  -1    0.86    1.11
   0 -27   1    5.30    1.20
   0  27  -1    6.05    1.49
   1 -27   1    1.92    0.98
  -1 -27  -1    3.38    1.09
   1  27   1    2.60    1.31
  -2 -27  -1    1.01    0.98
   2 -27   1    0.87    0.93
   2  27   1    1.15    1.09
  -3 -27  -1    4.15    1.14
   3 -27   1    1.04    0.96
   3  27   1    4.10    1.45
   4 -27   1    0.38    0.86
  -4 -27  -1    2.13    1.06
   4  27   1    1.74    1.14
   5 -27   1    0.59    0.89
  -5 -27  -1    0.82    1.04
   5  27   1    0.81    1.14
  -5 -28   1    4.58    1.28
   5  28  -1    6.30    1.59
  -4 -28   1    0.03    0.94
   4 -28  -1   -0.22    0.92
   4  28  -1    0.45    1.17
  -3 -28   1    3.23    1.13
   3 -28  -1    4.21    1.11
   3  28  -1    3.45    1.46
   2 -28  -1    7.99    1.34
  -2 -28   1    6.38    1.32
   2  28  -1    7.62    1.66
   1 -28  -1    0.19    0.90
  -1 -28   1    0.50    0.95
   1  28  -1    0.28    1.13
   0 -28   1   14.54    2.15
   0 -28  -1   23.17    2.22
   0  28  -1   15.99    2.42
   0  28   1   23.17    2.43
   1 -28   1   -0.37    0.90
  -1 -28  -1    0.23    0.94
   1  28   1   -0.57    1.04
  -2 -28  -1   15.41    1.97
   2  28   1   15.80    2.23
   3 -28   1    1.29    0.92
  -3 -28  -1    0.84    1.00
   3  28   1    0.65    1.16
  -4 -28  -1    5.69    1.31
   4  28   1    5.88    1.58
  -5 -28  -1    1.24    1.08
   5  28   1    1.06    1.20
  -5 -29   1    1.86    1.14
  -4 -29   1    0.71    1.01
   4  29  -1   -0.20    1.20
  -3 -29   1    3.88    1.16
   3  29  -1    3.04    1.55
  -2 -29   1    0.40    0.97
   2  29  -1    0.08    1.20
   1 -29  -1    2.85    1.08
  -1 -29   1    0.72    1.01
   1  29  -1    2.05    1.44
   0 -29   1    0.78    0.97
   0 -29  -1    3.05    1.10
  -1 -29  -1    4.72    1.25
   1 -29   1    5.61    1.23
   1  29   1    4.98    1.51
  -2 -29  -1    2.66    1.12
   2  29   1    3.69    1.45
  -3 -29  -1    2.18    1.11
   3  29   1    0.83    1.19
  -4 -29  -1    3.33    1.21
   4  29   1    3.79    1.48
  -5 -29  -1    5.02    1.35
   3  30  -1    7.85    1.79
   2  30  -1    1.40    1.30
   2  30   1    0.71    1.19
   3  30   1    0.64    1.21
   2  31   1    0.56    1.24
  14   0  -2    0.35    0.85
  13   0  -2    0.99    0.80
  12   0  -2   25.12    2.31
  11   0  -2    2.05    0.78
  10   0  -2   -0.06    0.65
   9   0  -2   10.03    1.24
   9   0  -2    9.43    1.04
   9   0  -2   10.78    1.08
   8   0  -2  121.14    9.30
   8   0  -2  119.53    9.30
   8   0  -2  114.62    9.10
   7   0  -2  182.74   13.97
   7   0  -2  180.63   14.36
   7   0  -2  187.96   14.36
  -6   0   2   95.13    7.00
   6   0  -2   90.68    6.99
   6   0  -2   90.76    7.15
   6   0  -2   87.39    7.14
   5   0  -2  335.21   25.04
  -5   0   2  340.70   25.04
   5   0  -2  336.95   25.84
   5   0  -2  334.20   25.84
  -5   0   2  311.94   25.83
  -4   0   2  244.52   18.48
   4   0  -2  250.62   19.07
   4   0  -2  238.51   18.47
   4   0  -2  244.23   19.07
   3   0  -2  650.24   50.77
  -3   0   2  619.43   50.71
   3   0  -2  664.13   49.25
  -3   0   2  663.25   49.17
   3   0  -2  659.49   50.80
  -2   0   2  937.17   75.99
   2   0  -2 1000.00   76.04
   2   0  -2  968.70   76.01
  -2   0   2  984.79   73.53
   2   0  -2  986.39   73.60
  -1   0   2    4.10    0.53
   1   0  -2    3.64    0.54
  -1   0   2    4.20    0.52
   1   0  -2    4.64    0.49
   0   0  -2  479.21   37.80
   0   0  -2  467.60   36.51
   0   0   2  497.41   36.50
   0   0   2  492.90   37.79
  -1   0  -2    0.24    0.24
   1   0   2    0.20    0.17
   1   0   2    0.31    0.24
   2   0   2  696.89   54.73
  -2   0  -2  707.26   54.72
   3   0   2    0.77    0.31
  -3   0  -2    0.66    0.26
   4   0   2  136.98   10.67
  -4   0  -2  136.21   10.65
   5   0   2   32.63    2.57
   5   0   2   32.08    2.56
   5   0   2   30.34    2.50
   6   0   2    0.24    0.34
   6   0   2    0.09    0.39
   6   0   2    0.16    0.32
   7   0   2   64.51    5.12
   7   0   2   67.92    5.23
   8   0   2    5.97    0.88
   9   0   2    4.30    0.77
  10   0   2    6.67    1.02
  11   0   2   -0.43    0.62
  12   0   2   25.48    2.29
  14  -1  -2    1.58    0.90
  14   1  -2    1.29    0.87
  13  -1  -2    2.36    0.83
  13   1  -2    0.86    0.81
  12  -1  -2    0.60    0.79
  12   1  -2    0.12    0.73
  11   1  -2    4.68    0.86
  11   1  -2    4.73    0.66
  10  -1  -2   17.67    1.86
  10   1  -2   19.58    1.72
  10   1  -2   18.17    1.82
  10   1  -2   21.30    1.75
   9   1  -2    3.28    0.75
   9   1  -2    3.23    0.59
   9   1  -2    3.18    0.57
   8  -1  -2    3.94    0.54
   8  -1  -2    4.35    0.76
   8  -1  -2    2.72    0.54
   8   1  -2    5.98    0.76
   7  -1  -2    2.45    0.61
   7  -1  -2    2.37    0.47
  -7  -1   2    4.58    0.69
   7   1  -2    3.97    0.54
   7   1  -2    4.12    0.67
   7   1  -2    3.72    0.56
   6  -1  -2   14.48    1.26
   6  -1  -2   13.36    1.13
   6  -1  -2   12.83    1.13
  -6  -1   2   12.04    1.24
  -6  -1   2   11.15    1.08
   6   1  -2   10.90    1.15
   6   1  -2   11.58    1.17
   6   1  -2   12.40    1.23
   5  -1  -2  108.16    9.35
   5  -1  -2  113.23    9.35
   5  -1  -2  112.75    9.12
  -5  -1   2  127.21    9.12
   5   1  -2  127.40    9.12
   5   1  -2  127.70    9.37
   5   1  -2  125.10    9.37
  -5   1   2  115.23    9.12
  -4  -1   2   98.00    8.19
   4  -1  -2  122.49    8.42
   4  -1  -2  117.41    8.42
  -4  -1   2   94.55    8.42
   4  -1  -2  117.95    8.21
  -4   1   2  118.14    8.21
   4   1  -2  100.96    8.43
   4   1  -2  102.87    8.19
   4   1  -2   95.78    8.42
   3  -1  -2  547.69   41.08
  -3  -1   2  554.68   40.94
   3  -1  -2  531.46   42.25
  -3  -1   2  550.99   42.20
   3   1  -2  552.13   42.26
   3   1  -2  563.40   40.96
  -3   1   2  495.00   42.17
  -3   1   2  514.46   40.82
   3   1  -2  568.43   42.23
  -2  -1   2  240.68   18.79
   2  -1  -2  229.37   18.18
  -2  -1   2  251.08   18.80
   2  -1  -2  231.01   18.79
  -2  -1   2  254.28   18.18
  -2   1   2  231.91   18.18
   2   1  -2  252.38   18.28
   2   1  -2  253.41   18.80
   2   1  -2  241.57   18.79
  -2   1   2  223.65   18.78
   1  -1  -2  272.45   23.24
  -1  -1   2  318.11   24.02
  -1  -1   2  324.50   23.30
  -1  -1   2  321.64   24.02
   1  -1  -2  294.32   24.06
  -1   1   2  281.10   23.98
  -1   1   2  280.92   23.18
   1   1  -2  317.93   24.09
   1   1  -2  349.12   24.10
   1   1  -2  321.90   23.32
   0  -1   2    0.77    0.26
   0  -1   2    1.12    0.27
   0  -1  -2    0.61    0.19
   0  -1   2    1.17    0.23
   0  -1  -2    0.39    0.25
   0   1   2    0.57    0.26
   0   1  -2    1.35    0.28
   0   1  -2    1.25    0.27
   0   1  -2    1.23    0.22
  -1  -1  -2   54.33    4.50
   1  -1   2   60.29    4.49
  -1  -1  -2   50.32    4.31
   1   1   2   50.62    4.49
  -1   1  -2   64.20    4.49
  -1   1  -2   65.29    4.50
   1   1   2   53.83    4.31
   2  -1   2  255.67   19.21
  -2  -1  -2  232.76   19.17
   2   1   2  238.55   19.17
  -2   1  -2  254.13   19.22
  -2   1  -2  249.01   19.16
  -3  -1  -2  214.97   17.60
   3  -1   2  235.28   17.60
   3   1   2  223.10   17.61
   3   1   2  220.71   17.61
  -3   1  -2  235.12   17.59
   4  -1   2  112.35    7.99
  -4  -1  -2  100.06    7.99
   4   1   2   98.74    8.00
   4   1   2  102.43    8.01
   4   1   2   97.17    7.73
   5   1   2   27.93    2.25
   5   1   2   29.54    2.33
   5   1   2   28.03    2.32
   6  -1   2   60.34    4.13
   6   1   2   49.46    4.10
   6   1   2   51.98    4.21
   6   1   2   50.81    4.21
   7  -1   2   51.78    3.90
   7   1   2   48.17    3.95
   7   1   2   48.41    3.96
   7   1   2   50.42    3.88
   8  -1   2    2.11    0.62
   8   1   2    3.20    0.51
   8   1   2    2.70    0.49
   8   1   2    1.87    0.57
   9  -1   2    0.33    0.58
   9   1   2    0.32    0.53
   9   1   2    0.46    0.45
   9   1   2    0.30    0.44
  10   1   2    7.47    1.05
  11  -1   2    6.13    0.92
  11   1   2    4.92    0.86
  12  -1   2   -0.92    0.68
  12   1   2   -0.72    0.63
  14  -2  -2    3.45    0.96
  13  -2  -2    2.84    0.93
  13   2  -2    1.80    0.84
  12  -2  -2   34.87    3.15
  12   2  -2   37.63    3.11
  11  -2  -2    6.94    1.04
  11   2  -2    5.96    0.89
  11   2  -2    5.40    0.96
  10  -2  -2    4.38    0.90
  10   2  -2    6.58    1.00
  10   2  -2    7.06    0.91
  10   2  -2    5.98    0.88
   9  -2  -2    3.47    0.74
   9   2  -2    2.27    0.56
   9   2  -2    2.12    0.58
   9   2  -2    2.06    0.66
   8  -2  -2   32.25    2.78
  -8  -2   2   37.81    2.80
   8   2  -2   32.23    2.76
   8   2  -2   32.52    2.76
   8   2  -2   32.53    2.74
  -7  -2   2    1.43    0.52
   7  -2  -2    2.23    0.60
   7  -2  -2    1.00    0.38
   7  -2  -2    1.81    0.37
   7   2  -2    1.72    0.53
   7   2  -2    0.97    0.45
   7   2  -2    0.87    0.47
  -6  -2   2    7.34    0.97
   6  -2  -2    8.90    0.82
   6  -2  -2    8.73    0.81
   6  -2  -2    8.62    1.02
   6   2  -2    6.23    0.92
   6   2  -2    7.12    0.93
  -5  -2   2   36.58    3.22
  -5  -2   2   40.90    3.21
  -5  -2   2   40.45    3.23
   5   2  -2   41.62    3.26
   5   2  -2   42.51    3.26
   5   2  -2   40.51    3.19
  -4  -2   2    7.33    0.85
   4  -2  -2    7.63    0.87
   4  -2  -2    7.01    0.76
  -4  -2   2    7.08    0.78
  -4  -2   2    7.74    0.82
   4   2  -2    7.36    0.86
  -4   2   2    7.24    0.86
   4   2  -2    7.31    0.80
  -4   2   2    6.52    0.74
   4   2  -2    7.49    0.82
  -3  -2   2  123.09    9.45
   3  -2  -2  113.97    9.43
   3  -2  -2  113.71    9.16
  -3  -2   2  124.85    9.16
  -3  -2   2  121.84    9.45
   3   2  -2  121.52    9.15
  -3   2   2  112.20    9.16
   3   2  -2  126.43    9.46
   3   2  -2  127.60    9.46
  -2  -2   2   16.56    1.57
   2  -2  -2   19.42    1.55
  -2  -2   2   17.40    1.51
   2  -2  -2   20.23    1.55
  -2  -2   2   17.45    1.58
   2   2  -2   18.77    1.51
  -2   2   2   19.20    1.55
   2   2  -2   17.39    1.57
   2   2  -2   17.05    1.56
  -2   2   2   18.33    1.53
  -1  -2   2  866.06   69.89
   1  -2  -2  914.76   67.62
  -1  -2   2  883.78   69.93
   1  -2  -2  910.96   69.94
  -1  -2   2  873.04   67.59
  -1   2   2  884.19   69.90
   1   2  -2  869.73   69.93
   1   2  -2  889.58   67.62
  -1   2   2  959.32   67.57
   1   2  -2  914.30   69.93
   0  -2   2    2.77    0.42
   0  -2   2    2.45    0.37
   0  -2   2    3.08    0.48
   0   2  -2    2.70    0.38
   0   2  -2    2.48    0.37
   0   2  -2    2.17    0.38
   1  -2   2  746.32   56.92
  -1  -2  -2  699.34   56.93
   1  -2   2  753.74   56.89
  -1   2  -2  759.09   56.94
   1   2   2  693.43   56.89
  -1   2  -2  748.34   56.91
   1   2   2  710.08   56.89
   2  -2   2  192.85   14.96
   2  -2   2  192.37   14.96
  -2   2  -2  190.42   14.98
  -3  -2  -2  252.01   20.09
   3  -2   2  246.14   20.08
   3   2   2  273.86   20.11
   3   2   2  268.28   20.10
  -3   2  -2  249.04   20.09
  -4  -2  -2   10.41    0.98
   4   2   2    9.98    1.02
   4   2   2   10.12    1.01
   4   2   2   11.15    0.92
  -5  -2  -2   21.20    1.76
   5   2   2   21.31    1.79
   5   2   2   21.78    1.72
   5   2   2   20.53    1.79
   6   2   2  128.61    9.89
   6   2   2  123.11    9.88
   6   2   2  126.52    9.56
   7  -2   2    1.26    0.50
   7   2   2    2.05    0.49
   7   2   2    1.87    0.47
   7   2   2    1.73    0.48
   8  -2   2   65.21    5.70
   8   2   2   77.03    5.84
   8   2   2   78.07    5.84
   8   2   2   73.74    5.68
   9  -2   2    1.21    0.61
   9   2   2    0.56    0.53
   9   2   2    0.31    0.50
   9   2   2    0.00    0.50
  10  -2   2   56.34    4.40
  10   2   2   53.80    4.35
  11  -2   2    1.43    0.74
  11   2   2    2.19    0.66
  12  -2   2   19.59    1.85
  12   2   2   17.87    1.75
  13  -2   2    4.39    0.94
  14  -3  -2    3.18    1.03
  13  -3  -2    1.91    0.91
  13   3  -2    3.06    0.88
  12  -3  -2    2.44    0.92
  12   3  -2    4.17    0.87
  12   3  -2    3.44    0.70
  11   3  -2   19.74    1.83
  11   3  -2   21.17    1.94
  10  -3  -2    7.72    1.08
  10   3  -2    5.67    0.89
  10   3  -2    5.40    0.79
  10   3  -2    6.22    0.96
   9   3  -2   42.50    3.53
   9   3  -2   42.15    3.50
   9   3  -2   44.76    3.54
  -8  -3   2    2.36    0.65
   8   3  -2    2.48    0.63
   8   3  -2    1.74    0.56
   8   3  -2    2.21    0.56
  -7  -3   2    8.76    0.90
   7  -3  -2    7.31    1.11
  -7  -3   2   10.23    1.11
   7   3  -2    9.33    1.04
   7   3  -2    9.30    1.04
   7   3  -2   11.38    1.08
  -6  -3   2   37.49    3.01
  -6  -3   2   39.66    3.03
   6   3  -2   36.53    2.98
   6   3  -2   37.63    3.05
   6   3  -2   35.02    3.04
  -5  -3   2    1.16    0.41
   5  -3  -2    0.54    0.47
  -5  -3   2    1.20    0.39
  -5  -3   2    1.17    0.44
   5  -3  -2    0.54    0.32
   5   3  -2    1.62    0.44
   5   3  -2    1.26    0.44
   5   3  -2    1.26    0.47
  -4  -3   2   21.53    1.83
  -4  -3   2   21.13    1.79
   4  -3  -2   21.57    1.79
  -4  -3   2   21.36    1.82
   4  -3  -2   21.61    1.83
   4   3  -2   22.06    1.79
   4   3  -2   21.54    1.83
   4   3  -2   22.56    1.86
  -4   3   2   21.17    1.77
   3  -3  -2    2.78    0.41
  -3  -3   2    2.80    0.46
  -3  -3   2    3.13    0.46
  -3  -3   2    2.74    0.48
   3  -3  -2    2.62    0.48
  -3   3   2    2.18    0.37
   3   3  -2    3.23    0.49
  -3   3   2    2.74    0.42
   3   3  -2    3.01    0.46
   3   3  -2    2.88    0.51
  -2  -3   2  296.08   22.76
   2  -3  -2  311.60   23.59
   2  -3  -2  306.44   22.77
  -2  -3   2  290.96   23.55
  -2  -3   2  301.90   23.55
   2   3  -2  289.90   23.55
   2   3  -2  312.14   23.56
   2   3  -2  304.19   22.86
  -2   3   2  307.57   23.54
  -2   3   2  301.04   23.54
  -1  -3   2  186.27   14.45
  -1  -3   2  183.72   14.95
   1  -3  -2  212.94   14.96
   1  -3  -2  200.95   14.45
  -1  -3   2  180.68   14.95
   1   3  -2  173.28   14.44
   1   3  -2  187.55   14.96
  -1   3   2  205.80   14.96
   1   3  -2  180.65   14.95
  -1   3   2  201.37   14.95
   0  -3  -2  242.61   18.66
   0  -3  -2  240.82   18.00
   0  -3   2  239.99   18.62
   0  -3   2  232.59   17.99
   0  -3  -2  233.13   18.66
   0  -3   2  236.11   18.62
   0   3  -2  235.11   18.62
   0   3   2  240.43   18.62
   0   3  -2  234.10   18.62
   0   3   2  249.82   18.63
   1  -3   2  369.14   27.88
  -1  -3  -2  359.38   27.93
  -1  -3  -2  367.10   26.93
  -1  -3  -2  340.92   27.97
   1  -3   2  351.28   27.89
  -1   3  -2  351.42   27.89
   1   3   2  343.05   27.88
  -1   3  -2  362.37   27.92
   1   3   2  375.14   27.89
   2  -3   2    9.76    0.96
   2  -3   2   10.22    0.97
  -2  -3  -2    9.28    1.04
  -2  -3  -2    8.89    1.05
  -2   3  -2    9.25    0.94
   2   3   2    8.64    1.03
   2   3   2    8.91    1.05
  -2   3  -2   10.98    0.94
   3  -3   2   60.37    4.22
   3  -3   2   59.86    4.22
  -3  -3  -2   46.22    4.24
  -3   3  -2   62.23    4.21
   3   3   2   45.83    4.25
   3   3   2   45.23    4.24
  -4  -3  -2   43.34    3.35
   4   3   2   40.44    3.35
   4   3   2   41.57    3.36
  -5  -3  -2   15.93    1.39
   5   3   2   16.87    1.45
   5   3   2   15.49    1.31
   5   3   2   15.20    1.41
  -6  -3  -2    5.54    0.67
   6   3   2    5.21    0.78
   6   3   2    4.56    0.66
   6   3   2    4.89    0.64
   7   3   2   17.15    1.54
   7   3   2   16.85    1.53
   7   3   2   16.50    1.46
   8  -3   2    0.03    0.50
   8   3   2   -0.04    0.47
   8   3   2    0.61    0.50
   8   3   2    0.46    0.49
   9  -3   2    0.26    0.57
   9   3   2   -0.45    0.52
   9   3   2   -0.52    0.53
   9   3   2   -0.34    0.51
  10  -3   2   27.30    2.20
  10   3   2   20.44    2.06
  10   3   2   25.25    2.13
  10   3   2   25.15    2.13
  11  -3   2   24.11    2.32
  11   3   2   28.78    2.27
  11   3   2   24.70    2.22
  12  -3   2   14.10    1.60
  12   3   2   13.95    1.43
  13  -3   2    0.20    0.79
  14  -4  -2   11.81    1.68
  13  -4  -2    4.08    1.02
  13   4  -2    2.73    0.89
  13   4  -2    3.18    0.74
  12  -4  -2   11.55    1.65
  12   4  -2   15.30    1.50
  12   4  -2   16.87    1.63
  11  -4  -2    2.63    0.81
  11   4  -2    3.18    0.76
  11   4  -2    2.10    0.68
  10  -4  -2   58.87    4.82
  10   4  -2   59.42    4.76
  10   4  -2   60.18    4.84
  10   4  -2   61.14    4.84
   9  -4  -2   18.95    2.02
  -9  -4   2   23.24    2.02
   9   4  -2   21.99    1.98
   9   4  -2   22.79    1.97
   9   4  -2   22.51    1.99
   8  -4  -2   18.28    1.68
  -8  -4   2   18.17    1.65
  -8  -4   2   15.73    1.49
   8   4  -2   16.41    1.61
   8   4  -2   17.86    1.59
   8   4  -2   16.26    1.59
  -7  -4   2  118.69    8.95
   7  -4  -2  107.71    8.74
  -7  -4   2  115.30    8.73
   7   4  -2  117.75    8.98
   7   4  -2  110.42    8.97
   7   4  -2  112.76    8.71
  -6  -4   2  122.71    9.27
  -6  -4   2  111.98    9.26
   6  -4  -2  124.24    9.05
   6  -4  -2  122.93    9.23
  -6  -4   2  116.28    9.01
   6   4  -2  110.59    9.28
   6   4  -2  118.13    9.28
   6   4  -2  116.63    8.99
   5  -4  -2  239.44   17.73
  -5  -4   2  236.44   18.30
   5  -4  -2  234.02   18.25
  -5  -4   2  234.74   18.29
  -5  -4   2  230.49   17.70
   5   4  -2  229.56   18.30
   5   4  -2  232.70   18.30
   5   4  -2  235.97   17.70
  -4  -4   2   73.22    5.84
   4  -4  -2   80.81    5.81
   4  -4  -2   79.37    5.69
  -4  -4   2   70.79    5.66
  -4  -4   2   70.21    5.84
  -4   4   2   79.04    5.79
   4   4  -2   70.09    5.65
   4   4  -2   70.53    5.84
   4   4  -2   69.41    5.84
  -3  -4   2   26.17    2.25
  -3  -4   2   27.27    2.18
  -3  -4   2   27.04    2.26
   3   4  -2   26.97    2.18
   3   4  -2   26.84    2.26
   3   4  -2   28.75    2.27
  -2  -4   2  296.56   22.17
   2  -4  -2  272.25   22.18
  -2  -4   2  289.94   22.16
   2  -4  -2  284.12   22.18
  -2  -4   2  297.44   21.42
   2  -4  -2  271.77   21.42
   2   4  -2  293.19   21.45
   2   4  -2  301.04   22.17
   2   4  -2  280.01   22.16
  -2   4   2  273.82   22.15
  -2   4   2  263.53   22.14
  -1  -4   2   43.29    3.43
  -1  -4   2   40.67    3.56
  -1  -4   2   45.39    3.58
   1   4  -2   44.35    3.57
   1   4  -2   45.65    3.59
   1   4  -2   46.86    3.44
   0  -4  -2    3.04    0.46
   0  -4   2    2.17    0.49
   0  -4  -2    3.49    0.47
   0  -4   2    2.07    0.47
   0   4  -2    1.97    0.46
   0   4   2    2.99    0.51
   0   4  -2    2.24    0.48
   0   4   2    3.02    0.48
  -1  -4  -2  399.59   31.77
   1  -4   2  423.08   31.69
  -1  -4  -2  410.08   31.73
   1  -4   2  399.47   31.72
   1   4   2  407.20   31.70
  -1   4  -2  412.78   31.70
  -1   4  -2  389.58   31.68
   1   4   2  411.36   31.70
  -2  -4  -2  338.98   28.05
  -2  -4  -2  349.16   28.07
   2  -4   2  382.41   28.05
   2  -4   2  375.36   28.05
   2   4   2  341.74   28.06
  -2   4  -2  387.65   28.06
   2   4   2  331.81   28.06
  -2   4  -2  372.83   28.04
  -3  -4  -2   98.85    7.40
  -3  -4  -2   95.92    7.41
   3   4   2   99.21    7.41
  -3   4  -2   75.67    7.36
   3   4   2  101.55    7.42
  -4  -4  -2   52.41    4.04
  -4  -4  -2   50.86    4.05
   4   4   2   47.89    4.05
   4   4   2   51.18    4.06
  -5  -4  -2  109.61    8.12
   5   4   2   99.17    8.12
   5   4   2   98.37    7.80
   5   4   2  105.97    8.14
  -6  -4  -2   53.30    3.93
   6   4   2   47.29    3.94
   6   4   2   49.53    3.95
   6   4   2   46.03    3.76
  -7  -4  -2    6.98    0.81
   7   4   2    5.38    0.73
   7   4   2    6.92    0.90
   7   4   2    7.13    0.92
   8  -4   2    4.23    0.69
   8   4   2    3.65    0.65
   8   4   2    2.60    0.54
   8   4   2    2.66    0.64
   9   4   2   10.44    1.19
   9   4   2   14.24    1.33
   9   4   2   12.26    1.30
  10  -4   2    0.65    0.65
  10   4   2    0.42    0.57
  10   4   2   -0.62    0.49
  10   4   2    0.78    0.59
  11  -4   2    0.12    0.68
  11   4   2   -1.13    0.50
  11   4   2    0.15    0.61
  12  -4   2   24.93    2.17
  12   4   2   20.61    2.02
  13  -4   2    7.17    1.13
  14  -5  -2    1.14    0.97
  14   5  -2    1.10    0.73
  13  -5  -2    0.31    0.82
  13   5  -2    0.35    0.78
  13   5  -2   -0.38    0.67
  12  -5  -2    1.14    0.83
  12   5  -2    0.94    0.76
  12   5  -2    0.00    0.65
  11  -5  -2    2.65    0.84
  11   5  -2    1.94    0.71
  11   5  -2    0.44    0.68
  10  -5  -2   11.61    1.54
  10   5  -2   14.02    1.45
  10   5  -2   15.10    1.46
  10   5  -2   14.55    1.50
   9  -5  -2    6.35    1.00
  -9  -5   2    7.13    1.10
   9   5  -2    7.52    1.04
   9   5  -2    6.88    1.06
   9   5  -2    7.56    1.01
   8  -5  -2    5.89    0.98
  -8  -5   2    8.62    1.09
  -8  -5   2    7.50    0.96
   8   5  -2    7.61    1.03
   8   5  -2    8.01    1.07
   8   5  -2    9.52    1.02
  -7  -5   2    2.11    0.54
   7  -5  -2    2.78    0.65
  -7  -5   2    1.78    0.48
  -7  -5   2    1.88    0.47
   7   5  -2    2.03    0.58
   7   5  -2    1.81    0.58
   7   5  -2    2.12    0.55
  -6  -5   2    0.06    0.41
  -6  -5   2   -0.54    0.42
   6  -5  -2    0.03    0.48
   6  -5  -2   -0.09    0.32
  -6  -5   2   -0.68    0.42
   6   5  -2    0.38    0.43
   6   5  -2   -0.48    0.49
   6   5  -2    0.04    0.49
  -5  -5   2   54.95    4.34
  -5  -5   2   54.55    4.21
  -5  -5   2   54.01    4.34
   5   5  -2   51.97    4.34
   5   5  -2   52.42    4.20
   5   5  -2   56.31    4.35
   4  -5  -2   49.99    4.16
  -4  -5   2   53.21    4.27
  -4  -5   2   54.40    4.13
  -4  -5   2   55.37    4.28
   4  -5  -2   51.88    4.24
  -4   5   2   49.55    4.22
   4   5  -2   53.35    4.28
   4   5  -2   56.56    4.29
   4   5  -2   55.98    4.13
  -3  -5   2   24.38    2.10
   3  -5  -2   24.73    2.04
   3  -5  -2   24.78    2.07
   3  -5  -2   25.06    2.07
  -3  -5   2   24.81    2.11
  -3  -5   2   25.08    2.02
   3   5  -2   24.71    2.11
  -3   5   2   25.34    2.07
   3   5  -2   25.77    2.13
   3   5  -2   25.26    2.02
  -3   5   2   24.80    2.06
  -2  -5   2   55.26    4.37
   2  -5  -2   63.62    4.52
  -2  -5   2   52.98    4.53
   2  -5  -2   62.27    4.52
  -2  -5   2   52.74    4.53
   2   5  -2   55.12    4.54
   2   5  -2   52.90    4.53
  -2   5   2   61.70    4.52
   2   5  -2   52.39    4.36
  -2   5   2   59.15    4.51
   1  -5  -2  125.19    9.51
  -1  -5   2  115.82    9.18
  -1  -5   2  119.17    9.51
   1  -5  -2  124.86    9.52
  -1  -5   2  118.56    9.52
  -1   5   2  126.56    9.51
   1   5  -2  115.90    9.51
  -1   5   2  122.89    9.51
   1   5  -2  122.11    9.52
   0  -5  -2   14.63    1.51
   0  -5   2   19.67    1.54
   0  -5   2   19.67    1.55
   0  -5  -2   15.59    1.54
   0   5  -2   18.58    1.54
   0   5  -2   18.96    1.55
   0   5   2   15.16    1.54
   0   5   2   15.84    1.54
   1  -5   2  181.84   16.13
  -1  -5  -2  232.20   16.16
  -1  -5  -2  231.19   16.16
   1   5   2  230.56   16.16
  -1   5  -2  175.10   16.13
   1   5   2  217.40   16.15
  -1   5  -2  179.11   16.13
  -2  -5  -2    4.43    0.54
  -2  -5  -2    3.65    0.55
   2   5   2    3.52    0.56
   2   5   2    3.74    0.55
  -3  -5  -2   25.57    2.30
   3  -5   2   30.11    2.26
  -3  -5  -2   27.09    2.31
   3  -5   2   29.03    2.26
   3   5   2   25.01    2.30
  -3   5  -2   28.93    2.23
   3   5   2   27.13    2.34
   4  -5   2  346.78   27.13
   4  -5   2  355.84   27.13
  -4  -5  -2  348.06   27.16
  -4  -5  -2  338.27   27.17
   4   5   2  342.88   27.17
   4   5   2  358.03   27.18
  -5  -5  -2   38.07    2.95
   5  -5   2   34.66    2.87
  -5  -5  -2   35.01    2.95
   5   5   2   35.55    2.96
   5   5   2   36.51    2.96
  -6  -5  -2   92.69    7.26
   6   5   2   91.57    6.98
   6   5   2   90.08    7.28
   6   5   2   94.04    7.29
  -7  -5  -2   15.42    1.42
   7   5   2   15.43    1.51
   7   5   2   16.51    1.51
   7   5   2   15.40    1.33
  -8  -5  -2   24.89    2.21
   8   5   2   26.83    2.31
   8   5   2   29.61    2.33
   8   5   2   25.88    2.15
   9  -5   2    0.28    0.60
   9   5   2    0.87    0.62
   9   5   2    0.31    0.47
   9   5   2    0.43    0.60
  10  -5   2    3.65    0.75
  10   5   2    1.79    0.69
  10   5   2    1.20    0.51
  10   5   2    2.21    0.66
  11  -5   2    2.00    0.75
  11   5   2    1.24    0.67
  11   5   2    0.37    0.52
  12  -5   2    4.33    0.97
  12   5   2    6.15    0.90
  13  -5   2    0.81    0.82
  14   6  -2   17.78    1.84
  13  -6  -2    0.66    0.86
  13   6  -2    0.79    0.78
  13   6  -2    0.71    0.74
  12  -6  -2   13.46    1.50
  12   6  -2    9.27    1.30
  12   6  -2   10.02    1.28
  11  -6  -2    0.56    0.78
  11   6  -2    0.44    0.65
  11   6  -2   -0.23    0.70
  10  -6  -2   24.63    2.12
 -10  -6   2   20.40    1.99
  10   6  -2   21.36    1.97
  10   6  -2   20.67    1.99
  10   6  -2   22.24    2.04
   9  -6  -2    1.36    0.72
  -9  -6   2    1.98    0.64
  -9  -6   2    1.69    0.45
   9   6  -2    2.28    0.64
   9   6  -2    1.43    0.69
   9   6  -2    2.22    0.69
  -8  -6   2    5.45    0.85
  -8  -6   2    6.71    1.00
   8   6  -2    6.71    0.94
   8   6  -2    5.62    0.88
   8   6  -2    6.48    1.03
  -7  -6   2    7.21    0.98
  -7  -6   2    7.29    1.01
   7  -6  -2    9.78    1.07
  -7  -6   2    7.68    0.94
   7   6  -2    7.97    0.96
   7   6  -2    7.62    1.04
   7   6  -2    6.65    1.00
  -6  -6   2   11.54    1.10
  -6  -6   2   10.53    1.14
   6  -6  -2    7.95    1.14
   6  -6  -2   10.26    1.03
  -6  -6   2    9.51    1.15
   6   6  -2   11.13    1.18
   6   6  -2    9.65    1.16
   6   6  -2   12.21    1.09
  -5  -6   2   97.14    7.82
   5  -6  -2   95.08    7.60
  -5  -6   2  100.04    7.58
   5  -6  -2  100.06    7.78
  -5  -6   2  101.04    7.83
   5   6  -2   99.60    7.56
   5   6  -2   98.56    7.83
   5   6  -2  100.15    7.83
  -4  -6   2   13.78    1.43
  -4  -6   2   15.23    1.45
   4  -6  -2   20.22    1.45
  -4  -6   2   15.64    1.38
   4   6  -2   14.94    1.49
   4   6  -2   14.21    1.46
   4   6  -2   15.10    1.38
  -3  -6   2    9.32    1.04
  -3  -6   2    9.78    1.05
  -3  -6   2   10.13    0.97
   3   6  -2   10.38    1.09
   3   6  -2    9.08    1.03
   3   6  -2    9.96    0.96
  -2  -6   2    2.38    0.51
   2  -6  -2    2.10    0.44
  -2  -6   2    3.60    0.46
   2  -6  -2    2.17    0.44
  -2  -6   2    2.57    0.50
   2   6  -2    2.40    0.51
  -2   6   2    1.91    0.46
   2   6  -2    2.84    0.56
   2   6  -2    2.76    0.42
  -2   6   2    2.28    0.44
  -1  -6   2  227.05   16.74
  -1  -6   2  213.26   17.33
   1  -6  -2  220.86   17.32
   1  -6  -2  228.28   17.32
  -1  -6   2  224.06   17.33
   1   6  -2  213.40   17.33
   1   6  -2  222.21   17.33
  -1   6   2  220.26   17.32
  -1   6   2  226.66   17.33
   0  -6   2   42.45    3.63
   0  -6  -2   47.50    3.62
   0  -6  -2   49.70    3.65
   0  -6   2   41.32    3.62
   0   6  -2   42.00    3.62
   0   6   2   50.77    3.66
   0   6   2   45.20    3.62
   0   6  -2   41.07    3.61
   1  -6   2   53.34    4.52
  -1  -6  -2   59.68    4.55
   1  -6   2   55.41    4.53
  -1  -6  -2   60.62    4.55
   1   6   2   60.49    4.57
   1   6   2   54.18    4.53
  -1   6  -2   55.20    4.52
  -1   6  -2   55.41    4.53
   2  -6   2   11.75    1.12
   2  -6   2   11.37    1.11
  -2   6  -2   11.49    1.10
  -2   6  -2   11.75    1.08
   3  -6   2   94.52    6.96
  -3  -6  -2   80.19    6.99
  -3  -6  -2   77.11    6.99
   3  -6   2  100.93    6.97
   3   6   2   82.89    7.01
  -3   6  -2   94.04    6.95
   3   6   2   79.63    6.99
  -3   6  -2   98.14    6.95
  -4  -6  -2    0.73    0.44
   4  -6   2    0.42    0.35
   4  -6   2    0.17    0.36
  -4  -6  -2    0.57    0.44
   4   6   2    0.61    0.52
  -4   6  -2    0.56    0.26
   4   6   2    0.77    0.51
   5  -6   2    0.91    0.35
   5  -6   2    0.93    0.37
  -5  -6  -2    0.24    0.43
  -5  -6  -2    0.57    0.41
   5   6   2    0.21    0.51
   5   6   2    0.59    0.52
  -6  -6  -2  145.01   11.90
  -6  -6  -2  153.98   11.90
   6   6   2  153.46   11.92
   6   6   2  149.87   11.92
   6   6   2  155.80   11.44
  -7  -6  -2    4.48    0.65
   7   6   2    5.27    0.75
   7   6   2    5.02    0.64
   7   6   2    4.41    0.75
  -8  -6  -2   57.59    4.87
   8   6   2   65.02    4.95
   8   6   2   61.08    4.93
   8   6   2   60.78    4.69
   9  -6   2    1.03    0.64
   9   6   2    1.43    0.66
   9   6   2    1.28    0.48
   9   6   2    1.06    0.68
  10  -6   2   22.31    2.07
  10   6   2   23.11    2.06
  10   6   2   20.41    1.88
  10   6   2   24.30    2.10
  11  -6   2   10.72    1.35
  11   6   2    9.12    1.11
  11   6   2   10.85    1.30
  12  -6   2   11.89    1.53
  12   6   2   14.49    1.49
  13  -6   2    0.14    0.80
  13   6   2    0.40    0.73
  14   7  -2    0.73    0.79
  13  -7  -2   12.22    1.66
  13   7  -2   14.27    1.56
  12  -7  -2    0.21    0.82
  12   7  -2    0.76    0.71
  12   7  -2    0.25    0.74
  11  -7  -2    6.37    1.10
  11   7  -2    5.58    0.98
  11   7  -2    6.41    0.95
  10  -7  -2    1.37    0.79
 -10  -7   2    0.61    0.60
  10   7  -2    0.77    0.64
  10   7  -2    0.85    0.70
  -9  -7   2   18.19    1.78
   9  -7  -2   15.47    1.83
   9   7  -2   20.13    1.85
   9   7  -2   21.32    1.87
   9   7  -2   18.93    1.75
  -8  -7   2    0.54    0.53
  -8  -7   2    0.33    0.51
   8  -7  -2    0.70    0.63
   8   7  -2    0.09    0.62
   8   7  -2   -0.02    0.64
   8   7  -2    1.02    0.57
  -7  -7   2   21.13    1.83
  -7  -7   2   19.97    1.82
   7   7  -2   20.52    1.78
   7   7  -2   18.09    1.84
   7   7  -2   21.50    1.90
  -6  -7   2    9.39    1.02
  -6  -7   2    8.78    1.10
  -6  -7   2    8.63    1.06
   6   7  -2    7.58    1.09
   6   7  -2    9.72    1.16
   6   7  -2    9.54    1.02
  -5  -7   2    6.98    0.87
  -5  -7   2    7.53    0.95
  -5  -7   2    6.91    0.93
   5   7  -2    8.46    1.03
   5   7  -2    6.90    0.98
   5   7  -2    7.67    0.89
  -4  -7   2    3.70    0.54
  -4  -7   2    3.14    0.62
  -4  -7   2    3.40    0.60
   4   7  -2    3.61    0.53
   4   7  -2    3.58    0.63
   4   7  -2    3.51    0.66
   3  -7  -2   25.62    1.97
  -3  -7   2   20.91    2.00
  -3  -7   2   20.51    1.88
  -3  -7   2   20.06    1.99
   3  -7  -2   26.59    1.96
   3   7  -2   22.75    1.89
  -3   7   2   24.74    1.96
   3   7  -2   21.30    2.00
  -3   7   2   25.72    1.98
   3   7  -2   22.09    2.03
  -2  -7   2    4.53    0.76
   2  -7  -2    4.08    0.57
   2  -7  -2    4.09    0.58
  -2  -7   2    5.08    0.66
  -2  -7   2    4.63    0.64
   2   7  -2    4.76    0.66
  -2   7   2    4.12    0.58
   2   7  -2    5.39    0.86
  -2   7   2    3.90    0.60
   1  -7  -2   80.27    6.79
  -1  -7   2   84.17    6.80
  -1  -7   2   89.87    6.57
  -1  -7   2   92.21    6.81
   1  -7  -2   85.87    6.80
  -1   7   2   80.39    6.79
  -1   7   2   81.05    6.80
   1   7  -2   92.68    6.82
   1   7  -2   88.01    6.81
   0  -7  -2   98.56    8.89
   0  -7   2  120.09    8.90
   0  -7  -2  105.70    8.88
   0  -7   2  128.30    8.91
   0   7  -2  122.30    8.90
   0   7  -2  118.27    8.89
   0   7   2  102.51    8.89
   0   7   2  109.18    8.91
   1  -7   2   47.91    3.44
  -1  -7  -2   35.37    3.43
   1  -7   2   46.29    3.43
  -1  -7  -2   34.69    3.44
  -1   7  -2   48.31    3.44
  -1   7  -2   47.03    3.43
   1   7   2   37.16    3.45
   2  -7   2    4.77    0.72
  -2  -7  -2    4.14    0.61
  -2  -7  -2    4.04    0.59
   2  -7   2    4.50    0.58
   2   7   2    4.32    0.67
   2   7   2    3.41    0.61
  -2   7  -2    4.61    0.71
  -2   7  -2    4.11    0.66
  -3  -7  -2    2.53    0.51
  -3  -7  -2    2.92    0.54
   3   7   2    2.32    0.56
   3   7   2    2.44    0.58
  -4  -7  -2   21.59    1.89
  -4  -7  -2   21.93    1.91
   4   7   2   21.30    1.93
   4   7   2   21.65    1.93
   5  -7   2    4.11    0.71
  -5  -7  -2    7.10    0.87
  -5  -7  -2    6.53    0.86
   5  -7   2    4.20    0.69
   5   7   2    6.18    0.93
   5   7   2    7.08    0.93
  -6  -7  -2    7.39    0.97
  -6  -7  -2    5.91    0.94
   6   7   2    6.22    1.00
   6   7   2    7.79    0.70
   6   7   2    7.12    1.03
  -7  -7  -2   11.39    1.25
  -7  -7  -2   10.46    1.22
   7   7   2   12.58    1.03
   7   7   2   11.54    1.32
   7   7   2   10.97    1.31
   8   7   2    3.22    0.74
   8   7   2    3.05    0.72
   8   7   2    2.38    0.50
   9  -7   2    7.99    1.04
   9   7   2    6.66    1.11
   9   7   2    6.92    0.96
   9   7   2    5.75    0.83
  10  -7   2    0.61    0.66
  10   7   2   -0.43    0.48
  10   7   2    0.43    0.69
  11  -7   2    2.55    0.83
  11   7   2    5.38    0.90
  12  -7   2    0.39    0.76
  12   7   2    0.72    0.74
  13  -7   2    5.05    1.05
  13   7   2    4.06    0.94
  14   7   2    1.37    0.79
  14   8  -2    0.51    0.81
  13  -8  -2    0.87    0.89
  13   8  -2    2.27    0.85
  12  -8  -2    2.88    0.98
  12   8  -2    2.06    0.79
  12   8  -2    1.94    0.82
  11  -8  -2    0.75    0.79
  11   8  -2    1.25    0.72
  11   8  -2    1.73    0.79
  10  -8  -2   14.63    1.75
 -10  -8   2   16.75    1.65
  10   8  -2   17.00    1.73
  10   8  -2   17.79    1.65
  -9  -8   2   -0.32    0.50
   9  -8  -2   -0.46    0.65
  -9  -8   2    0.38    0.48
   9   8  -2    0.28    0.67
   9   8  -2   -0.04    0.68
   9   8  -2    0.36    0.59
   8  -8  -2   25.72    2.48
  -8  -8   2   27.33    2.47
  -8  -8   2   32.05    2.46
   8   8  -2   29.09    2.40
   8   8  -2   26.97    2.51
   8   8  -2   29.10    2.53
  -7  -8   2   15.07    1.56
   7  -8  -2   20.47    1.62
  -7  -8   2   14.68    1.51
   7   8  -2   15.50    1.62
   7   8  -2   15.47    1.49
   7   8  -2   15.57    1.62
   6  -8  -2   45.31    3.31
  -6  -8   2   39.51    3.34
  -6  -8   2   40.06    3.23
  -6  -8   2   38.74    3.33
   6   8  -2   36.79    3.34
   6   8  -2   41.90    3.38
   6   8  -2   40.49    3.21
  -5  -8   2    0.84    0.51
  -5  -8   2    0.89    0.40
  -5  -8   2    0.74    0.50
  -5   8   2    0.62    0.22
   5   8  -2    0.55    0.58
   5   8  -2    0.69    0.42
   5   8  -2    1.17    0.56
   4  -8  -2   16.56    1.49
  -4  -8   2   16.42    1.46
  -4  -8   2   16.83    1.57
   4  -8  -2   17.37    1.51
  -4  -8   2   16.84    1.58
  -4   8   2   16.69    1.48
  -4   8   2   15.46    1.46
   4   8  -2   16.29    1.59
   4   8  -2   16.24    1.45
   4   8  -2   15.98    1.55
  -3  -8   2   16.61    1.63
  -3  -8   2   17.92    1.64
  -3  -8   2   18.62    1.54
   3   8  -2   18.29    1.68
   3   8  -2   16.98    1.63
   3   8  -2   17.93    1.53
  -2  -8   2    7.94    0.86
  -2  -8   2    8.12    0.99
   2  -8  -2    8.04    0.92
  -2  -8   2    7.83    0.99
   2  -8  -2    8.28    0.95
  -2   8   2    7.73    0.99
  -2   8   2    7.91    0.94
   2   8  -2    8.44    1.06
   2   8  -2    7.56    0.98
  -1  -8   2  134.01   10.34
  -1  -8   2  129.77   10.35
  -1  -8   2  131.33    9.98
   1  -8  -2  136.73   10.33
   1  -8  -2  131.54   10.34
   1   8  -2  123.02   10.33
   1   8  -2  135.46   10.35
  -1   8   2  130.37   10.34
  -1   8   2  131.56   10.33
   0  -8   2   27.31    2.25
   0  -8   2   25.71    2.24
   0   8  -2   27.90    2.27
   0   8  -2   24.98    2.22
  -1  -8  -2    1.30    0.45
   1  -8   2    2.57    0.49
  -1  -8  -2    1.69    0.45
   1   8   2    1.17    0.53
   1   8   2    0.61    0.46
  -2  -8  -2   78.90    6.05
  -2  -8  -2   72.88    6.05
   2   8   2   77.45    6.06
   2   8   2   74.77    6.05
  -3  -8  -2  113.51    9.35
  -3  -8  -2  107.42    9.35
   3  -8   2  133.87    9.33
  -3  -8  -2  106.31    8.95
   3   8   2  105.79    9.35
  -3   8  -2  138.56    9.32
  -3   8  -2  134.79    9.31
   3   8   2  108.45    9.36
   4  -8   2    2.07    0.45
   4  -8   2    2.00    0.44
  -4  -8  -2    0.98    0.49
  -4  -8  -2    1.57    0.50
   4   8   2    1.11    0.56
  -4   8  -2    0.46    0.23
   4   8   2    0.85    0.57
   5  -8   2   12.32    1.15
  -5  -8  -2   12.51    1.28
  -5  -8  -2   11.86    1.27
   5  -8   2   12.53    1.16
   5   8   2   10.66    1.31
   5   8   2   12.38    1.34
  -6  -8  -2   48.94    3.90
  -6  -8  -2   51.45    3.90
   6  -8   2   39.02    3.80
   6   8   2   49.17    3.92
   6   8   2   50.74    3.92
  -7  -8  -2   36.14    3.30
   7   8   2   43.39    3.37
   7   8   2   40.23    3.35
   8   8   2    1.37    0.41
   8   8   2    0.95    0.71
   8   8   2    1.44    0.73
   9   8   2   18.90    1.89
   9   8   2   19.53    1.62
   9   8   2   18.63    1.86
  10  -8   2   16.60    1.75
  10   8   2   17.13    1.78
  10   8   2   17.81    1.52
  11  -8   2    1.03    0.72
  11   8   2    0.09    0.74
  12  -8   2   -0.08    0.75
  12   8   2   -0.40    0.77
  13  -8   2    1.06    0.87
  13   8   2    0.89    0.79
  14   8   2    3.52    0.92
  14   9  -2    0.70    0.84
  13  -9  -2    5.31    1.19
  13   9  -2    5.43    1.05
  12  -9  -2    2.52    0.95
  12   9  -2    1.44    0.74
  12   9  -2    0.85    0.81
  11  -9  -2   13.72    1.68
  11   9  -2   13.16    1.50
  11   9  -2   15.23    1.61
  10  -9  -2    1.30    0.80
 -10  -9   2    0.71    0.57
  10   9  -2    0.75    0.77
  10   9  -2    0.87    0.65
   9  -9  -2    0.35    0.67
  -9  -9   2    0.37    0.52
  -9  -9   2    0.50    0.52
   9   9  -2   -0.31    0.70
   9   9  -2    0.71    0.72
   9   9  -2    0.90    0.61
  -8  -9   2   15.20    1.52
  -8  -9   2   14.16    1.53
   8   9  -2   14.70    1.62
   8   9  -2   14.49    1.61
   8   9  -2   14.72    1.44
  -7  -9   2   36.35    2.96
   7  -9  -2   29.93    2.83
  -7  -9   2   36.61    2.85
   7   9  -2   36.42    2.83
   7   9  -2   34.12    2.98
   7   9  -2   35.77    3.00
   6  -9  -2   66.33    5.10
   6  -9  -2   71.12    5.16
  -6  -9   2   61.05    5.21
  -6  -9   2   61.68    5.02
   6  -9  -2   69.50    5.14
   6   9  -2   61.24    5.01
   6   9  -2   65.30    5.24
   6   9  -2   59.76    5.22
  -5  -9   2    3.36    0.64
  -5  -9   2    3.50    0.54
  -5  -9   2    2.38    0.61
   5   9  -2    2.32    0.66
   5   9  -2    3.68    0.57
   5   9  -2    2.93    0.70
  -4  -9   2    1.49    0.55
   4  -9  -2    0.69    0.43
   4  -9  -2    0.57    0.40
  -4  -9   2    1.63    0.44
  -4  -9   2    1.08    0.53
  -4   9   2    0.56    0.40
  -4   9   2    0.46    0.45
   4   9  -2    1.43    0.61
   4   9  -2    1.57    0.45
   4   9  -2    0.96    0.55
   3  -9  -2    8.43    1.05
  -3  -9   2   11.16    1.17
  -3  -9   2   12.20    1.04
   3  -9  -2    8.21    1.08
  -3  -9   2   11.26    1.17
  -3   9   2    7.78    1.08
  -3   9   2    8.83    1.08
   3   9  -2   10.49    1.14
   3   9  -2   11.80    1.21
   2  -9  -2   66.85    6.17
  -2  -9   2   83.39    6.22
  -2  -9   2   87.05    6.22
  -2  -9   2   84.61    5.98
   2  -9  -2   72.92    6.17
  -2   9   2   71.01    6.18
   2   9  -2   87.27    6.23
  -2   9   2   68.42    6.18
   2   9  -2   80.41    6.20
  -1  -9   2   67.99    5.88
  -1  -9   2   67.61    5.88
  -1   9   2   92.47    5.88
   1   9  -2   66.65    5.88
   0  -9  -2  179.15   15.58
   0   9   2  180.58   15.60
   0   9  -2  237.99   15.61
   1  -9   2  112.39    8.47
   1  -9   2  117.28    8.47
  -1  -9  -2  101.63    8.46
  -1  -9  -2  100.78    8.47
   1   9   2  104.91    8.49
   1   9   2   97.86    8.46
  -1   9  -2  113.75    8.47
  -1   9  -2  109.17    8.46
  -2  -9  -2   37.73    2.83
  -2  -9  -2   36.80    2.81
   2  -9   2   30.00    2.77
   2  -9   2   29.88    2.76
  -2   9  -2   29.42    2.75
   2   9   2   37.53    2.84
  -2   9  -2   30.14    2.77
   2   9   2   37.39    2.84
  -3  -9  -2    2.06    0.31
  -3  -9  -2    1.86    0.54
  -3  -9  -2    1.92    0.53
   3   9   2    1.58    0.61
   3   9   2    1.82    0.60
   4  -9   2   -0.45    0.43
  -4  -9  -2    0.06    0.46
  -4  -9  -2    0.16    0.48
   4  -9   2   -0.21    0.40
   4   9   2   -0.58    0.56
   4   9   2   -0.56    0.52
  -4   9  -2    0.06    0.34
  -4   9  -2   -0.03    0.38
   5  -9   2   40.16    3.47
  -5  -9  -2   46.96    3.55
  -5  -9  -2   46.89    3.55
   5  -9   2   40.00    3.45
  -5   9  -2   40.52    3.41
  -5   9  -2   39.02    3.41
   5   9   2   43.88    3.56
   5   9   2   47.11    3.58
   6  -9   2   13.16    1.32
   6  -9   2   12.53    1.29
  -6  -9  -2   16.10    1.49
   6   9   2   15.94    1.52
   6   9   2   14.85    1.53
  -7  -9  -2   50.61    3.99
   7  -9   2   44.47    3.87
   7  -9   2   45.08    3.86
   7   9   2   52.49    4.03
   7   9   2   50.49    4.02
  -8  -9  -2    0.41    0.53
   8   9   2    0.18    0.71
   8   9   2    0.33    0.74
   9   9   2    7.68    1.13
   9   9   2    9.23    0.90
   9   9   2    8.11    1.31
  10  -9   2    2.94    0.82
  10   9   2    3.06    0.54
  10   9   2    2.66    0.85
  11  -9   2    0.78    0.74
  11   9   2    0.98    0.78
  12  -9   2    1.53    0.84
  12   9   2    2.61    0.90
  13  -9   2    4.46    1.06
  13   9   2    4.98    1.01
  14   9   2    0.52    0.85
  14  10  -2    6.20    1.13
  13  10  -2    0.22    0.85
  12 -10  -2    5.30    1.07
  12  10  -2    2.36    0.91
  12  10  -2    1.45    0.76
  11 -10  -2    2.59    0.91
  11  10  -2    2.15    0.77
  11  10  -2    3.46    0.91
  10 -10  -2   20.36    1.87
  10  10  -2   15.99    1.67
  10  10  -2   15.98    1.79
  -9 -10   2    6.17    0.86
   9 -10  -2    8.02    1.15
  -9 -10   2    5.68    0.86
   9  10  -2    5.65    1.00
   9  10  -2    5.40    1.01
   9  10  -2    7.02    0.98
  -8 -10   2    0.22    0.51
  -8 -10   2    0.21    0.60
   8 -10  -2    0.65    0.67
   8 -10  -2    0.70    0.44
   8  10  -2    0.76    0.57
   8  10  -2   -0.15    0.70
   8  10  -2    0.27    0.72
   7 -10  -2    2.69    0.51
  -7 -10   2    1.38    0.63
  -7 -10   2    1.08    0.50
   7  10  -2    0.86    0.74
   7  10  -2    1.10    0.73
   7  10  -2    1.35    0.55
   6 -10  -2   17.74    1.59
  -6 -10   2   16.97    1.56
   6 -10  -2   16.36    1.55
  -6 -10   2   17.80    1.69
  -6  10   2   17.22    1.52
   6  10  -2   17.44    1.73
   6  10  -2   16.84    1.71
   6  10  -2   17.66    1.58
  -5 -10   2    5.74    0.98
  -5 -10   2    6.36    0.89
   5  10  -2    5.44    0.90
   5  10  -2    6.14    1.04
   5  10  -2    7.05    0.87
  -5  10   2    7.85    0.79
  -4 -10   2   40.06    3.42
  -4 -10   2   41.26    3.43
  -4 -10   2   42.40    3.27
   4  10  -2   43.01    3.46
   4  10  -2   39.35    3.43
  -3 -10   2   99.34    8.33
   3 -10  -2  112.37    8.32
  -3 -10   2  100.39    8.35
  -3 -10   2   97.58    8.03
   3 -10  -2  120.87    8.32
  -3  10   2  117.87    8.32
   3  10  -2   96.33    8.34
   3  10  -2   96.65    8.34
   2 -10  -2   47.17    4.35
  -2 -10   2   58.52    4.41
  -2 -10   2   55.41    4.19
  -2 -10   2   61.66    4.40
   2  10  -2   59.99    4.40
  -2  10   2   44.76    4.36
  -2  10   2   44.94    4.35
   2  10  -2   60.66    4.42
  -1 -10   2    3.51    0.66
  -1 -10   2    3.12    0.66
   1  10  -2    3.73    0.68
   1  10  -2    3.64    0.70
   0 -10   2   11.37    1.17
   0 -10  -2    8.54    1.10
   0 -10  -2    6.83    1.01
   0 -10   2    9.38    1.08
   0  10   2    7.71    1.11
   0  10  -2    9.49    1.11
   0  10   2    8.30    1.10
   0  10  -2   10.58    1.18
  -1 -10  -2  256.53   19.39
   1 -10   2  250.15   19.38
  -1 -10  -2  250.52   19.40
   1 -10   2  241.04   19.39
  -1  10  -2  249.48   19.38
  -1  10  -2  241.13   19.37
   1  10   2  251.42   19.40
   1  10   2  241.80   19.39
  -2 -10  -2   20.86    1.91
  -2 -10  -2   21.14    1.89
   2  10   2   20.84    1.94
   2  10   2   20.89    1.96
   3 -10   2   50.69    3.83
  -3 -10  -2   43.63    3.84
   3 -10   2   54.66    3.82
  -3 -10  -2   42.52    3.84
  -3 -10  -2   42.01    3.60
  -3  10  -2   53.51    3.81
  -3  10  -2   50.77    3.80
   3  10   2   42.64    3.85
   3  10   2   42.09    3.87
  -4 -10  -2   57.07    4.44
   4 -10   2   56.63    4.67
  -4 -10  -2   58.01    4.73
  -4 -10  -2   61.33    4.74
   4 -10   2   58.66    4.67
  -4  10  -2   54.78    4.63
   4  10   2   54.37    4.72
  -4  10  -2   63.46    4.66
   4  10   2   60.27    4.76
   5 -10   2   67.86    4.82
   5 -10   2   65.91    4.80
  -5 -10  -2   56.39    4.58
  -5 -10  -2   59.18    4.88
   5  10   2   58.14    4.89
   5  10   2   52.77    4.87
   6 -10   2    4.13    0.67
   6 -10   2    4.74    0.71
  -6 -10  -2    6.62    0.99
   6  10   2    6.12    0.93
   6  10   2    6.91    0.94
   7 -10   2    5.23    0.83
   7 -10   2    5.50    0.82
  -7 -10  -2    6.22    0.88
   7  10   2    6.16    0.98
   7  10   2    5.58    0.98
  -8 -10  -2   24.21    2.34
   8  10   2   25.74    2.41
   8  10   2   28.73    2.46
   9  10   2   -0.02    0.78
   9  10   2    0.76    0.78
  10 -10   2   16.63    1.84
  10  10   2   20.89    1.94
  11 -10   2    0.96    0.77
  11  10   2    0.17    0.78
  12 -10   2    4.34    1.02
  12  10   2    4.89    1.01
  13 -10   2    2.63    0.96
  13  10   2    2.65    0.96
  14  10   2    7.74    1.22
  14  11  -2    1.82    0.99
  13  11  -2    3.57    1.04
  12 -11  -2    0.43    0.89
  12  11  -2   -0.11    0.84
  11  11  -2   13.62    1.62
  11  11  -2   12.65    1.43
  10 -11  -2    1.12    0.78
  10  11  -2    3.36    0.93
  10  11  -2    2.90    0.72
   9 -11  -2    1.07    0.72
  -9 -11   2    1.62    0.61
   9 -11  -2    0.89    0.48
   9  11  -2    2.76    0.66
   9  11  -2    2.62    0.86
   9  11  -2    2.18    0.85
   8 -11  -2   12.40    1.36
  -8 -11   2   13.83    1.54
  -8 -11   2   15.05    1.46
   8  11  -2   15.56    1.43
   8  11  -2   15.18    1.68
   8  11  -2   13.56    1.57
  -7 -11   2    8.88    1.21
  -7 -11   2    8.47    1.10
   7  11  -2    9.01    1.07
   7  11  -2    8.14    1.27
   7  11  -2    9.44    1.36
   6 -11  -2   50.96    3.99
  -6 -11   2   49.49    3.91
  -6 -11   2   49.02    4.08
   6 -11  -2   52.28    4.01
   6  11  -2   51.28    3.90
  -6  11   2   49.93    3.96
   6  11  -2   50.86    4.12
   6  11  -2   48.90    4.11
  -6  11   2   42.07    3.93
   5 -11  -2   26.54    2.16
   5 -11  -2   24.42    2.15
  -5  11   2   24.23    2.12
  -5  11   2   24.33    2.15
   4 -11  -2   55.21    4.31
  -4 -11   2   51.47    4.36
  -4 -11   2   51.23    4.36
   4 -11  -2   54.86    4.32
  -4 -11   2   53.34    4.17
  -4  11   2   56.29    4.32
   4  11  -2   53.96    4.40
   4  11  -2   50.22    4.37
  -4  11   2   52.49    4.29
  -3 -11   2   34.94    2.92
  -3 -11   2   36.60    3.10
  -3 -11   2   36.69    3.10
   3  11  -2   36.44    3.11
   3  11  -2   38.99    3.14
   2 -11  -2   10.11    1.23
  -2 -11   2   13.75    1.18
  -2 -11   2   13.19    1.32
  -2 -11   2   12.98    1.37
   2 -11  -2    9.55    1.23
  -2  11   2    9.66    1.28
   2  11  -2   13.40    1.32
   2  11  -2   13.71    1.40
   1 -11  -2    4.24    0.63
  -1 -11   2    3.49    0.71
   1 -11  -2    4.33    0.67
  -1 -11   2    3.39    0.72
  -1  11   2    4.75    0.71
   1  11  -2    3.59    0.74
  -1  11   2    4.63    0.73
   1  11  -2    3.35    0.74
   0 -11   2   74.87    5.38
   0 -11   2   69.03    5.37
   0 -11  -2   63.31    5.35
   0 -11  -2   60.76    5.34
   0  11   2   59.37    5.34
   0  11  -2   72.36    5.37
   0  11   2   61.87    5.37
   0  11  -2   72.13    5.38
  -1 -11  -2    2.83    0.65
   1 -11   2    5.37    0.72
   1 -11   2    4.80    0.71
  -1 -11  -2    4.00    0.67
  -1  11  -2    5.57    0.75
  -1  11  -2    5.20    0.73
   1  11   2    3.03    0.76
   1  11   2    2.67    0.71
   2 -11   2   57.04    4.70
   2 -11   2   60.70    4.70
  -2 -11  -2   54.73    4.72
  -2 -11  -2   60.40    4.73
   2  11   2   55.33    4.73
   2  11   2   58.36    4.75
  -2  11  -2   57.01    4.68
  -2  11  -2   62.90    4.71
   3 -11   2   11.81    1.24
   3 -11   2   10.81    1.22
  -3 -11  -2   11.54    1.26
  -3 -11  -2   11.22    1.02
  -3 -11  -2   12.98    1.34
  -3  11  -2   11.37    1.20
  -3  11  -2   12.14    1.25
   3  11   2   11.78    1.37
   3  11   2   11.75    1.34
   4 -11   2   17.99    1.63
  -4 -11  -2   15.90    1.44
  -4 -11  -2   16.62    1.70
   4 -11   2   19.74    1.64
  -4 -11  -2   16.41    1.69
  -4  11  -2   19.23    1.61
  -4  11  -2   19.05    1.59
   4  11   2   17.50    1.74
   4  11   2   15.64    1.71
  -5 -11  -2   20.32    1.84
   5 -11   2   19.11    1.73
   5 -11   2   18.69    1.74
  -5 -11  -2   19.21    1.56
   5  11   2   20.27    1.88
   5  11   2   18.15    1.85
  -5  11  -2   18.68    1.67
   6 -11   2  110.21    8.36
  -6 -11  -2  106.06    8.45
   6 -11   2  110.64    8.37
   6  11   2  103.92    8.46
   6  11   2   98.44    8.44
   7 -11   2   81.85    6.33
  -7 -11  -2   79.31    6.45
   7 -11   2   81.77    6.34
   7  11   2   74.85    6.46
   7  11   2   81.28    6.48
   8 -11   2    5.33    0.81
   8 -11   2    6.52    0.83
  -8 -11  -2    4.76    0.85
   8  11   2    4.86    1.00
   8  11   2    5.33    0.97
   9  11   2   19.82    2.00
  10  11   2   -0.21    0.76
  11 -11   2    5.91    1.12
  11  11   2    8.14    1.20
  12 -11   2    1.81    0.86
  12  11   2    4.36    1.00
  13 -11   2    5.45    1.19
  13  11   2    7.36    1.20
  14  11   2    6.38    1.19
  13  12  -2    0.94    0.92
  12 -12  -2    9.16    1.39
  12  12  -2    7.29    1.29
  11 -12  -2    0.96    0.83
  11  12  -2    2.27    0.93
  11  12  -2    1.48    0.74
  10 -12  -2    8.53    1.24
  10  12  -2    7.31    1.20
  10  12  -2    7.74    1.11
  -9 -12   2    4.10    0.78
   9  12  -2    5.77    1.01
   9  12  -2    4.99    0.82
   8 -12  -2   49.17    3.98
  -8 -12   2   49.15    3.94
  -8 -12   2   48.97    4.11
   8 -12  -2   46.30    4.03
   8  12  -2   51.17    4.17
   8  12  -2   46.29    4.12
   8  12  -2   51.61    3.92
  -7 -12   2   31.61    2.70
  -7 -12   2   32.08    2.83
   7  12  -2   34.10    2.90
   7  12  -2   31.34    2.86
  -6 -12   2    9.00    1.03
   6 -12  -2    6.80    1.03
  -6 -12   2    8.34    1.19
   6 -12  -2    7.93    1.06
   6  12  -2    7.76    1.12
   6  12  -2    8.28    1.13
  -6  12   2    7.12    0.98
  -5 -12   2    1.09    0.67
  -5 -12   2    2.45    0.54
   5  12  -2    2.04    0.76
   5  12  -2    1.25    0.73
   4 -12  -2    0.11    0.47
  -4 -12   2    0.80    0.60
  -4 -12   2    0.95    0.47
   4 -12  -2    0.65    0.52
   4  12  -2    1.33    0.66
   4  12  -2    1.03    0.71
  -4  12   2    0.17    0.51
  -4  12   2    0.42    0.55
   3 -12  -2  116.82    9.08
  -3 -12   2  110.95    8.77
  -3 -12   2  118.04    9.13
  -3 -12   2  116.74    9.13
   3 -12  -2  111.62    9.08
   3  12  -2  117.18    9.14
  -3  12   2  116.31    9.08
   3  12  -2  110.70    9.12
  -3  12   2  115.67    9.09
  -2 -12   2   54.32    4.01
   2 -12  -2   44.74    3.94
   2 -12  -2   41.06    3.93
  -2 -12   2   54.29    3.81
  -2  12   2   41.72    3.93
   2  12  -2   53.17    4.01
   2  12  -2   56.11    4.02
  -2  12   2   42.55    3.96
   1 -12  -2    2.62    0.56
   1 -12  -2    2.19    0.58
   1  12  -2    4.57    0.77
  -1  12   2    1.92    0.63
   1  12  -2    3.33    0.74
  -1  12   2    1.97    0.63
   0 -12  -2    0.12    0.50
   0 -12  -2    0.30    0.49
   0 -12   2    0.48    0.55
   0 -12   2    0.74    0.56
   0  12   2    0.57    0.58
   0  12  -2    0.51    0.60
   0  12   2    0.59    0.59
   0  12  -2    0.17    0.57
   1 -12   2   86.28    7.49
   1 -12   2   96.26    7.50
  -1 -12  -2   94.65    7.51
  -1 -12  -2  104.27    7.52
   1  12   2   98.39    7.52
  -1  12  -2   85.86    7.49
   1  12   2   98.41    7.53
  -1  12  -2   90.07    7.48
   2 -12   2    3.28    0.67
   2 -12   2    3.57    0.66
  -2  12  -2    3.70    0.65
  -2  12  -2    3.45    0.67
  -3 -12  -2   10.79    1.29
  -3 -12  -2   11.70    1.33
   3 -12   2   12.71    1.29
   3 -12   2   13.41    1.29
   3  12   2    9.78    1.36
  -3  12  -2   11.09    1.23
   3  12   2   10.14    1.34
  -3  12  -2   13.36    1.28
  -4 -12  -2   15.29    1.36
  -4 -12  -2   13.57    1.07
   4 -12   2   10.22    1.29
   4 -12   2    8.83    1.27
   4  12   2   14.68    1.42
  -4  12  -2   10.35    1.24
   4  12   2   14.97    1.45
  -4  12  -2    9.98    1.27
  -5 -12  -2   57.52    4.26
  -5 -12  -2   50.62    3.93
   5 -12   2   51.64    4.15
   5 -12   2   52.76    4.17
   5  12   2   55.34    4.27
  -5  12  -2   42.65    4.09
   5  12   2   50.02    4.23
  -5  12  -2   50.13    4.11
  -6 -12  -2   22.38    2.10
  -6 -12  -2   18.92    1.79
   6 -12   2   24.77    1.98
   6 -12   2   24.59    2.00
   6  12   2   20.74    2.12
   6  12   2   21.68    2.15
  -6  12  -2   22.82    1.88
   7 -12   2   22.70    2.33
  -7 -12  -2   31.56    2.52
   7 -12   2   24.08    2.34
   7  12   2   30.16    2.55
   7  12   2   31.90    2.59
  -8 -12  -2   38.26    3.20
   8 -12   2   34.56    3.06
   8 -12   2   34.31    3.05
   8  12   2   42.21    3.29
   8  12   2   38.16    3.26
   9  12   2    0.26    0.76
  10  12   2   21.24    2.13
  11 -12   2    1.84    0.84
  11  12   2    3.09    0.99
  12 -12   2    3.19    0.95
  12  12   2    4.72    1.06
  13  12   2    0.67    0.93
  13  13  -2    8.21    1.33
  12  13  -2   -0.02    0.94
  11 -13  -2    8.30    1.41
  11  13  -2   13.22    1.39
  11  13  -2   12.35    1.55
  10 -13  -2    1.21    0.81
  10  13  -2    1.53    0.92
  10  13  -2    1.00    0.68
   9 -13  -2   23.57    2.51
   9  13  -2   32.37    2.64
   8 -13  -2   14.38    1.44
   8 -13  -2   13.27    1.58
  -8 -13   2   14.45    1.63
  -8 -13   2   13.79    1.46
   8  13  -2   15.12    1.73
   8  13  -2   14.35    1.64
   7 -13  -2   52.63    4.63
  -7 -13   2   60.19    4.75
   7 -13  -2   53.24    4.63
   7  13  -2   64.95    4.83
   7  13  -2   57.33    4.76
  -6 -13   2   40.64    3.46
  -6 -13   2   41.98    3.28
   6  13  -2   39.84    3.49
   6  13  -2   38.58    3.46
   5 -13  -2    8.20    1.11
   5 -13  -2    8.72    1.13
  -5 -13   2    9.22    1.25
  -5 -13   2   10.80    1.09
  -5  13   2    8.19    1.10
   5  13  -2    9.02    1.37
   5  13  -2    8.77    1.19
   4 -13  -2   65.39    4.85
  -4 -13   2   56.06    4.68
   4 -13  -2   69.10    4.86
  -4 -13   2   50.72    4.86
  -4  13   2   68.01    4.85
   4  13  -2   52.33    4.88
   4  13  -2   56.43    4.92
   3 -13  -2   10.05    1.21
   3 -13  -2   12.56    1.26
  -3  13   2   11.97    1.30
  -3  13   2   10.18    1.31
  -2 -13   2  131.10    9.75
  -2 -13   2  125.68   10.13
   2 -13  -2  118.57   10.10
   2 -13  -2  134.67   10.11
  -2 -13   2  133.73   10.13
  -2  13   2  123.07   10.10
  -2  13   2  122.82   10.09
   2  13  -2  132.89   10.14
   2  13  -2  127.45   10.13
   1 -13  -2    1.95    0.62
  -1 -13   2    4.62    0.76
   1 -13  -2    2.99    0.63
  -1  13   2    2.41    0.72
   1  13  -2    4.72    0.79
   1  13  -2    4.68    0.79
  -1  13   2    2.52    0.70
   0 -13   2   38.96    3.53
   0 -13  -2   44.16    3.52
   0 -13   2   38.32    3.53
   0 -13  -2   47.03    3.54
   0  13  -2   40.12    3.55
   0  13  -2   36.71    3.50
   0  13   2   48.10    3.58
   0  13   2   45.95    3.55
   1 -13   2   21.78    1.97
   1 -13   2   21.26    1.97
  -1  13  -2   21.25    1.97
  -1  13  -2   20.54    1.97
   2 -13   2   55.21    3.93
  -2 -13  -2   41.98    3.92
   2  13   2   40.33    3.92
   2  13   2   39.27    3.93
  -2  13  -2   52.17    3.89
  -2  13  -2   55.17    3.93
  -3 -13  -2   30.24    3.20
   3 -13   2   44.47    3.21
   3 -13   2   42.71    3.23
  -3  13  -2   41.58    3.21
   3  13   2   30.21    3.24
  -3  13  -2   39.11    3.17
   4 -13   2    3.94    0.73
  -4 -13  -2    5.52    0.83
  -4 -13  -2    4.81    0.62
   4 -13   2    3.66    0.74
   4  13   2    4.56    0.87
   4  13   2    4.62    0.87
  -4  13  -2    3.62    0.70
  -4  13  -2    3.62    0.67
  -5 -13  -2    7.86    0.87
  -5 -13  -2   10.96    1.27
   5  13   2    9.91    1.35
   5  13   2    8.33    1.33
  -6 -13  -2   17.43    1.54
  -6 -13  -2   18.14    1.87
   6  13   2   20.05    1.96
   6  13   2   19.06    1.94
  -7 -13  -2    4.72    0.87
   7 -13   2    4.67    0.73
   7 -13   2    5.01    0.75
   7  13   2    4.00    0.96
   7  13   2    3.76    0.98
  -8 -13  -2    1.94    0.73
   8  13   2    2.56    0.93
   8  13   2    2.08    0.87
   9  13   2    8.20    1.33
  10  13   2    0.29    0.83
  11 -13   2   20.32    2.10
  11  13   2   20.64    2.16
  12 -13   2    2.72    0.92
  12  13   2    0.86    0.90
  13  13   2    7.23    1.29
  13  14  -2    1.67    1.04
  12  14  -2    0.05    0.96
  11 -14  -2    0.18    0.81
  11  14  -2    0.61    0.90
  10 -14  -2    6.55    1.09
  10  14  -2    3.64    1.07
   9 -14  -2    2.43    0.84
   9  14  -2    2.86    0.98
  -8 -14   2    6.76    1.07
  -8 -14   2    8.15    1.23
   8  14  -2    6.55    1.14
   8  14  -2    8.33    1.34
  -7 -14   2    1.73    0.75
  -7 -14   2    1.47    0.58
   7  14  -2    0.55    0.83
   7  14  -2    0.84    0.87
   6 -14  -2    0.60    0.61
  -6 -14   2    0.99    0.75
   6 -14  -2    0.70    0.58
  -6 -14   2    1.37    0.57
   6  14  -2    1.59    0.85
  -6  14   2    0.53    0.45
   6  14  -2    1.60    0.84
  -5 -14   2    3.82    0.88
  -5 -14   2    6.11    0.90
   5  14  -2    3.14    0.92
   5  14  -2    3.44    0.91
   4 -14  -2    0.97    0.57
  -4 -14   2    0.28    0.47
   4 -14  -2    0.64    0.54
  -4 -14   2   -0.44    0.66
   4  14  -2   -0.49    0.74
   4  14  -2   -0.28    0.71
  -4  14   2    0.53    0.60
  -3 -14   2   22.83    1.89
  -3 -14   2   20.61    2.03
   3  14  -2   22.73    2.13
   3  14  -2   19.34    2.04
  -2 -14   2    4.97    0.86
  -2 -14   2    6.22    0.88
   2  14  -2    4.35    0.88
   1 -14  -2    2.21    0.62
  -1 -14   2    1.53    0.66
   1 -14  -2    2.67    0.61
  -1 -14   2    1.06    0.65
   1  14  -2    0.24    0.66
   1  14  -2    0.63    0.67
  -1  14   2    2.23    0.69
   0 -14  -2   16.34    1.55
   0 -14   2   13.21    1.56
   0 -14  -2   17.09    1.61
   0 -14   2   14.24    1.60
   0  14  -2   12.72    1.55
   0  14  -2   15.03    1.64
   0  14   2   15.81    1.61
   0  14   2   17.14    1.66
  -1 -14  -2    4.31    0.74
  -1 -14  -2    4.85    0.76
   1 -14   2    2.09    0.69
   1  14   2    3.31    0.82
   1  14   2    3.83    0.82
  -2 -14  -2   42.84    3.80
  -2 -14  -2   49.74    3.86
   2  14   2   45.95    3.86
   2  14   2   44.60    3.87
   3 -14   2    5.23    0.85
   3 -14   2    5.70    0.83
  -3  14  -2    5.40    0.79
   4 -14   2   28.62    2.87
  -4 -14  -2   37.63    2.68
  -4  14  -2   29.56    2.84
   4  14   2   39.79    3.02
   5 -14   2   38.23    2.82
   5 -14   2   35.05    2.79
  -5 -14  -2   27.96    2.55
  -5 -14  -2   30.30    2.83
   5  14   2   31.75    2.92
  -5  14  -2   34.46    2.74
   5  14   2   28.22    2.87
  -6 -14  -2   24.51    2.07
  -6 -14  -2   27.19    2.40
   6  14   2   26.65    2.47
   6  14   2   24.89    2.43
  -7 -14  -2   14.00    1.54
   7  14   2   13.72    1.70
   7  14   2   13.15    1.63
   8 -14   2    2.99    0.66
   8 -14   2    2.56    0.64
  -8 -14  -2    1.45    0.76
   8  14   2    1.87    0.91
   8  14   2    1.93    0.93
   9 -14   2    1.95    0.60
   9  14   2    3.52    0.99
  10  14   2    1.87    0.97
  11 -14   2    0.70    0.82
  11  14   2    0.67    0.91
  12  14   2    0.18    0.90
  12  15  -2    0.75    1.00
  11 -15  -2    2.31    0.96
  11  15  -2    3.72    1.11
  10  15  -2    4.12    1.09
   9 -15  -2    3.86    0.97
   9  15  -2    5.72    1.12
  -8 -15   2    0.15    0.53
  -8 -15   2   -0.25    0.69
   8 -15  -2    0.97    0.73
   8 -15  -2    0.82    0.63
   8  15  -2    0.18    0.87
  -7 -15   2   14.58    1.51
  -7 -15   2   15.93    1.72
   7  15  -2   15.00    1.71
  -6 -15   2   11.88    1.32
  -6 -15   2   11.53    1.48
   6  15  -2   10.21    1.55
  -6  15   2   14.11    1.30
  -5 -15   2   53.12    4.40
  -5 -15   2   52.48    4.18
   5  15  -2   52.13    4.42
   4 -15  -2    0.85    0.61
  -4 -15   2   -0.43    0.71
   4 -15  -2    0.22    0.58
  -4 -15   2    0.99    0.53
   4  15  -2   -0.89    0.79
  -4  15   2    0.90    0.66
   3 -15  -2   60.02    5.44
  -3 -15   2   78.49    5.53
   3  15  -2   76.38    5.52
  -3  15   2   55.24    5.42
   2 -15  -2   30.79    3.05
   2 -15  -2   35.64    3.11
  -2 -15   2   41.80    2.98
  -2 -15   2   37.30    3.11
  -2  15   2   32.70    3.07
   2  15  -2   39.44    3.14
   1 -15  -2   13.82    1.46
   1 -15  -2   12.08    1.37
  -1  15   2   12.09    1.44
   0 -15   2   33.84    2.66
   0 -15  -2   28.33    2.61
   0 -15   2   32.41    2.65
   0 -15  -2   25.18    2.57
   0  15  -2   32.21    2.65
   0  15   2   27.52    2.64
   1 -15   2    7.25    0.94
   1 -15   2    5.46    0.91
  -1  15  -2    5.83    0.95
   2 -15   2  171.56   12.61
  -2 -15  -2  150.81   12.62
   2 -15   2  157.50   12.60
   2  15   2  155.62   12.63
  -2  15  -2  162.37   12.58
  -3 -15  -2   18.85    1.97
   3 -15   2   21.86    1.96
   3 -15   2   22.20    1.97
   3  15   2   17.95    2.06
  -3  15  -2   21.20    1.92
  -4 -15  -2  121.60    9.70
   4 -15   2  133.16    9.67
   4 -15   2  120.61    9.66
  -4 -15  -2  109.95    9.24
   4  15   2  127.65    9.74
   4  15   2  120.70    9.72
  -4  15  -2  118.74    9.61
  -5 -15  -2   32.65    2.50
   5 -15   2   26.64    2.71
   5  15   2   37.69    2.91
  -5  15  -2   25.35    2.66
   5  15   2   36.20    2.88
  -6 -15  -2   17.74    1.74
   6 -15   2   16.90    1.64
  -6 -15  -2   14.80    1.39
   6 -15   2   16.10    1.63
   6  15   2   14.71    1.78
   6  15   2   16.05    1.88
  -7 -15  -2    6.38    0.99
   7 -15   2    3.36    0.80
   7  15   2    5.72    1.06
   7  15   2    5.88    1.09
  -8 -15  -2   17.00    1.88
   8 -15   2   19.21    1.68
   8  15   2   13.94    1.91
   9 -15   2   12.21    1.35
   9  15   2   14.80    1.70
  10  15   2    1.19    0.90
  11 -15   2    3.29    0.98
  11  15   2    3.45    1.12
  12  15   2    3.97    1.13
  12  16  -2    2.34    1.11
  11  16  -2    2.19    1.12
  10 -16  -2    1.10    0.84
  10  16  -2    0.68    0.90
   9 -16  -2    1.56    0.88
   9  16  -2    3.48    1.05
   8 -16  -2    1.28    0.76
   8 -16  -2    1.31    0.66
  -8 -16   2    0.72    0.76
   8  16  -2    1.27    0.94
  -7 -16   2    0.53    0.75
  -7 -16   2    0.35    0.53
   7 -16  -2    0.28    0.62
   7 -16  -2    0.50    0.65
   7  16  -2    0.49    0.88
  -6 -16   2   13.77    1.42
   6 -16  -2   15.08    1.52
   6 -16  -2   14.72    1.49
  -6 -16   2   12.70    1.56
   6  16  -2   11.40    1.62
  -6  16   2   12.69    1.41
   5 -16  -2   10.05    1.28
   5 -16  -2    8.15    1.21
  -5  16   2    7.81    1.22
   4 -16  -2   13.41    1.39
  -4 -16   2    9.87    1.28
   4 -16  -2   13.94    1.47
   4  16  -2    9.10    1.55
  -4  16   2   12.38    1.42
  -3 -16   2   15.90    1.52
  -3 -16   2   14.70    1.69
   3  16  -2   15.89    1.76
   2 -16  -2   -0.14    0.60
  -2 -16   2    1.48    0.70
   2 -16  -2    0.26    0.60
  -2 -16   2    2.01    0.57
   2  16  -2    1.50    0.82
  -2  16   2    0.14    0.70
   1 -16  -2   25.79    2.62
  -1 -16   2   34.01    2.70
   1 -16  -2   29.25    2.67
   1  16  -2   35.25    2.72
  -1  16   2   26.67    2.68
   0 -16   2   15.44    1.80
   0 -16   2   16.68    1.81
   0 -16  -2   20.45    1.82
   0 -16  -2   22.00    1.90
   0  16  -2   15.79    1.84
   0  16   2   20.34    1.90
   1 -16   2    9.13    1.23
   1 -16   2    9.94    1.29
  -1  16  -2    8.55    1.25
   2 -16   2    5.93    0.92
   2 -16   2    5.48    0.91
  -2 -16  -2    6.65    1.05
  -2  16  -2    5.81    0.92
   2  16   2    6.52    1.08
   3 -16   2   11.78    1.30
   3 -16   2   10.53    1.32
  -3 -16  -2    7.80    1.32
  -3  16  -2   11.26    1.37
   4 -16   2    6.81    0.92
  -4 -16  -2    3.58    0.60
  -4 -16  -2    4.10    0.90
   4  16   2    5.06    1.07
  -4  16  -2    7.19    1.03
   5 -16   2    6.06    0.92
   5 -16   2    5.15    0.92
  -5  16  -2    5.35    0.84
   6 -16   2    3.50    0.78
  -6 -16  -2    3.26    0.51
  -6 -16  -2    4.15    0.90
   6 -16   2    3.67    0.79
  -6  16  -2    2.84    0.58
   6  16   2    3.57    1.02
  -7 -16  -2    5.79    0.99
   7 -16   2    3.22    0.79
   7  16   2    5.63    1.11
   8 -16   2   19.92    1.88
  -8 -16  -2   20.50    2.08
   8  16   2   18.45    2.14
   9 -16   2    5.26    0.78
   9  16   2    3.77    1.12
  10  16   2    3.92    1.14
  11  16   2    0.48    0.95
  12  16   2    0.47    0.97
  11  17  -2   29.57    2.90
  10 -17  -2    0.34    0.81
  10  17  -2    0.53    0.95
   9 -17  -2   33.70    3.52
   9  17  -2   48.95    3.70
  -8 -17   2   -0.07    0.74
   8 -17  -2   -0.20    0.61
   8 -17  -2   -0.20    0.69
   8  17  -2   -0.02    0.87
  -7 -17   2    2.26    0.63
   7 -17  -2    2.48    0.78
  -7 -17   2    3.16    0.90
   7  17  -2    3.02    1.01
   6 -17  -2   37.30    3.20
  -6 -17   2   37.46    3.25
   6 -17  -2   35.94    3.17
  -6 -17   2   36.38    3.05
   6  17  -2   37.60    3.30
  -5 -17   2    9.30    1.36
  -5 -17   2    8.71    1.16
   5  17  -2    9.12    1.41
   4 -17  -2  135.07   10.22
   4 -17  -2  147.00   10.23
  -4 -17   2  119.11    9.83
  -4 -17   2  120.03   10.24
   4  17  -2  117.61   10.24
  -4  17   2  131.41   10.19
   3 -17  -2    7.22    1.02
   3 -17  -2    6.28    1.01
  -3 -17   2    8.11    1.28
  -3 -17   2    7.80    1.07
   3  17  -2    8.71    1.21
  -3  17   2    6.60    1.09
  -2 -17   2   85.26    7.76
  -2 -17   2   88.61    7.45
   2 -17  -2  111.46    7.78
  -2  17   2  113.55    7.77
   2  17  -2   84.08    7.74
   1 -17  -2   12.48    1.51
   1 -17  -2   11.98    1.40
  -1  17   2   12.09    1.52
   0 -17   2   76.95    7.38
   0 -17  -2  101.76    7.43
   0 -17   2   91.37    7.42
   0  17   2  105.50    7.44
   0  17  -2   85.45    7.40
   1 -17   2   14.21    1.65
   1 -17   2   14.70    1.59
  -1  17  -2   15.29    1.63
   2 -17   2    7.37    1.24
  -2 -17  -2    8.99    1.22
   2 -17   2    7.27    1.19
  -2  17  -2    7.80    1.23
   2  17   2    8.79    1.37
  -3 -17  -2   53.40    4.42
   3  17   2   51.71    4.45
  -4 -17  -2   12.01    1.19
  -4 -17  -2   11.88    1.45
   4  17   2   10.90    1.63
   5 -17   2    2.10    0.73
   5 -17   2    2.10    0.72
  -5 -17  -2    0.05    0.41
  -5 -17  -2   -0.04    0.71
   5  17   2    0.06    0.82
  -5  17  -2    1.90    0.66
  -6 -17  -2    1.28    0.80
   6 -17   2    1.93    0.73
   6 -17   2    1.89    0.73
   6  17   2    0.74    0.86
  -7 -17  -2   14.94    1.73
   7  17   2   14.77    1.83
   8  17   2    1.26    1.02
   9 -17   2   11.93    1.33
   9  17   2   11.40    1.65
  10 -17   2    5.79    0.80
  10  17   2    1.20    1.01
  11  17   2    5.49    1.28
  11  18  -2    1.12    1.05
  10  18  -2    0.58    0.99
   9 -18  -2   12.55    1.67
   9  18  -2   15.25    1.77
  -8 -18   2    8.50    1.38
   8  18  -2    8.35    1.35
   7 -18  -2   41.51    3.72
  -7 -18   2   46.70    3.85
   7  18  -2   43.18    3.84
  -6 -18   2    7.91    1.30
  -6 -18   2    7.10    1.07
  -5 -18   2   15.34    1.95
   5 -18  -2   23.74    1.96
   5 -18  -2   23.55    2.00
  -5 -18   2   15.80    1.81
   5  18  -2   16.51    2.06
  -5  18   2   21.14    1.94
   4 -18  -2    1.19    0.74
  -4 -18   2    1.99    0.60
  -4 -18   2    2.15    0.84
   4 -18  -2    0.77    0.70
  -4  18   2    1.15    0.79
   4  18  -2    2.36    0.97
  -3 -18   2    7.09    1.12
   3 -18  -2    8.66    1.18
  -3 -18   2    6.55    0.95
   3 -18  -2    8.67    1.35
  -3  18   2    9.41    1.37
   3  18  -2    7.31    1.23
  -2 -18   2    4.05    0.76
  -2 -18   2    4.78    0.95
   2  18  -2    4.26    1.05
   1 -18  -2    5.64    0.97
  -1  18   2    6.55    1.10
   1  18  -2    9.55    1.32
   0 -18   2    1.88    0.81
   0  18  -2    3.17    0.89
   1 -18   2   59.32    4.77
   1 -18   2   57.93    4.77
  -1  18  -2   54.58    4.73
  -2 -18  -2   27.02    2.14
   2 -18   2   19.09    2.12
   2 -18   2   19.35    2.08
  -2  18  -2   21.14    2.14
   3 -18   2    1.66    0.78
   3 -18   2    1.44    0.75
  -3 -18  -2    1.77    0.78
  -3  18  -2    2.23    0.79
   3  18   2    0.90    0.99
  -4 -18  -2    2.11    0.51
   4 -18   2    1.17    0.74
  -4 -18  -2    2.34    0.80
   4 -18   2    1.67    0.76
  -4  18  -2    1.42    0.71
   4  18   2    1.22    0.89
  -5 -18  -2   25.74    1.96
   5 -18   2   18.21    2.13
   5 -18   2   22.40    2.22
  -5  18  -2   20.31    2.12
   5  18   2   29.41    2.41
  -6 -18  -2    2.01    0.87
   6 -18   2    3.10    0.81
   6  18   2    1.64    1.03
  -7 -18  -2    4.55    1.02
   7  18   2    4.80    1.21
   8 -18   2    3.68    0.83
   8  18   2    4.72    1.17
   9 -18   2    0.95    0.67
   9  18   2    1.56    1.07
  10 -18   2    0.34    0.65
  10  18   2   -0.13    0.96
  11  18   2    2.49    1.18
  10  19  -2    7.91    1.46
   9 -19  -2    0.96    0.87
   9  19  -2    5.21    1.20
   8 -19  -2   27.58    2.53
   7 -19  -2   19.45    2.18
  -7 -19   2   26.26    2.34
   7  19  -2   22.87    2.35
   6 -19  -2    0.83    0.75
  -6 -19   2    0.62    0.80
   6  19  -2   -0.17    0.95
   5 -19  -2   50.44    4.26
   5 -19  -2   51.00    4.25
  -5  19   2   49.96    4.23
  -4 -19   2   32.96    3.30
   4 -19  -2   37.48    3.25
   4 -19  -2   42.29    3.33
  -4  19   2   39.82    3.29
   4  19  -2   35.27    3.35
  -3 -19   2   18.38    1.92
   3  19  -2   17.90    1.99
   2 -19  -2    1.20    0.72
  -2 -19   2    2.92    0.84
   2 -19  -2    1.35    0.73
   2  19  -2    2.91    0.99
  -2  19   2    1.74    0.87
   1 -19  -2   11.95    1.47
  -1  19   2   13.01    1.63
   0 -19  -2   10.48    1.43
   0 -19   2   14.13    1.52
   0  19  -2   13.18    1.57
   0  19   2   10.67    1.60
   1 -19   2    2.70    0.85
   1  19   2    5.80    1.07
  -1  19  -2    3.11    0.93
   2 -19   2   38.17    3.42
  -2 -19  -2   36.55    3.44
   2 -19   2   44.49    3.48
   2  19   2   37.51    3.52
  -2  19  -2   41.23    3.46
  -3 -19  -2   12.63    1.45
   3 -19   2   11.01    1.46
   3 -19   2    9.82    1.39
   3  19   2   11.25    1.65
  -3  19  -2    9.68    1.40
  -4 -19  -2   20.99    2.09
  -4 -19  -2   22.29    2.35
   4 -19   2   29.37    2.35
   4  19   2   24.18    2.50
  -4  19  -2   28.41    2.34
   5 -19   2   37.18    2.92
  -5 -19  -2   29.78    2.94
   5  19   2   29.91    3.03
  -6 -19  -2   16.13    1.74
   6 -19   2   10.48    1.53
   6  19   2   15.46    1.84
  -7 -19  -2   30.74    2.62
   7 -19   2   21.83    2.43
   7  19   2   28.84    2.67
   8 -19   2    0.85    0.72
   8  19   2   -0.05    0.88
   9 -19   2    8.72    1.25
   9  19   2   11.23    1.69
  10 -19   2    0.16    0.69
  10  19   2    0.93    1.00
  10  20  -2    0.23    1.04
   9 -20  -2    1.52    0.84
   9  20  -2    3.68    1.23
   8 -20  -2    9.38    1.39
   8  20  -2    9.89    1.62
   7 -20  -2    0.62    0.80
  -7 -20   2    2.16    0.92
   7  20  -2    3.11    1.09
   6 -20  -2    1.30    0.80
  -6 -20   2   -0.10    0.80
   6  20  -2    0.33    0.99
   5 -20  -2   -0.54    0.70
  -5 -20   2   -0.01    0.79
   5  20  -2    0.96    0.97
   4 -20  -2    1.55    0.74
   4 -20  -2    1.77    0.79
  -4 -20   2    4.36    0.97
   4  20  -2    4.67    1.11
  -4  20   2    1.13    0.83
   3 -20  -2    9.41    1.26
   3 -20  -2    9.49    1.45
  -3 -20   2    8.22    1.36
   3  20  -2    7.59    1.32
  -3  20   2    9.62    1.47
   2 -20  -2   -0.02    0.67
  -2 -20   2   -0.06    0.75
   2  20  -2   -0.33    0.90
  -2  20   2    0.01    0.85
  -1 -20   2   18.89    1.83
   1 -20  -2   14.00    1.76
   1  20  -2   18.51    1.89
  -1  20   2   14.64    1.89
   0 -20   2   26.26    2.68
   0 -20  -2   32.80    2.73
   0  20  -2   26.82    2.70
   0  20   2   31.98    2.78
   1 -20   2   20.01    1.88
  -1 -20  -2   15.25    1.86
   1  20   2   14.95    1.98
  -1  20  -2   20.55    1.97
   2 -20   2    6.30    1.10
  -2  20  -2    8.81    1.38
   2  20   2    9.83    1.52
   3 -20   2    2.39    0.86
  -3 -20  -2    3.75    0.64
  -3 -20  -2    4.73    0.95
   3 -20   2    2.11    0.81
  -3  20  -2    2.80    0.87
   3  20   2    4.34    1.16
  -4 -20  -2    3.16    0.87
   4 -20   2    1.82    0.81
   4 -20   2    1.10    0.76
  -4 -20  -2    2.16    0.54
  -4  20  -2    1.19    0.81
   4  20   2    1.88    0.97
  -5 -20  -2    0.40    0.80
   5 -20   2    0.60    0.73
   5  20   2   -0.09    0.93
   6 -20   2    1.30    0.76
  -6 -20  -2    0.26    0.83
   6  20   2   -0.22    0.96
  -7 -20  -2    2.04    0.93
   7  20   2    3.21    1.16
   8 -20   2    5.78    1.03
   8  20   2    6.91    1.35
   9 -20   2    6.11    0.98
   9  20   2    4.64    1.32
  10 -20   2    2.03    0.78
  10  20   2    2.68    1.20
   9 -21  -2    1.24    0.86
   9  21  -2    3.05    1.26
   8 -21  -2    1.82    0.84
   8  21  -2   -0.05    1.02
  -7 -21   2    0.56    0.86
   7 -21  -2    1.49    0.85
   7  21  -2    1.30    0.96
   6 -21  -2    0.54    0.78
  -6 -21   2    0.53    0.87
   6  21  -2    0.24    0.91
  -5 -21   2    1.05    0.87
   5 -21  -2    0.54    0.78
   5  21  -2    0.63    0.98
   4 -21  -2   40.01    3.07
  -4 -21   2   26.84    3.03
   4  21  -2   29.06    3.11
  -4  21   2   39.36    3.08
  -3 -21   2    2.79    0.91
   3  21  -2    2.90    1.05
   2 -21  -2   28.14    2.35
  -2 -21   2   20.01    2.35
   2  21  -2   21.53    2.40
  -2  21   2   27.74    2.46
  -1 -21   2    0.93    0.81
   1 -21  -2    2.54    0.83
  -1  21   2    1.52    0.91
   1  21  -2    0.71    0.92
   0 -21  -2   22.09    1.97
   0 -21   2   14.80    1.88
   0  21   2   22.15    2.07
   0  21  -2   14.47    1.98
   1 -21   2    7.45    1.16
  -1  21  -2    7.62    1.27
  -2 -21  -2   21.08    2.16
   2 -21   2   21.86    2.14
  -2  21  -2   22.27    2.17
   2  21   2   20.40    2.27
   3 -21   2    5.01    1.05
  -3 -21  -2    7.98    1.26
  -3 -21  -2    7.99    1.02
   3  21   2    7.59    1.32
  -3  21  -2    5.18    1.07
  -4 -21  -2    1.20    0.83
   4  21   2    1.30    0.96
  -5 -21  -2   12.07    1.62
   5  21   2   12.10    1.78
  -6 -21  -2    1.63    0.93
   6 -21   2    3.32    0.89
   6  21   2    0.87    1.00
  -7 -21  -2    3.99    1.05
   7 -21   2    1.68    0.84
   7  21   2    4.47    1.20
   8 -21   2    8.60    1.33
   9 -21   2   11.26    1.39
   9  21   2    6.94    1.51
  10 -21   2    2.46    0.84
   9 -22  -2    2.94    0.96
   9  22  -2    3.40    1.30
   8 -22  -2   10.25    1.50
  -7 -22   2    0.11    0.88
   7 -22  -2   -0.56    0.84
   7  22  -2   -0.33    0.97
  -6 -22   2    5.12    1.15
   6 -22  -2    8.21    1.27
   6  22  -2    4.72    1.26
  -5 -22   2    0.40    0.85
   5 -22  -2    0.01    0.77
   5  22  -2   -0.79    0.88
   4 -22  -2    8.31    1.25
  -3 -22   2   13.58    1.69
   3  22  -2   14.40    1.81
   2 -22  -2    2.94    0.88
  -2 -22   2    1.65    0.84
   2  22  -2    1.78    1.04
  -2  22   2    3.42    1.03
   1 -22  -2    1.67    0.81
  -1  22   2    2.58    1.09
   0 -22  -2    5.63    1.06
   0 -22   2    4.35    1.03
   0  22  -2    5.65    1.20
   0  22   2    4.34    1.17
   1 -22   2   11.44    1.46
  -1  22  -2    9.02    1.52
  -2 -22  -2    8.03    1.36
   2  22   2   10.14    1.48
  -3 -22  -2    2.59    0.94
   3 -22   2    3.99    0.95
   3  22   2    1.80    1.02
  -3  22  -2    4.07    0.99
   4 -22   2    0.97    0.78
  -4 -22  -2    0.31    0.83
   4  22   2    0.57    0.95
   5 -22   2    1.77    0.85
  -5 -22  -2    3.67    1.05
   5  22   2    2.35    1.19
  -6 -22  -2    2.42    0.98
   6  22   2    2.54    1.16
   7 -22   2    1.43    0.83
   7  22   2    0.24    1.01
   8 -22   2   11.09    1.57
   8  22   2   16.25    1.94
   9 -22   2    2.66    0.90
   9  22   2    3.20    1.28
  10 -22   2    2.61    0.90
   9 -23  -2    0.37    0.88
   8 -23  -2    4.48    1.03
   8  23  -2    0.97    1.15
  -7 -23   2   15.24    1.85
   7 -23  -2   10.81    1.74
   7  23  -2   15.47    2.00
  -6 -23   2    1.87    0.95
   6  23  -2    1.72    1.09
  -5 -23   2   15.90    1.93
   5  23  -2   16.40    2.07
   4 -23  -2    1.71    0.88
  -4 -23   2    0.22    0.85
   4  23  -2   -0.23    0.97
  -3 -23   2   24.69    2.45
   3  23  -2   23.69    2.54
   2 -23  -2    6.02    1.14
  -2 -23   2    9.51    1.36
   2  23  -2   10.16    1.58
  -2  23   2    5.56    1.23
  -1 -23   2    3.82    0.95
   1 -23  -2    1.83    0.85
   1  23  -2    4.15    1.19
  -1  23   2    1.39    0.98
   0 -23  -2    2.89    0.93
   0  23   2    1.57    1.00
  -1 -23  -2    3.19    0.95
   1 -23   2    0.97    0.82
   1  23   2    3.37    1.16
  -1  23  -2    1.66    1.00
  -2 -23  -2   12.58    1.79
   2 -23   2   19.04    1.84
  -2  23  -2   19.68    1.93
   2  23   2   11.80    1.98
   3 -23   2   11.21    1.58
  -3 -23  -2   14.56    1.71
   3  23   2   14.79    1.92
   4 -23   2   29.58    2.79
  -4 -23  -2   30.58    2.87
   4  23   2   29.68    2.95
   5 -23   2   24.02    2.53
  -5 -23  -2   28.00    2.67
   5  23   2   27.40    2.71
   6 -23   2   17.58    1.91
  -6 -23  -2   16.77    2.02
   6  23   2   15.57    2.09
   7 -23   2    2.63    0.95
   7  23   2    5.43    1.38
   8 -23   2    8.24    1.16
   8  23   2    3.83    1.39
   9 -23   2    2.77    0.90
  10 -23   2   -0.58    0.85
   9 -24  -2    0.36    0.94
   8 -24  -2    2.31    0.97
   7 -24  -2   14.45    1.91
   7  24  -2   17.77    2.20
   6 -24  -2    6.08    1.24
  -6 -24   2    9.90    1.57
   6  24  -2   10.09    1.63
  -5 -24   2    2.68    1.03
   5 -24  -2    1.14    0.91
   5  24  -2    2.08    1.15
  -4 -24   2    0.55    0.90
   4 -24  -2    0.21    0.85
   4  24  -2   -0.13    1.02
  -3 -24   2    0.61    0.88
   3 -24  -2    0.83    0.81
   3  24  -2   -0.32    1.02
  -2 -24   2    3.33    1.04
   2 -24  -2    6.51    1.10
  -2  24   2    6.01    1.22
   2  24  -2    2.53    1.27
  -1 -24   2    0.72    0.82
   1 -24  -2    1.15    0.85
  -1  24   2    0.47    0.90
   1  24  -2    0.13    0.98
   0 -24   2    7.91    1.29
   0 -24  -2    9.89    1.42
   0  24  -2    8.23    1.43
   0  24   2    9.18    1.52
  -1 -24  -2    0.66    0.82
   1 -24   2    0.59    0.80
   1  24   2    0.38    0.95
  -1  24  -2    0.00    0.96
   2 -24   2   11.18    1.57
  -2  24  -2   12.65    1.73
   3 -24   2    0.55    0.82
  -3 -24  -2    1.06    0.90
   3  24   2    0.84    1.00
  -4 -24  -2    2.06    1.00
   4 -24   2    0.65    0.86
   4  24   2    3.36    1.27
   5 -24   2    2.98    0.98
  -5 -24  -2    0.87    0.98
   5  24   2    0.55    1.04
  -6 -24  -2    1.96    1.02
   6 -24   2    0.86    0.87
   6  24   2    2.36    1.26
   7 -24   2    5.98    1.16
   7  24   2    6.05    1.46
   8 -24   2    0.21    0.81
   9 -24   2    1.44    0.89
   8 -25  -2    0.59    0.91
   7 -25  -2    4.70    1.16
   7  25  -2    6.18    1.51
   6 -25  -2    1.16    0.92
  -6 -25   2   -0.14    0.96
   6  25  -2   -0.19    1.07
   5 -25  -2    0.12    0.87
  -5 -25   2    0.20    0.95
   5  25  -2    0.71    1.09
  -4 -25   2    6.30    1.30
   4  25  -2    6.92    1.48
  -3 -25   2   -0.02    0.90
   3 -25  -2    2.47    0.95
   3  25  -2   -0.48    1.02
   2 -25  -2   22.83    2.14
  -2 -25   2   16.62    2.15
   2  25  -2   16.00    2.27
  -2  25   2   23.93    2.30
  -1 -25   2    2.63    0.98
   1 -25  -2    0.67    0.85
   1  25  -2    3.41    1.23
  -1  25   2    0.80    0.97
   0 -25   2    9.58    1.59
   0 -25  -2   12.20    1.59
   0  25  -2   10.51    1.77
   0  25   2   13.37    1.85
   1 -25   2    4.30    1.03
  -1 -25  -2    2.36    0.96
   1  25   2    0.97    1.03
  -1  25  -2    3.91    1.19
   2 -25   2   21.47    2.09
  -2 -25  -2   16.36    2.04
   2  25   2   16.83    2.21
   3 -25   2    1.43    0.91
  -3 -25  -2    2.70    1.02
   3  25   2    2.35    1.27
  -4 -25  -2    3.74    1.12
   4  25   2    4.64    1.38
  -5 -25  -2    3.58    1.13
   5 -25   2    0.86    0.90
   5  25   2    3.84    1.33
  -6 -25  -2    6.26    1.29
   6  25   2    5.69    1.46
   7 -25   2    5.83    1.14
   7  25   2    8.48    1.59
   8 -25   2    4.02    1.04
   6 -26  -2    0.07    0.92
  -6 -26   2    0.88    1.04
   6  26  -2   -0.52    1.12
   5 -26  -2    2.15    0.98
  -5 -26   2    0.56    1.02
   5  26  -2    0.24    1.10
  -4 -26   2    6.66    1.34
   4  26  -2    6.55    1.54
  -3 -26   2    3.02    1.10
   3 -26  -2    1.27    0.94
   3  26  -2    3.29    1.31
  -2 -26   2    1.72    1.01
   2 -26  -2    1.40    0.91
   2  26  -2    1.18    1.09
  -1 -26   2   14.58    1.79
   1 -26  -2   11.33    1.67
  -1  26   2   12.47    1.94
   1  26  -2   14.11    1.93
   0 -26   2    8.42    1.34
   0 -26  -2    6.83    1.27
   0  26   2    7.11    1.47
   0  26  -2    7.73    1.45
   1 -26   2    7.73    1.40
  -1 -26  -2   11.89    1.59
  -1  26  -2    8.80    1.54
   1  26   2   13.45    1.89
   2 -26   2    0.55    0.90
  -2 -26  -2    0.35    0.92
   2  26   2    0.99    1.07
   3 -26   2    3.79    1.06
  -3 -26  -2    1.42    1.02
   3  26   2    1.48    1.10
  -4 -26  -2    1.90    1.06
   4 -26   2    2.19    0.98
   4  26   2    2.65    1.31
  -5 -26  -2    3.49    1.15
   5 -26   2    2.89    1.00
   5  26   2    1.50    1.13
  -6 -26  -2    5.24    1.29
   6  26   2    7.60    1.59
  -6 -27   2    1.19    1.02
  -5 -27   2    4.06    1.21
   5 -27  -2    1.73    1.00
   5  27  -2    3.60    1.41
  -4 -27   2    1.08    1.02
   4 -27  -2    1.16    0.99
   4  27  -2    1.87    1.20
  -3 -27   2    4.90    1.25
   3  27  -2    5.76    1.47
   2 -27  -2    2.95    1.07
  -2 -27   2    3.06    1.10
   2  27  -2    2.89    1.32
  -1 -27   2    2.61    1.06
   1 -27  -2    1.93    0.99
   1  27  -2    2.34    1.27
   0 -27   2    6.63    1.28
   0 -27  -2    4.91    1.20
   0  27   2    4.99    1.42
   0  27  -2    6.20    1.43
  -1 -27  -2    3.43    1.12
   1 -27   2    1.18    1.00
   1  27   2    4.40    1.42
   2 -27   2    6.95    1.34
  -2 -27  -2    7.53    1.39
   2  27   2    8.83    1.61
  -3 -27  -2   31.64    3.06
   3  27   2   29.32    3.11
   4 -27   2   14.26    1.79
  -4 -27  -2   13.02    1.91
   4  27   2   14.26    2.14
   5 -27   2    0.56    0.93
  -5 -27  -2    2.15    1.12
   5  27   2    3.15    1.41
  -5 -28   2    1.17    1.04
   5  28  -2    0.66    1.18
  -4 -28   2    6.67    1.39
   4  28  -2    6.48    1.57
   3 -28  -2    1.78    1.06
  -3 -28   2    4.59    1.17
   3  28  -2    5.07    1.49
   2 -28  -2    0.36    0.95
  -2 -28   2    1.29    1.02
   2  28  -2    0.29    1.12
   1 -28  -2   -0.25    0.97
  -1 -28   2    0.64    0.96
   1  28  -2    0.96    1.10
   0 -28  -2    2.88    1.09
   0 -28   2    0.14    0.93
   0  28  -2    1.06    1.12
   0  28   2    1.38    1.09
  -1 -28  -2    2.99    1.11
   1 -28   2    1.58    0.99
   1  28   2    1.28    1.14
  -2 -28  -2    3.50    1.18
   2 -28   2    0.95    0.95
   2  28   2    1.78    1.22
  -3 -28  -2    1.28    1.06
   3 -28   2    3.04    1.04
   3  28   2    1.31    1.21
  -4 -28  -2    1.66    1.08
   4  28   2    1.27    1.18
  -5 -28  -2    5.78    1.34
  -5 -29   2    1.07    1.05
  -4 -29   2    1.54    1.12
   4  29  -2    2.97    1.45
  -3 -29   2    2.40    1.16
   3  29  -2    2.73    1.46
  -2 -29   2    7.90    1.46
   2  29  -2    9.83    1.75
  -1 -29   2    3.44    1.14
   1 -29  -2    0.39    1.04
   1  29  -2    3.97    1.46
   0 -29   2    1.73    1.04
   0 -29  -2    0.64    1.06
  -1 -29  -2    0.54    1.06
   1 -29   2    1.91    1.02
   1  29   2    0.01    1.11
  -2 -29  -2    0.53    1.07
   2  29   2    0.54    1.19
  -3 -29  -2    0.56    1.09
   3  29   2    0.17    1.19
  -4 -29  -2    1.01    1.11
   4  29   2    0.38    1.24
  -5 -29  -2    1.60    1.15
   3  30  -2    5.05    1.56
   2  30  -2    2.48    1.49
   2  30   2   -0.31    1.17
   3  30   2    1.00    1.21
   2  31   2   -0.08    1.21
  14   0  -3    0.15    0.83
  13   0  -3    0.64    0.86
  12   0  -3    2.49    0.84
  11   0  -3    1.40    0.55
  11   0  -3    1.09    0.71
  10   0  -3    5.54    0.86
  10   0  -3    5.24    0.92
  10   0  -3    5.10    0.83
   9   0  -3   -0.22    0.45
   9   0  -3   -0.19    0.50
   9   0  -3   -0.16    0.62
   8   0  -3    4.03    0.75
   8   0  -3    2.38    0.58
   8   0  -3    3.02    0.54
   7   0  -3    0.15    0.42
   7   0  -3   -0.15    0.44
  -7   0   3    0.03    0.54
   7   0  -3    0.73    0.55
   6   0  -3   -0.40    0.38
  -6   0   3   -0.16    0.21
   6   0  -3   -0.26    0.39
  -6   0   3   -0.02    0.46
   6   0  -3   -0.65    0.45
   5   0  -3    3.38    0.52
   5   0  -3    3.08    0.52
  -5   0   3    2.86    0.47
  -5   0   3    4.02    0.62
   5   0  -3    3.69    0.62
  -4   0   3    0.07    0.37
   4   0  -3    0.14    0.36
   4   0  -3    0.11    0.41
   4   0  -3   -0.04    0.36
  -4   0   3   -0.19    0.40
   3   0  -3    1.95    0.44
  -3   0   3    1.85    0.46
   3   0  -3    1.54    0.42
  -3   0   3    2.00    0.43
   3   0  -3    1.72    0.43
   2   0  -3    1.61    0.39
  -2   0   3    1.27    0.42
   2   0  -3    1.60    0.41
  -2   0   3    1.55    0.40
  -1   0   3    0.14    0.33
  -1   0   3   -0.01    0.39
   1   0  -3    0.33    0.36
   1   0  -3    0.36    0.31
   0   0  -3    0.76    0.36
   0   0   3    0.52    0.39
   0   0   3    0.97    0.31
   0   0  -3    0.83    0.28
   1   0   3    1.50    0.31
  -1   0  -3    1.24    0.28
   1   0   3    1.25    0.40
  -1   0  -3    1.72    0.38
  -2   0  -3    0.53    0.32
   2   0   3    0.81    0.38
  -3   0  -3    4.97    0.69
   3   0   3    4.94    0.73
   4   0   3    6.61    0.81
  -4   0  -3    7.15    0.76
   5   0   3    0.46    0.37
  -5   0  -3    0.91    0.27
  -5   0  -3    0.61    0.29
   6   0   3    0.63    0.42
   6   0   3    1.26    0.41
   7   0   3    0.47    0.44
   7   0   3    0.11    0.39
   7   0   3    0.04    0.40
   8   0   3    0.12    0.50
   8   0   3   -0.14    0.44
   8   0   3    0.04    0.42
   9   0   3   -0.62    0.55
  10   0   3   -0.66    0.58
  11   0   3   -0.58    0.61
  12   0   3   -0.75    0.62
  14  -1  -3    1.26    0.96
  14   1  -3    3.12    0.97
  13  -1  -3    5.78    1.07
  13   1  -3    4.79    1.01
  12  -1  -3    3.23    0.90
  12   1  -3    4.10    0.94
  11  -1  -3   34.16    3.15
  11   1  -3   37.96    3.05
  11   1  -3   37.87    3.14
  10  -1  -3    0.15    0.48
  10  -1  -3    0.44    0.44
  10  -1  -3    0.09    0.68
  10   1  -3    0.40    0.65
  10   1  -3   -0.02    0.54
  10   1  -3   -0.11    0.48
   9  -1  -3   24.91    1.92
   9  -1  -3   23.12    2.07
   9  -1  -3   24.51    1.93
   9   1  -3   20.12    2.00
   9   1  -3   19.63    1.95
   9   1  -3   20.57    1.97
   8  -1  -3    2.58    0.49
   8  -1  -3    2.95    0.55
   8  -1  -3    3.66    0.72
  -8  -1   3    1.95    0.66
   8   1  -3    2.23    0.53
   8   1  -3    1.44    0.56
   8   1  -3    2.19    0.66
  -7  -1   3  118.05    9.14
   7  -1  -3  109.23    8.95
   7  -1  -3  110.61    9.16
  -7  -1   3  129.46    8.98
   7  -1  -3  113.90    9.16
   7   1  -3  114.67    9.18
   7   1  -3  120.58    9.18
   7   1  -3  117.31    8.96
  -6  -1   3   20.06    1.68
   6  -1  -3   16.99    1.65
   6  -1  -3   18.65    1.59
   6  -1  -3   17.76    1.59
   6   1  -3   18.14    1.62
   6   1  -3   17.77    1.62
  -6   1   3   18.44    1.69
   6   1  -3   18.22    1.65
  -5  -1   3  159.75   11.25
   5  -1  -3  138.29   11.23
  -5  -1   3  147.89   11.56
   5  -1  -3  138.93   11.56
   5  -1  -3  145.17   11.56
   5   1  -3  152.53   11.57
   5   1  -3  149.71   11.57
  -5   1   3  144.45   11.24
   5   1  -3  152.13   11.24
  -4  -1   3    9.81    1.01
  -4  -1   3   11.05    1.07
   4   1  -3    9.89    1.03
   4   1  -3   10.11    1.03
   4   1  -3    9.91    1.06
   3  -1  -3  346.68   25.66
  -3  -1   3  312.86   24.82
   3  -1  -3  339.00   24.83
  -3  -1   3  317.89   25.67
   3   1  -3  323.59   25.66
   3   1  -3  321.23   25.67
  -3   1   3  348.19   24.84
  -3   1   3  334.76   25.66
   3   1  -3  319.63   24.83
   2  -1  -3   84.02    6.88
  -2  -1   3   95.49    6.67
   2  -1  -3   80.50    6.66
  -2  -1   3   92.03    6.89
   2   1  -3   91.75    6.88
  -2   1   3   76.77    6.87
   2   1  -3   96.94    6.90
  -2   1   3   80.54    6.67
   2   1  -3   89.11    6.66
  -1  -1   3   59.87    5.22
  -1  -1   3   60.55    5.04
   1  -1  -3   75.35    5.05
  -1   1   3   76.92    5.23
   1   1  -3   61.83    5.04
   1   1  -3   61.82    5.23
   0  -1   3   18.87    1.37
   0  -1  -3   14.75    1.47
   0  -1   3   17.28    1.47
   0   1  -3   17.38    1.35
   0   1  -3   18.22    1.47
   0   1   3   13.77    1.35
   0   1  -3   17.54    1.45
   0   1   3   13.60    1.46
  -1  -1  -3   23.13    2.16
  -1  -1  -3   22.30    2.01
   1  -1   3   28.18    2.15
   1  -1   3   28.77    2.05
   1   1   3   24.46    2.17
  -1   1  -3   27.60    2.14
   1   1   3   24.14    2.02
  -1   1  -3   30.65    2.18
   2  -1   3    8.91    0.92
  -2   1  -3    8.29    0.90
  -2   1  -3    9.37    0.95
   3  -1   3  159.87   12.70
  -3  -1  -3  173.42   12.71
   3   1   3  164.52   12.71
  -3   1  -3  161.17   12.70
  -3   1  -3  154.00   12.69
   4  -1   3   29.89    2.78
  -4  -1  -3   39.70    2.81
  -4   1  -3   33.14    2.77
   4   1   3   35.66    2.81
  -5  -1  -3   33.42    2.73
   5   1   3   34.29    2.77
   5   1   3   33.84    2.78
   6  -1   3   91.18    7.12
   6   1   3   90.58    7.14
   6   1   3   85.72    6.90
   6   1   3   95.08    7.15
   7  -1   3   18.15    1.55
   7  -1   3   17.00    1.52
   7  -1   3   18.19    1.51
   7   1   3   17.29    1.53
   7   1   3   17.40    1.57
   7   1   3   16.07    1.50
   8   1   3    5.80    0.84
   8   1   3    5.00    0.82
   8   1   3    5.91    0.85
   9  -1   3   11.18    1.33
   9   1   3   13.01    1.31
   9   1   3   13.16    1.28
   9   1   3   13.73    1.29
  10  -1   3   40.79    3.51
  10   1   3   46.31    3.50
  11  -1   3   -0.19    0.65
  11   1   3    0.16    0.57
  12  -1   3    1.54    0.75
  14  -2  -3    1.29    0.90
  14   2  -3    1.17    0.91
  13  -2  -3    2.33    0.91
  13   2  -3    2.96    0.92
  12  -2  -3    0.68    0.81
  12   2  -3    0.25    0.61
  12   2  -3    0.75    0.77
  11  -2  -3    2.01    0.83
  11   2  -3    4.42    0.75
  11   2  -3    4.44    0.87
  10  -2  -3    0.32    0.69
  10  -2  -3    1.08    0.41
  10   2  -3   -0.17    0.56
  10   2  -3    0.67    0.66
  10   2  -3   -0.09    0.53
   9  -2  -3   44.70    3.42
   9  -2  -3   42.08    3.50
   9  -2  -3   48.39    3.43
   9   2  -3   38.58    3.47
   9   2  -3   39.72    3.45
   9   2  -3   39.36    3.47
   8  -2  -3   30.68    2.63
   8  -2  -3   31.34    2.71
   8  -2  -3   31.61    2.63
  -8  -2   3   34.86    2.75
   8   2  -3   32.51    2.68
   8   2  -3   31.34    2.66
   8   2  -3   32.14    2.68
   7  -2  -3   -0.72    0.41
   7  -2  -3   -0.17    0.38
  -7  -2   3   -0.04    0.22
  -7  -2   3    0.56    0.57
   7  -2  -3    0.37    0.52
   7   2  -3    0.93    0.50
   7   2  -3    1.11    0.45
   7   2  -3    1.08    0.56
  -6  -2   3   14.63    1.36
  -6  -2   3   15.78    1.47
   6   2  -3   15.24    1.40
   6   2  -3   14.59    1.41
   6   2  -3   15.47    1.42
   5  -2  -3    5.44    0.76
  -5  -2   3    6.51    0.77
  -5  -2   3    5.56    0.79
   5  -2  -3    6.13    0.87
   5   2  -3    5.83    0.84
   5   2  -3    5.02    0.79
  -5   2   3    6.04    0.90
   5   2  -3    5.63    0.84
  -4  -2   3  161.61   12.25
  -4  -2   3  162.61   11.88
   4  -2  -3  123.29   12.22
   4   2  -3  162.22   12.26
   4   2  -3  165.74   12.25
   4   2  -3  163.59   11.87
  -3  -2   3  153.82   11.76
  -3  -2   3  147.38   12.14
   3  -2  -3  167.10   12.14
   3  -2  -3  162.70   11.77
  -3  -2   3  151.30   12.14
  -3   2   3  153.14   12.13
  -3   2   3  157.74   11.77
   3   2  -3  156.63   12.15
   3   2  -3  150.34   12.14
   3   2  -3  151.07   11.75
  -2  -2   3   71.16    5.76
  -2  -2   3   74.73    5.77
  -2  -2   3   73.87    5.58
   2   2  -3   72.50    5.76
   2   2  -3   69.32    5.75
   2   2  -3   75.02    5.58
   1  -2  -3   45.11    3.52
  -1  -2   3   46.41    3.54
   1  -2  -3   42.42    3.38
  -1  -2   3   42.79    3.39
  -1  -2   3   41.60    3.51
  -1   2   3   45.84    3.40
   1   2  -3   41.52    3.51
  -1   2   3   42.79    3.52
   1   2  -3   44.37    3.53
   1   2  -3   45.10    3.39
   0  -2   3   57.45    4.20
   0  -2   3   54.00    4.36
   0  -2   3   49.34    4.36
   0   2  -3   54.42    4.35
   0   2  -3   59.37    4.37
   0   2  -3   53.71    4.19
   1  -2   3    9.30    0.99
   1  -2   3   10.41    0.91
   1  -2   3    8.93    1.02
  -1   2  -3    9.17    0.96
  -1   2  -3    9.47    0.98
  -2  -2  -3  227.00   16.04
   2  -2   3  199.64   16.02
  -2   2  -3  189.74   16.01
  -2   2  -3  196.02   16.01
   2   2   3  212.85   16.04
   3  -2   3   12.43    1.15
  -3   2  -3   12.00    1.12
  -3   2  -3   13.34    1.14
   4  -2   3    3.92    0.68
  -4  -2  -3    5.04    0.69
   4   2   3    5.12    0.63
  -4   2  -3    3.92    0.60
   4   2   3    4.63    0.60
   5  -2   3   28.40    2.06
  -5  -2  -3   24.64    2.07
   5   2   3   24.17    2.10
   5   2   3   22.78    1.97
   5   2   3   24.90    2.11
  -6  -2  -3   11.71    1.05
   6   2   3   10.87    1.10
   6   2   3   10.77    1.01
   6   2   3   10.46    1.14
   7  -2   3   59.71    4.70
   7   2   3   60.71    4.76
   7   2   3   57.70    4.58
   7   2   3   59.70    4.75
   8  -2   3    0.35    0.53
   8   2   3   -0.14    0.45
   8   2   3    0.47    0.51
   8   2   3    0.36    0.49
   9  -2   3   60.67    4.55
   9   2   3   53.82    4.48
   9   2   3   56.29    4.63
   9   2   3   59.47    4.63
  10  -2   3    0.26    0.63
  10   2   3    0.15    0.55
  10   2   3    0.40    0.55
  10   2   3    0.02    0.56
  11  -2   3    4.43    0.88
  11   2   3    5.84    0.83
  12  -2   3    3.28    0.84
  14  -3  -3    2.57    1.00
  14   3  -3    3.01    0.95
  13  -3  -3    7.85    1.36
  13   3  -3   12.38    1.26
  13   3  -3   10.65    1.46
  12  -3  -3   10.10    1.37
  12   3  -3    6.90    1.02
  12   3  -3    9.58    1.30
  11  -3  -3   27.13    2.60
  11   3  -3   29.15    2.56
  11   3  -3   30.01    2.50
  10  -3  -3   37.92    3.00
  10   3  -3   32.61    2.91
  10   3  -3   33.94    2.93
  10   3  -3   34.63    2.92
   9  -3  -3   67.35    5.35
   9  -3  -3   65.26    5.35
  -9  -3   3   68.60    5.36
   9  -3  -3   67.47    5.36
   9   3  -3   68.61    5.41
   9   3  -3   69.23    5.42
   9   3  -3   65.90    5.31
   8  -3  -3    1.57    0.63
  -8  -3   3    0.84    0.57
   8  -3  -3    0.89    0.41
   8  -3  -3    0.38    0.44
  -8  -3   3    0.28    0.40
   8   3  -3    0.12    0.55
   8   3  -3    0.65    0.55
   8   3  -3    0.29    0.50
   7  -3  -3   59.19    4.63
   7  -3  -3   63.62    4.64
   7  -3  -3   62.59    4.64
  -7  -3   3   60.37    4.63
   7   3  -3   55.10    4.68
   7   3  -3   53.30    4.68
   7   3  -3   54.27    4.57
   6  -3  -3    4.84    0.68
  -6  -3   3    3.23    0.56
   6  -3  -3    5.44    0.72
  -6  -3   3    3.76    0.64
   6   3  -3    2.98    0.60
   6   3  -3    3.24    0.59
   6   3  -3    3.28    0.61
  -5  -3   3   52.05    4.14
  -5  -3   3   52.01    4.05
  -5  -3   3   48.95    4.12
   5   3  -3   52.55    4.14
   5   3  -3   50.69    4.14
   5   3  -3   52.64    4.03
   4  -3  -3  109.36    8.54
  -4  -3   3  108.67    8.56
  -4  -3   3  108.97    8.30
   4  -3  -3  109.03    8.32
  -4  -3   3  114.85    8.57
  -4   3   3  104.41    8.54
   4   3  -3  110.05    8.30
   4   3  -3  108.97    8.57
  -4   3   3  107.33    8.53
  -4   3   3  105.43    8.32
   4   3  -3  109.69    8.57
  -3  -3   3   15.72    1.51
   3  -3  -3   20.77    1.56
  -3  -3   3   15.47    1.56
   3  -3  -3   20.76    1.54
  -3  -3   3   15.88    1.55
  -3   3   3   20.27    1.57
   3   3  -3   16.01    1.60
  -3   3   3   18.74    1.51
   3   3  -3   17.10    1.55
   3   3  -3   15.96    1.51
  -2  -3   3   65.06    5.23
  -2  -3   3   66.02    5.42
  -2  -3   3   63.48    5.41
   2   3  -3   64.61    5.41
   2   3  -3   67.07    5.23
  -2   3   3   83.74    5.42
   2   3  -3   68.03    5.42
   1  -3  -3  132.25   11.43
  -1  -3   3  155.50   11.05
   1  -3  -3  134.98   11.04
  -1  -3   3  157.11   11.44
  -1  -3   3  160.76   11.44
   1   3  -3  154.34   11.44
  -1   3   3  124.40   11.42
   1   3  -3  157.92   11.44
  -1   3   3  127.95   11.04
   1   3  -3  155.36   11.05
   0  -3  -3  408.35   33.65
   0  -3  -3  391.38   32.51
   0  -3   3  451.70   32.52
   0  -3   3  456.29   33.61
   0  -3   3  444.86   33.67
   0   3  -3  442.68   33.64
   0   3  -3  473.13   33.74
   0   3   3  418.34   32.45
   0   3  -3  441.13   32.58
   0   3   3  388.42   33.60
  -1  -3  -3   13.61    1.28
   1   3   3   13.79    1.10
   1   3   3   12.71    1.34
   1   3   3   12.56    1.28
   2  -3   3    9.17    0.94
  -2  -3  -3    7.45    0.95
   2  -3   3    9.04    0.92
   2   3   3    7.97    1.01
  -2   3  -3    8.80    0.88
  -2   3  -3    8.67    0.88
   2   3   3    7.69    0.94
   3  -3   3  261.60   19.81
  -3  -3  -3  244.03   19.82
   3  -3   3  270.53   19.81
  -3   3  -3  256.95   19.80
  -3   3  -3  265.94   19.80
   3   3   3  237.96   19.83
   3   3   3  240.69   19.82
   4  -3   3   39.66    3.27
  -4  -3  -3   40.92    3.30
   4   3   3   40.89    3.31
  -4   3  -3   41.36    3.25
   4   3   3   41.18    3.32
  -5  -3  -3   39.33    3.14
   5  -3   3   40.01    3.11
   5   3   3   38.45    3.16
   5   3   3   37.08    3.15
   6  -3   3   29.38    2.14
  -6  -3  -3   26.99    2.16
   6   3   3   25.11    2.19
   6   3   3   23.35    2.04
   6   3   3   24.51    2.19
  -7  -3  -3   21.01    1.73
   7   3   3   19.19    1.68
   7   3   3   21.26    1.82
   7   3   3   20.16    1.83
   8  -3   3   23.45    1.88
   8   3   3   20.71    1.89
   8   3   3   19.98    1.78
   8   3   3   21.09    1.91
   9  -3   3    0.04    0.58
   9   3   3    0.45    0.58
   9   3   3    0.70    0.61
   9   3   3    0.45    0.51
  10  -3   3    5.09    0.93
  10   3   3    7.50    1.03
  10   3   3    6.28    0.87
  10   3   3    8.68    1.04
  11  -3   3   11.23    1.36
  11   3   3   12.63    1.29
  11   3   3   10.81    1.20
  12  -3   3    7.59    1.22
  14  -4  -3   -0.06    0.93
  13  -4  -3    0.67    0.87
  13   4  -3    0.64    0.69
  13   4  -3    1.24    0.83
  12  -4  -3    1.41    0.86
  12   4  -3    0.56    0.75
  12   4  -3    0.15    0.69
  11  -4  -3    1.32    0.82
  11   4  -3    2.74    0.73
  11   4  -3    1.89    0.76
  10  -4  -3   14.28    1.44
  10   4  -3    9.57    1.28
  10   4  -3   12.04    1.34
  10   4  -3   10.40    1.29
  -9  -4   3   37.05    3.22
   9  -4  -3   32.95    3.20
   9   4  -3   43.22    3.25
   9   4  -3   39.09    3.22
   9   4  -3   39.95    3.19
  -8  -4   3    5.15    0.80
   8   4  -3    4.80    0.76
   8   4  -3    4.54    0.78
   8   4  -3    4.35    0.72
   7  -4  -3   16.32    1.46
  -7  -4   3   14.41    1.44
  -7  -4   3   13.14    1.30
   7  -4  -3   14.97    1.30
   7   4  -3   12.52    1.37
   7   4  -3   13.01    1.36
   7   4  -3   12.84    1.39
   6  -4  -3    1.22    0.41
  -6  -4   3    2.08    0.55
  -6  -4   3    2.61    0.52
  -6  -4   3    2.61    0.53
   6  -4  -3    0.91    0.56
   6   4  -3    2.67    0.57
   6   4  -3    2.22    0.56
   6   4  -3    2.00    0.54
   5  -4  -3    0.85    0.50
  -5  -4   3    1.11    0.46
   5  -4  -3    1.40    0.40
  -5  -4   3    0.83    0.48
  -5  -4   3    1.74    0.48
   5   4  -3    2.06    0.49
   5   4  -3    1.08    0.51
   5   4  -3    1.08    0.52
  -5   4   3    1.20    0.37
  -4  -4   3  127.54    9.78
   4  -4  -3  119.22    9.48
  -4  -4   3  129.65    9.48
   4  -4  -3  118.74    9.74
  -4  -4   3  125.51    9.78
  -4   4   3  119.31    9.74
   4   4  -3  131.94    9.79
   4   4  -3  123.88    9.78
  -4   4   3  121.75    9.74
   4   4  -3  125.88    9.46
  -3  -4   3   38.50    3.09
   3  -4  -3   42.29    3.11
  -3  -4   3   37.42    3.20
  -3  -4   3   38.13    3.19
   3  -4  -3   39.36    3.17
   3   4  -3   40.22    3.22
   3   4  -3   38.19    3.08
  -3   4   3   40.62    3.18
   3   4  -3   37.94    3.19
  -3   4   3   39.48    3.17
   2  -4  -3  266.35   19.38
  -2  -4   3  236.73   19.38
  -2  -4   3  245.37   18.73
  -2  -4   3  240.18   19.38
   2  -4  -3  261.83   18.74
  -2   4   3  248.53   19.38
  -2   4   3  251.22   19.37
   2   4  -3  240.06   19.38
   2   4  -3  247.97   19.38
   2   4  -3  244.11   18.73
   1  -4  -3   44.59    3.80
   1  -4  -3   45.96    3.96
  -1  -4   3   52.71    3.96
  -1  -4   3   53.31    3.97
  -1  -4   3   52.68    3.82
   1   4  -3   53.14    3.81
   1   4  -3   52.14    3.96
  -1   4   3   41.91    3.94
  -1   4   3   41.59    3.95
   1   4  -3   55.42    3.98
   0  -4   3  283.98   21.52
   0  -4  -3  287.24   22.27
   0  -4   3  286.04   22.27
   0  -4  -3  289.06   21.50
   0  -4   3  286.89   22.28
   0   4   3  289.45   22.28
   0   4  -3  284.27   22.27
   0   4   3  278.20   22.28
   0   4  -3  284.85   22.27
  -1  -4  -3  403.28   31.28
   1  -4   3  395.31   31.23
  -1  -4  -3  377.33   30.16
   1  -4   3  412.48   31.23
   1   4   3  397.77   31.24
  -1   4  -3  425.75   31.26
   1   4   3  373.23   31.23
  -1   4  -3  421.64   31.23
   2  -4   3   17.85    1.53
   2  -4   3   20.12    1.53
  -2  -4  -3   14.96    1.56
  -2   4  -3   17.91    1.51
   2   4   3   16.24    1.61
   2   4   3   14.33    1.57
  -2   4  -3   19.92    1.53
  -3  -4  -3   41.00    3.34
   3  -4   3   41.81    3.32
   3  -4   3   40.66    3.31
   3   4   3   39.21    3.35
  -3   4  -3   43.67    3.31
  -3   4  -3   41.32    3.30
   3   4   3   41.51    3.37
   4  -4   3   83.26    6.64
  -4  -4  -3   87.90    6.67
   4  -4   3   79.31    6.63
   4   4   3   88.55    6.69
  -4   4  -3   83.12    6.62
   4   4   3   84.30    6.67
  -5  -4  -3   30.30    2.46
   5   4   3   30.17    2.49
   5   4   3   28.50    2.48
  -6  -4  -3    1.23    0.43
   6   4   3    1.19    0.52
   6   4   3    1.13    0.53
  -7  -4  -3    6.04    0.80
   7   4   3    6.86    0.96
   7   4   3    5.73    0.69
   7   4   3    6.69    0.83
  -8  -4  -3    2.01    0.44
   8   4   3    2.01    0.46
   8   4   3    2.00    0.62
   8   4   3    2.69    0.63
   9   4   3    6.10    0.82
   9   4   3    4.88    0.77
   9   4   3    5.78    0.85
  10  -4   3    2.00    0.69
  10   4   3    2.14    0.65
  10   4   3    1.90    0.66
  10   4   3    0.64    0.47
  11  -4   3   -0.53    0.67
  11   4   3   -0.56    0.48
  11   4   3    0.01    0.64
  12  -4   3   14.59    1.69
  12   4   3   16.70    1.59
  13  -5  -3    0.91    0.88
  13   5  -3    1.08    0.81
  13   5  -3    0.78    0.73
  12  -5  -3    1.34    0.86
  12   5  -3    1.57    0.79
  12   5  -3    1.71    0.75
  11  -5  -3   -0.50    0.71
  11   5  -3   -0.08    0.69
  11   5  -3   -0.65    0.68
  10  -5  -3   12.20    1.51
  10   5  -3   12.86    1.42
  10   5  -3   13.13    1.46
  10   5  -3   13.57    1.43
  -9  -5   3    5.82    0.90
  -9  -5   3    6.65    0.82
   9  -5  -3    5.54    0.96
   9   5  -3    6.28    0.90
   9   5  -3    6.58    0.87
   9   5  -3    5.60    0.91
  -8  -5   3    5.10    0.81
  -8  -5   3    5.87    0.84
   8   5  -3    6.79    0.95
   8   5  -3    5.65    0.86
   8   5  -3    6.19    0.99
   7  -5  -3   33.69    2.78
  -7  -5   3   34.50    2.83
  -7  -5   3   34.06    2.83
  -7  -5   3   32.59    2.80
   7  -5  -3   32.71    2.84
   7   5  -3   33.08    2.86
   7   5  -3   35.90    2.88
   7   5  -3   34.43    2.79
  -6  -5   3   -0.32    0.46
  -6  -5   3   -0.50    0.44
   6  -5  -3    0.09    0.36
   6  -5  -3    0.41    0.51
  -6  -5   3   -0.07    0.41
   6   5  -3    0.38    0.46
   6   5  -3   -0.66    0.50
   6   5  -3   -1.09    0.50
  -5  -5   3  147.06   12.35
   5  -5  -3  166.62   12.33
   5  -5  -3  160.40   12.00
  -5  -5   3  159.54   11.98
  -5  -5   3  156.74   12.36
   5   5  -3  156.88   12.37
   5   5  -3  155.84   12.37
   5   5  -3  153.77   11.96
  -5   5   3  160.58   12.31
   4  -5  -3   76.34    5.82
  -4  -5   3   69.11    5.84
  -4  -5   3   74.45    5.84
  -4  -5   3   73.38    5.66
   4  -5  -3   75.44    5.69
   4   5  -3   77.46    5.85
   4   5  -3   72.88    5.65
   4   5  -3   73.81    5.85
  -4   5   3   69.70    5.79
  -4   5   3   72.03    5.80
  -3  -5   3  445.97   33.81
   3  -5  -3  414.07   32.68
  -3  -5   3  445.83   32.67
   3  -5  -3  421.80   33.78
  -3  -5   3  446.95   33.81
   3   5  -3  441.39   32.86
   3   5  -3  428.73   33.80
  -3   5   3  432.22   33.78
  -3   5   3  410.08   33.78
   3   5  -3  449.82   33.81
  -2  -5   3   75.70    5.84
  -2  -5   3   73.72    6.05
   2  -5  -3   74.51    5.84
   2  -5  -3   83.95    6.06
  -2  -5   3   71.66    6.05
  -2   5   3   76.40    6.04
  -2   5   3   77.59    6.05
   2   5  -3   74.83    5.83
   2   5  -3   75.75    6.05
   2   5  -3   79.44    6.06
  -1  -5   3  380.56   29.35
   1  -5  -3  349.74   28.39
  -1  -5   3  388.02   28.40
   1  -5  -3  369.27   29.39
  -1  -5   3  406.17   29.35
  -1   5   3  348.31   29.34
   1   5  -3  401.60   29.35
   1   5  -3  384.90   29.35
   1   5  -3  385.68   28.42
  -1   5   3  350.26   29.34
   0  -5   3   35.38    2.90
   0   5  -3   35.33    2.89
   1  -5   3   68.55    4.90
   1  -5   3   65.70    4.89
  -1  -5  -3   56.02    4.89
  -1  -5  -3   58.55    4.66
  -1  -5  -3   59.30    4.90
  -1   5  -3   65.95    4.88
  -1   5  -3   64.65    4.88
   1   5   3   54.63    4.89
   1   5   3   59.26    4.91
   2  -5   3  218.86   17.85
   2  -5   3  224.26   17.85
  -2  -5  -3  231.26   17.87
  -2  -5  -3  244.38   17.87
   2   5   3  248.31   17.88
  -2   5  -3  209.27   17.84
   2   5   3  230.11   17.86
  -2   5  -3  223.05   17.84
  -3  -5  -3   22.06    1.89
   3  -5   3   21.44    1.85
   3  -5   3   20.83    1.83
  -3   5  -3   21.59    1.80
   3   5   3   22.67    1.91
   3   5   3   22.01    1.89
  -3   5  -3   21.14    1.82
   4  -5   3  185.62   14.93
   4  -5   3  187.82   14.93
  -4  -5  -3  187.21   14.95
   4   5   3  191.99   14.97
   4   5   3  197.29   14.98
  -4   5  -3  197.15   14.92
   5  -5   3   49.33    3.59
   5  -5   3   48.46    3.59
  -5  -5  -3   43.23    3.63
   5   5   3   41.83    3.65
   5   5   3   40.90    3.64
   6  -5   3  104.14    8.32
  -6  -5  -3  109.48    8.37
   6   5   3  105.31    8.39
   6   5   3  105.67    8.39
  -7  -5  -3   17.01    1.58
   7   5   3   17.81    1.69
   7   5   3   17.86    1.67
  -8  -5  -3   66.19    5.46
   8   5   3   69.80    5.53
   8   5   3   66.58    5.26
   8   5   3   73.27    5.54
   9  -5   3   16.89    1.75
   9   5   3   18.65    1.61
   9   5   3   20.77    1.83
   9   5   3   19.70    1.82
  10  -5   3    7.56    1.06
  10   5   3    7.03    1.08
  10   5   3    4.80    0.79
  11  -5   3   15.50    1.74
  11   5   3   16.93    1.56
  11   5   3   19.31    1.75
  12  -5   3    3.14    0.90
  12   5   3    3.56    0.81
  13  -5   3    3.09    0.95
  13   5   3    3.90    0.78
  14   6  -3    2.61    0.83
  13   6  -3    5.31    0.97
  13   6  -3    5.34    1.02
  12  -6  -3    3.15    1.00
  12   6  -3    4.56    0.88
  12   6  -3    4.12    0.89
  11  -6  -3    4.12    0.96
  11   6  -3    5.28    0.90
  11   6  -3    4.74    0.90
  10  -6  -3    0.98    0.76
  10   6  -3    0.67    0.70
  10   6  -3    1.56    0.70
  -9  -6   3    1.27    0.61
   9  -6  -3    1.50    0.74
   9   6  -3    1.74    0.68
   9   6  -3    2.24    0.70
   9   6  -3    1.12    0.66
  -8  -6   3    1.40    0.58
  -8  -6   3    1.46    0.53
   8  -6  -3    0.32    0.65
   8  -6  -3    0.98    0.42
   8   6  -3    0.98    0.65
   8   6  -3    1.80    0.61
   8   6  -3    1.72    0.65
   7  -6  -3   26.62    2.67
   7  -6  -3   28.76    2.62
  -7  -6   3   34.90    2.70
  -7  -6   3   32.52    2.67
   7   6  -3   32.60    2.63
   7   6  -3   34.63    2.74
   7   6  -3   33.14    2.73
   6  -6  -3   13.81    1.37
  -6  -6   3   14.24    1.46
   6  -6  -3   13.05    1.43
  -6  -6   3   13.69    1.42
  -6  -6   3   16.11    1.42
   6   6  -3   14.00    1.44
   6   6  -3   16.22    1.40
   6   6  -3   15.20    1.49
   5  -6  -3   79.72    6.00
  -5  -6   3   76.33    5.85
  -5  -6   3   75.19    6.03
   5  -6  -3   70.63    5.86
  -5  -6   3   73.32    6.03
   5   6  -3   73.81    5.84
   5   6  -3   73.69    6.04
  -5   6   3   82.11    5.98
   5   6  -3   75.29    6.04
   4  -6  -3    9.23    0.98
  -4  -6   3    7.53    0.92
  -4  -6   3    7.30    0.99
   4  -6  -3    8.63    0.94
  -4  -6   3    7.32    0.98
  -4   6   3    8.66    0.89
   4   6  -3    7.47    0.91
   4   6  -3    6.86    1.01
   4   6  -3    7.91    1.03
  -4   6   3    8.53    0.91
  -3  -6   3   38.45    3.08
  -3  -6   3   40.01    3.22
  -3  -6   3   39.18    3.20
   3   6  -3   41.57    3.22
   3   6  -3   38.08    3.19
   3   6  -3   36.59    3.06
  -2  -6   3    1.51    0.50
   2  -6  -3    0.44    0.37
   2  -6  -3    0.72    0.41
  -2  -6   3    1.61    0.42
   2  -6  -3    0.31    0.40
  -2  -6   3    0.94    0.46
   2   6  -3    1.34    0.37
  -2   6   3    0.43    0.43
  -2   6   3    0.35    0.39
   2   6  -3    1.33    0.47
   2   6  -3    1.25    0.52
   1  -6  -3   77.48    5.46
  -1  -6   3   59.32    5.44
   1   6  -3   56.90    5.44
  -1   6   3   77.38    5.46
  -1   6   3   78.77    5.47
   1   6  -3   62.05    5.46
   0  -6   3   29.86    2.41
   0  -6   3   28.84    2.29
   0  -6   3   27.67    2.40
   0   6  -3   28.00    2.38
   0   6  -3   28.84    2.39
  -1  -6  -3   24.73    1.92
  -1  -6  -3   22.46    1.88
   1  -6   3   19.00    1.87
   1  -6   3   19.75    1.87
  -1  -6  -3   24.65    1.73
   1   6   3   23.53    1.89
  -1   6  -3   18.78    1.87
   1   6   3   25.15    1.93
  -1   6  -3   18.55    1.86
   2  -6   3    3.62    0.58
   2  -6   3    3.58    0.58
  -2   6  -3    5.11    0.72
  -2   6  -3    4.23    0.68
  -3  -6  -3   33.43    3.13
   3  -6   3   41.30    3.10
   3  -6   3   43.08    3.10
   3   6   3   32.49    3.12
  -3   6  -3   40.81    3.07
  -3   6  -3   41.84    3.07
   3   6   3   32.41    3.13
  -4  -6  -3   37.28    3.10
   4  -6   3   38.37    3.05
  -4  -6  -3   36.59    3.11
   4  -6   3   38.28    3.04
   4   6   3   36.34    3.12
   4   6   3   34.79    3.10
  -4   6  -3   41.09    3.02
  -5  -6  -3    3.15    0.57
   5   6   3    3.08    0.64
   5   6   3    3.31    0.63
   6  -6   3    2.20    0.47
   6  -6   3    1.95    0.43
  -6  -6  -3    1.78    0.52
   6   6   3    1.92    0.60
   6   6   3    2.10    0.62
  -7  -6  -3   60.07    4.99
   7   6   3   67.55    5.06
   7   6   3   59.70    5.03
   8   6   3    8.00    1.15
   8   6   3    7.49    1.15
   9   6   3   23.27    2.12
   9   6   3   22.29    2.11
  10  -6   3    0.46    0.64
  10   6   3    0.10    0.68
  10   6   3   -0.32    0.39
  11  -6   3   11.92    1.40
  11   6   3   10.81    1.41
  12  -6   3    3.87    0.95
  12   6   3    7.18    1.12
  13  -6   3    1.12    0.86
  13   6   3    1.27    0.77
  14   7  -3    4.49    0.95
  13  -7  -3    6.78    1.19
  13   7  -3    5.05    0.98
  13   7  -3    4.37    1.02
  12  -7  -3   14.21    1.62
  12   7  -3   11.71    1.49
  12   7  -3   12.41    1.49
  11  -7  -3   27.69    2.54
  11   7  -3   27.45    2.45
  11   7  -3   26.29    2.40
  10  -7  -3    1.62    0.78
  10   7  -3    0.22    0.72
  10   7  -3    1.04    0.67
  -9  -7   3   15.23    1.65
  -9  -7   3   15.66    1.57
   9   7  -3   16.74    1.61
   9   7  -3   17.21    1.66
   9   7  -3   16.83    1.71
   8  -7  -3   31.09    2.97
  -8  -7   3   34.58    2.96
   8  -7  -3   34.36    2.88
  -8  -7   3   36.04    2.97
   8   7  -3   35.13    3.01
   8   7  -3   37.80    3.04
   8   7  -3   37.84    2.92
   7  -7  -3   22.94    1.81
  -7  -7   3   16.28    1.70
  -7  -7   3   18.60    1.75
   7   7  -3   18.36    1.71
   7   7  -3   17.30    1.76
   7   7  -3   19.53    1.81
  -6  -7   3    6.01    0.98
  -6  -7   3    6.77    0.98
  -6  -7   3    7.35    0.95
   6   7  -3    6.10    0.90
   6   7  -3    7.71    0.94
   6   7  -3    6.87    1.06
  -5  -7   3    9.78    1.10
  -5  -7   3   11.40    1.21
  -5  -7   3   10.01    1.15
   5   7  -3   11.39    1.24
   5   7  -3   10.29    1.18
   5   7  -3   11.17    1.12
  -4  -7   3    3.67    0.59
  -4  -7   3    3.49    0.65
   4  -7  -3    6.00    0.81
  -4  -7   3    3.44    0.66
   4  -7  -3    5.91    0.78
   4   7  -3    3.69    0.58
  -4   7   3    5.73    0.72
  -4   7   3    5.73    0.78
   4   7  -3    3.52    0.67
   4   7  -3    2.91    0.67
   3  -7  -3    2.84    0.50
   3  -7  -3    2.57    0.49
  -3  -7   3    0.90    0.53
  -3  -7   3    1.47    0.44
  -3  -7   3    1.34    0.53
   3  -7  -3    2.83    0.52
   3   7  -3    1.59    0.56
  -3   7   3    2.24    0.50
  -3   7   3    1.68    0.48
   3   7  -3    1.40    0.44
   3   7  -3    1.39    0.55
   2  -7  -3  289.50   20.75
   2  -7  -3  300.51   21.46
   2  -7  -3  271.71   21.46
  -2  -7   3  264.50   20.74
  -2  -7   3  247.40   21.47
  -2  -7   3  276.60   21.48
   2   7  -3  272.11   21.48
   2   7  -3  259.27   20.74
  -2   7   3  291.90   21.46
  -2   7   3  283.46   21.46
   2   7  -3  265.82   21.47
  -1  -7   3    7.47    0.98
  -1  -7   3    7.53    0.93
  -1  -7   3    7.21    0.83
   1   7  -3    7.14    1.02
   1   7  -3    7.53    0.93
   0  -7  -3  319.02   21.75
   0  -7  -3  310.15   21.76
   0  -7   3  248.78   21.74
   0  -7   3  240.20   21.73
   0   7  -3  248.02   21.74
   0   7   3  310.99   21.76
   0   7  -3  260.82   21.74
   0   7   3  289.97   21.74
  -1  -7  -3   20.09    1.74
  -1  -7  -3   17.66    1.69
   1   7   3   18.62    1.71
   1   7   3   18.55    1.73
  -2  -7  -3  134.73   10.11
   2  -7   3  127.57   10.09
  -2  -7  -3  128.24   10.11
   2  -7   3  129.27   10.09
   2   7   3  126.33   10.10
  -2   7  -3  123.69   10.08
  -2   7  -3  128.11   10.08
   2   7   3  129.58   10.12
   3  -7   3   32.83    2.96
   3   7   3   43.63    3.02
  -3   7  -3   33.02    2.95
  -4  -7  -3   76.31    6.54
  -4  -7  -3   80.90    6.54
   4  -7   3   83.41    6.50
   4  -7   3   88.32    6.50
  -4   7  -3   87.89    6.48
   4   7   3   78.47    6.54
   4   7   3   80.03    6.55
  -5  -7  -3   24.81    2.27
   5  -7   3   33.13    2.23
  -5  -7  -3   24.80    2.29
   5   7   3   25.09    2.33
   5   7   3   23.66    2.29
   6  -7   3   26.02    2.10
  -6  -7  -3   24.73    2.20
   6  -7   3   26.41    2.12
   6   7   3   24.31    2.23
   6   7   3   24.43    2.24
   7  -7   3   -0.31    0.40
   7   7   3    0.17    0.61
   7   7   3    0.10    0.61
   8   7   3   18.29    1.83
   8   7   3   19.68    1.87
   9   7   3    0.30    0.72
   9   7   3    1.06    0.69
  10  -7   3    9.85    1.17
  10   7   3    6.39    1.05
  11  -7   3   26.26    2.35
  11   7   3   25.00    2.35
  12  -7   3    9.86    1.47
  12   7   3   13.10    1.49
  13  -7   3   10.93    1.50
  13   7   3   11.35    1.48
  14   8  -3    1.35    0.86
  13  -8  -3    0.50    0.91
  13   8  -3    1.79    0.84
  12  -8  -3    8.04    1.28
  12   8  -3    7.07    1.11
  12   8  -3    8.44    1.27
  11  -8  -3    0.57    0.82
  11   8  -3    1.84    0.82
  11   8  -3    1.89    0.77
  10  -8  -3    1.53    0.82
  10   8  -3    3.48    0.78
  10   8  -3    3.05    0.86
  -9  -8   3   68.54    5.41
   9  -8  -3   57.63    5.41
  -9  -8   3   68.11    5.51
   9   8  -3   73.07    5.57
   9   8  -3   71.72    5.38
   9   8  -3   72.47    5.57
   8  -8  -3    0.67    0.69
  -8  -8   3    2.18    0.64
  -8  -8   3    2.99    0.66
   8   8  -3    2.66    0.68
   8   8  -3    1.90    0.74
   8   8  -3    2.79    0.78
  -7  -8   3   15.07    1.58
  -7  -8   3   18.55    1.62
   7   8  -3   16.88    1.56
   7   8  -3   14.46    1.64
   7   8  -3   16.68    1.70
  -6  -8   3   68.57    5.66
  -6  -8   3   76.93    5.51
   6   8  -3   65.24    5.66
   6   8  -3   67.36    5.46
   6   8  -3   74.26    5.69
  -5  -8   3    0.04    0.52
  -5  -8   3    0.48    0.52
  -5  -8   3    0.35    0.42
   5  -8  -3    0.26    0.48
   5  -8  -3    0.14    0.39
   5   8  -3    0.04    0.56
   5   8  -3    0.41    0.44
   5   8  -3    0.20    0.55
  -5   8   3   -0.12    0.42
  -5   8   3    0.08    0.36
  -4  -8   3    4.44    0.69
  -4  -8   3    4.29    0.72
  -4  -8   3    4.58    0.63
   4   8  -3    4.21    0.61
   4   8  -3    4.26    0.74
   4   8  -3    4.45    0.71
  -3  -8   3    6.82    0.89
   3  -8  -3    8.68    0.90
  -3  -8   3    5.62    0.88
   3  -8  -3   10.08    0.99
  -3  -8   3    6.24    0.97
   3  -8  -3    8.56    0.89
  -3   8   3    9.52    0.99
  -3   8   3    8.47    0.93
   3   8  -3    6.57    0.87
   3   8  -3    6.52    1.05
   3   8  -3    5.93    1.00
  -2  -8   3   29.98    2.45
  -2  -8   3   27.60    2.45
  -2  -8   3   27.20    2.33
   2   8  -3   30.23    2.49
   2   8  -3   28.79    2.45
   1  -8  -3  291.69   24.09
  -1  -8   3  318.17   23.29
  -1  -8   3  325.08   24.12
  -1  -8   3  329.40   24.11
   1  -8  -3  279.10   24.10
   1   8  -3  326.20   24.11
   1   8  -3  346.38   24.12
  -1   8   3  282.28   24.09
  -1   8   3  280.04   24.10
   0  -8   3   78.47    5.47
   0  -8  -3   57.98    5.44
   0  -8   3   78.55    5.47
   0  -8  -3   62.49    5.45
   0   8  -3   75.56    5.46
   0   8   3   56.71    5.44
   1  -8   3  331.07   24.78
   1  -8   3  339.95   24.78
  -1  -8  -3  297.42   24.79
  -1  -8  -3  296.45   24.77
   1   8   3  289.61   24.78
  -1   8  -3  337.02   24.78
  -1   8  -3  349.35   24.79
   1   8   3  298.17   24.79
   2  -8   3   91.50    7.51
  -2  -8  -3  102.28    7.55
  -2  -8  -3   97.19    7.55
   2  -8   3   95.39    7.51
   2   8   3   99.73    7.56
  -2   8  -3   90.86    7.50
   2   8   3   91.13    7.53
  -2   8  -3   92.88    7.51
   3  -8   3   69.31    5.31
   3  -8   3   67.31    5.31
  -3  -8  -3   67.52    5.35
  -3  -8  -3   65.71    5.33
  -3   8  -3   68.98    5.29
   3   8   3   66.19    5.36
   3   8   3   63.50    5.34
  -3   8  -3   63.91    5.28
   4  -8   3    2.88    0.55
   4  -8   3    2.98    0.58
  -4  -8  -3    3.66    0.62
  -4  -8  -3    4.28    0.64
   4   8   3    3.29    0.68
  -4   8  -3    3.63    0.50
   4   8   3    3.62    0.72
  -4   8  -3    2.90    0.49
   5  -8   3   48.93    3.49
  -5  -8  -3   38.05    3.54
  -5  -8  -3   39.73    3.54
   5  -8   3   45.81    3.49
   5   8   3   37.52    3.55
  -5   8  -3   47.74    3.44
   5   8   3   39.73    3.56
  -5   8  -3   45.19    3.43
   6  -8   3   32.72    2.91
  -6  -8  -3   38.05    3.04
   6  -8   3   31.80    2.92
   6   8   3   37.37    3.03
   6   8   3   40.56    3.08
   7   8   3    3.17    0.80
   7   8   3    4.16    0.80
   8   8   3   25.61    2.30
   8   8   3   24.57    2.27
   9   8   3    1.13    0.74
   9   8   3    1.13    0.74
  10  -8   3    9.75    1.33
  10   8   3   13.36    1.47
  11  -8   3    0.21    0.69
  11   8   3    0.83    0.78
  12   8   3    5.02    0.99
  13  -8   3    0.42    0.83
  13   8   3   -0.46    0.81
  14   8   3    0.09    0.78
  14   9  -3   -0.55    0.85
  13   9  -3    1.21    0.83
  12  -9  -3    4.44    1.09
  12   9  -3    5.13    1.02
  12   9  -3    4.21    0.92
  11   9  -3   14.60    1.61
  11   9  -3   12.90    1.51
  10  -9  -3    0.58    0.75
  10   9  -3    0.19    0.80
  10   9  -3    0.76    0.67
   9  -9  -3   -0.43    0.42
   9  -9  -3   -0.16    0.69
  -9  -9   3    0.06    0.55
  -9  -9   3    0.50    0.57
   9   9  -3    0.21    0.61
   9   9  -3    0.28    0.74
   9   9  -3    0.35    0.74
  -8  -9   3    7.00    1.09
  -8  -9   3    6.29    0.91
   8   9  -3    7.88    1.06
   8   9  -3    7.42    1.18
   8   9  -3    7.02    1.04
   7  -9  -3   12.61    1.22
  -7  -9   3   10.97    1.32
  -7  -9   3   12.54    1.30
   7  -9  -3   12.57    1.34
   7   9  -3   11.68    1.45
   7   9  -3   11.04    1.22
   7   9  -3    9.53    1.34
  -6  -9   3    2.41    0.66
   6  -9  -3    3.01    0.52
  -6  -9   3    3.09    0.61
   6  -9  -3    2.15    0.64
   6   9  -3    3.57    0.74
  -6   9   3    1.95    0.41
   6   9  -3    2.79    0.72
   6   9  -3    3.04    0.60
  -6   9   3    2.76    0.51
  -5  -9   3   80.36    6.00
  -5  -9   3   80.01    6.22
   5  -9  -3   78.24    6.15
   5  -9  -3   71.52    6.02
  -5  -9   3   79.51    6.22
   5   9  -3   74.62    6.21
   5   9  -3   82.18    6.23
  -5   9   3   70.98    6.13
   5   9  -3   78.58    5.98
  -5   9   3   79.02    6.15
  -4  -9   3    2.34    0.51
  -4  -9   3    1.67    0.59
  -4  -9   3    0.98    0.58
   4   9  -3    2.54    0.51
   4   9  -3    1.52    0.62
   4   9  -3    1.76    0.63
  -3  -9   3  150.67   11.17
   3  -9  -3  137.26   11.12
  -3  -9   3  146.86   10.78
   3  -9  -3  130.65   11.13
  -3  -9   3  140.98   11.17
  -3   9   3  136.35   11.13
  -3   9   3  137.34   11.13
   3   9  -3  142.60   11.17
   3   9  -3  152.79   11.18
  -2  -9   3    1.39    0.57
   2  -9  -3    2.92    0.54
  -2  -9   3    1.71    0.44
  -2  -9   3    1.24    0.57
   2  -9  -3    2.43    0.53
   2   9  -3    1.22    0.60
   2   9  -3    2.07    0.61
  -2   9   3    2.11    0.59
  -2   9   3    2.29    0.57
   1  -9  -3  239.20   19.54
  -1  -9   3  245.37   19.54
  -1  -9   3  248.39   18.87
  -1  -9   3  262.52   19.55
   1  -9  -3  253.38   19.53
  -1   9   3  229.76   19.52
   1   9  -3  258.09   19.55
   1   9  -3  265.33   19.55
  -1   9   3  245.35   19.54
   0  -9  -3    9.07    1.04
   0  -9  -3    9.32    1.07
   0   9   3    8.39    1.12
   0   9   3    7.99    1.12
   1  -9   3  168.13   13.61
  -1  -9  -3  181.15   13.62
  -1  -9  -3  173.89   13.63
   1  -9   3  174.21   13.61
   1   9   3  170.20   13.62
   1   9   3  178.26   13.64
  -1   9  -3  167.08   13.60
  -1   9  -3  174.97   13.61
  -2  -9  -3  146.30   10.69
   2  -9   3  128.24   10.66
   2  -9   3  131.03   10.66
  -2  -9  -3  137.11   10.69
   2   9   3  137.44   10.69
  -2   9  -3  126.31   10.64
   2   9   3  146.21   10.71
  -2   9  -3  132.35   10.65
  -3  -9  -3    1.58    0.51
  -3  -9  -3    1.46    0.57
   3  -9   3    1.57    0.55
   3  -9   3    1.49    0.51
  -3   9  -3    1.87    0.48
   3   9   3    0.44    0.62
  -3   9  -3    2.17    0.48
   3   9   3    0.50    0.58
   4  -9   3   99.45    9.43
  -4  -9  -3  135.17    9.51
  -4  -9  -3  135.58    9.50
   4  -9   3   99.59    9.42
  -4   9  -3  115.57    9.42
   4   9   3  125.96    9.49
   4   9   3  130.37    9.51
  -5  -9  -3    5.82    0.95
   5  -9   3    6.69    0.85
   5  -9   3    5.99    0.88
  -5   9  -3    6.59    0.77
   5   9   3    5.53    0.87
   5   9   3    5.36    0.88
   6  -9   3  109.95    9.53
  -6  -9  -3  126.29    9.62
   6  -9   3  113.72    9.53
   6   9   3  135.26    9.64
   6   9   3  122.55    9.61
   7  -9   3   23.64    2.07
   7  -9   3   24.73    2.06
   8   9   3   59.85    5.07
   8   9   3   64.26    5.09
   9   9   3    3.22    0.88
   9   9   3    3.54    0.89
  10   9   3    5.29    1.02
  11  -9   3    1.21    0.78
  11   9   3    3.52    0.91
  12  -9   3   -0.08    0.72
  12   9   3    0.76    0.80
  13  -9   3    0.07    0.81
  13   9   3   -0.24    0.84
  14   9   3    0.01    0.83
  14  10  -3    4.76    1.08
  13  10  -3   10.14    1.45
  12 -10  -3    5.47    1.18
  12  10  -3    6.78    1.11
  12  10  -3    5.66    1.00
  11 -10  -3    1.42    0.87
  11  10  -3    3.26    0.94
  11  10  -3    2.21    0.77
  10 -10  -3    1.49    0.80
  10  10  -3    2.62    0.73
  10  10  -3    2.32    0.86
   9 -10  -3    5.92    0.84
  -9 -10   3    3.60    0.78
   9 -10  -3    5.15    0.96
  -9 -10   3    3.23    0.74
   9  10  -3    4.62    0.82
   9  10  -3    4.32    0.93
   9  10  -3    4.33    0.94
   8 -10  -3   40.96    3.36
  -8 -10   3   36.00    3.27
   8 -10  -3   43.01    3.27
  -8 -10   3   38.98    3.38
   8  10  -3   40.25    3.43
   8  10  -3   40.11    3.41
   8  10  -3   39.11    3.24
   7 -10  -3   81.23    5.60
  -7 -10   3   70.07    5.52
  -7 -10   3   67.17    5.70
   7  10  -3   67.64    5.48
   7  10  -3   70.82    5.73
   7  10  -3   65.97    5.70
  -6 -10   3   95.34    7.21
   6 -10  -3   78.60    6.97
   6 -10  -3   91.81    7.13
  -6 -10   3   96.69    6.96
  -6  10   3   80.80    7.09
   6  10  -3   91.85    6.93
   6  10  -3   97.56    7.23
   6  10  -3   86.87    7.19
   5 -10  -3   39.62    2.93
  -5 -10   3   32.31    2.98
   5 -10  -3   36.53    2.89
  -5 -10   3   31.02    2.83
  -5  10   3   38.42    2.90
   5  10  -3   32.28    2.98
   5  10  -3   31.14    2.81
  -5  10   3   36.72    2.89
  -4 -10   3   68.59    5.40
  -4 -10   3   71.41    5.42
  -4 -10   3   73.79    5.20
   4 -10  -3   66.47    5.35
   4 -10  -3   60.14    5.34
  -4  10   3   64.54    5.35
  -4  10   3   57.46    5.32
   4  10  -3   66.22    5.39
   4  10  -3   73.67    5.42
  -3 -10   3   24.26    2.15
  -3 -10   3   24.50    2.02
  -3 -10   3   24.89    2.15
   3  10  -3   21.82    2.11
   3  10  -3   23.59    2.16
  -2 -10   3   20.55    1.86
  -2 -10   3   20.12    1.69
  -2 -10   3   19.42    1.83
   2  10  -3   18.28    1.81
   2  10  -3   19.60    1.86
  -1 -10   3    6.46    0.99
  -1 -10   3    6.15    0.86
  -1 -10   3    6.50    0.87
   1  10  -3    6.96    0.88
   1  10  -3    6.07    1.00
   0 -10  -3   10.70    1.17
   0 -10  -3    9.64    1.12
   0  10   3    9.12    1.20
   0  10   3    9.74    1.20
  -1 -10  -3    0.50    0.50
   1 -10   3   -0.11    0.51
  -1 -10  -3    0.86    0.50
   1 -10   3   -0.72    0.49
   1  10   3    0.12    0.58
  -1  10  -3   -0.31    0.49
   1  10   3    0.59    0.54
  -1  10  -3   -0.86    0.51
  -2 -10  -3    3.52    0.64
  -2 -10  -3    3.01    0.67
   2 -10   3    4.79    0.71
   2 -10   3    5.07    0.70
   2  10   3    2.84    0.73
  -2  10  -3    5.43    0.80
  -2  10  -3    5.35    0.70
   2  10   3    3.07    0.72
   3 -10   3   -0.11    0.51
   3 -10   3    0.18    0.48
  -3 -10  -3   -0.15    0.50
  -3 -10  -3   -0.41    0.46
  -3  10  -3   -0.11    0.44
   3  10   3   -0.04    0.57
   3  10   3   -0.58    0.57
  -3  10  -3    0.14    0.46
   4 -10   3    1.90    0.53
  -4 -10  -3    2.28    0.60
   4 -10   3    0.86    0.55
  -4 -10  -3    2.94    0.64
   4  10   3    1.83    0.67
  -4  10  -3    1.79    0.50
   4  10   3    1.95    0.68
  -4  10  -3    1.46    0.48
   5 -10   3   29.88    2.46
   5 -10   3   29.41    2.48
  -5 -10  -3   28.84    2.56
   5  10   3   27.72    2.55
   5  10   3   28.92    2.61
  -5  10  -3   30.53    2.43
   6 -10   3    6.04    0.75
  -6 -10  -3    4.06    0.77
   6 -10   3    5.91    0.86
   6  10   3    4.16    0.87
   6  10   3    4.38    0.89
  -7 -10  -3   27.22    2.50
   7  10   3   27.76    2.52
   7  10   3   27.91    2.50
   8 -10   3   17.56    1.71
   8 -10   3   17.01    1.72
   8  10   3   23.78    2.03
   8  10   3   22.71    1.97
   9  10   3   46.54    3.92
  10  10   3    0.82    0.83
  11 -10   3    2.70    0.85
  11  10   3    2.09    0.92
  12 -10   3    1.95    0.85
  12  10   3    2.34    0.92
  13 -10   3    3.01    0.96
  13  10   3    2.00    0.98
  14  10   3    4.54    1.06
  14  11  -3    6.39    1.21
  13  11  -3    2.70    0.99
  12 -11  -3    3.34    1.04
  12  11  -3    4.10    0.91
  12  11  -3    4.54    1.05
  11  11  -3    5.35    0.96
  11  11  -3    6.78    1.12
  10 -11  -3   17.03    1.91
  10  11  -3   19.19    1.77
  10  11  -3   17.92    1.91
  -9 -11   3   32.89    3.00
   9 -11  -3   37.12    3.10
   9 -11  -3   37.71    2.94
   9  11  -3   36.29    3.13
   9  11  -3   33.47    2.95
  -8 -11   3    9.61    1.26
   8 -11  -3    7.24    1.19
  -8 -11   3    9.99    1.21
   8 -11  -3    8.51    1.12
   8  11  -3    9.93    1.41
   8  11  -3    9.67    1.12
   8  11  -3    9.48    1.32
  -7 -11   3    7.35    1.16
  -7 -11   3    7.03    1.07
   7  11  -3    7.39    1.04
   7  11  -3    7.50    1.23
   7  11  -3    6.56    1.07
  -6 -11   3   12.18    1.44
  -6 -11   3   13.33    1.37
   6  11  -3   13.43    1.33
   6  11  -3   13.47    1.52
   6  11  -3   11.80    1.49
   5 -11  -3    9.46    1.04
  -5 -11   3    7.83    1.04
   5 -11  -3    9.64    1.04
   5 -11  -3   10.17    1.06
  -5 -11   3    5.91    0.99
  -5  11   3    9.21    1.05
  -5  11   3    8.90    1.05
   5  11  -3    6.45    1.03
   5  11  -3    6.63    0.97
   5  11  -3    5.50    1.00
   4 -11  -3   20.32    1.83
   4 -11  -3   21.03    1.85
  -4  11   3   19.10    1.82
  -4  11   3   19.72    1.84
   3 -11  -3    5.49    0.74
   3 -11  -3    5.94    0.89
   3  11  -3    8.61    1.04
  -3  11   3    5.89    0.94
  -3  11   3    4.43    0.78
  -2 -11   3    3.19    0.73
  -2 -11   3    3.61    0.69
  -2 -11   3    4.14    0.58
   2  11  -3    3.32    0.73
   2  11  -3    3.11    0.73
   1 -11  -3    7.79    0.90
  -1 -11   3    5.15    0.82
  -1 -11   3    4.06    0.80
  -1 -11   3    6.30    0.82
   1  11  -3    5.01    0.84
   1  11  -3    5.43    0.84
  -1  11   3    7.91    1.02
   0 -11   3   26.35    2.35
   0 -11   3   27.61    2.36
   0  11  -3   28.25    2.38
   0  11  -3   25.38    2.32
  -1 -11  -3   50.96    4.34
  -1 -11  -3   50.68    4.33
   1 -11   3   55.85    4.33
   1 -11   3   56.13    4.33
   1  11   3   48.34    4.34
   1  11   3   49.27    4.33
  -1  11  -3   54.61    4.32
  -1  11  -3   59.36    4.35
   2 -11   3   56.35    5.12
   2 -11   3   59.53    5.12
   2  11   3   72.09    5.17
   2  11   3   78.74    5.22
  -2  11  -3   60.53    5.13
  -2  11  -3   56.92    5.10
  -3 -11  -3   68.47    6.46
   3 -11   3   87.11    6.45
   3 -11   3   90.13    6.45
  -3 -11  -3   72.52    6.45
  -3  11  -3   87.02    6.43
  -3  11  -3   88.77    6.44
   3  11   3   71.03    6.49
  -4 -11  -3    5.20    0.85
   4 -11   3    7.14    0.94
   4 -11   3    7.08    0.94
   4  11   3    5.08    0.90
  -4  11  -3    7.13    0.90
  -4  11  -3    7.43    0.85
   4  11   3    4.46    0.88
  -5 -11  -3   26.91    2.33
   5  11   3   26.51    2.36
   5  11   3   23.47    2.30
  -6 -11  -3   17.90    1.73
   6 -11   3   15.76    1.58
   6 -11   3   16.52    1.61
  -6  11  -3   15.02    1.45
   6  11   3   18.49    1.79
   6  11   3   17.80    1.75
  -7 -11  -3   35.93    3.18
   7  11   3   35.78    3.18
   7  11   3   38.77    3.22
  -8 -11  -3   15.03    1.85
   8 -11   3   23.48    1.69
   8  11   3   17.65    1.94
   8  11   3   16.12    1.87
   9  11   3    9.65    1.42
  10  11   3   26.28    2.48
  11 -11   3   -0.60    0.69
  11  11   3    0.46    0.84
  12 -11   3    9.42    1.38
  12  11   3    9.20    1.49
  13 -11   3    5.33    1.13
  13  11   3    5.59    1.15
  14  11   3    5.90    1.19
  13  12  -3    0.83    0.94
  12  12  -3    6.99    1.22
  11  12  -3    5.92    1.14
  11  12  -3    5.19    0.96
  10 -12  -3   15.35    1.62
  10  12  -3   12.11    1.45
  10  12  -3   12.00    1.64
   9  12  -3   10.04    1.21
   9  12  -3    9.08    1.37
  -8 -12   3   30.57    2.75
  -8 -12   3   29.52    2.64
   8  12  -3   31.62    2.61
   8  12  -3   33.45    2.84
   8  12  -3   29.31    2.79
  -7 -12   3   50.01    4.14
   7  12  -3   46.48    4.15
   7  12  -3   49.71    3.95
   7  12  -3   51.28    4.19
   6 -12  -3   21.88    2.03
   6 -12  -3   23.20    2.00
   6 -12  -3   20.91    2.01
   5 -12  -3    9.86    1.18
   5 -12  -3    9.83    1.17
  -5  12   3   10.05    1.16
   4 -12  -3   25.29    2.21
   4 -12  -3   25.75    2.19
  -4  12   3   23.52    2.20
  -4  12   3   24.48    2.20
   3 -12  -3   10.91    1.14
  -3 -12   3    7.12    1.22
   3 -12  -3   10.49    1.09
  -3 -12   3    6.10    1.05
  -3 -12   3    8.58    1.04
   3  12  -3    6.82    1.14
  -3  12   3   11.12    1.22
  -3  12   3   10.60    1.15
   3  12  -3    7.01    1.23
  -2 -12   3   22.15    1.74
  -2 -12   3   21.92    1.90
  -2 -12   3   20.66    1.88
   2 -12  -3   14.40    1.80
  -2  12   3   14.22    1.83
   2  12  -3   23.26    1.93
   2  12  -3   21.88    1.86
   1 -12  -3   58.74    4.94
  -1 -12   3   66.97    4.77
  -1 -12   3   65.73    4.96
   1 -12  -3   54.52    4.93
  -1 -12   3   67.02    4.98
  -1  12   3   55.05    4.94
   1  12  -3   64.59    4.96
   1  12  -3   63.45    4.95
  -1  12   3   52.85    4.93
   0 -12  -3    8.25    1.11
   0 -12  -3    8.22    1.12
   0 -12   3    9.29    1.17
   0 -12   3    8.79    1.12
   0  12   3    8.74    1.18
   0  12  -3    9.79    1.20
   0  12  -3    9.79    1.16
   0  12   3    9.19    1.24
  -1 -12  -3  183.07   14.14
  -1 -12  -3  177.61   14.15
   1 -12   3  188.10   14.14
   1 -12   3  171.36   14.13
   1  12   3  174.85   14.14
  -1  12  -3  184.26   14.13
   1  12   3  179.97   14.16
  -1  12  -3  178.66   14.13
   2 -12   3   15.32    1.57
   2 -12   3   17.00    1.62
  -2  12  -3   16.61    1.61
  -2  12  -3   16.24    1.58
   3 -12   3   23.74    2.25
   3 -12   3   24.94    2.25
  -3 -12  -3   30.26    2.34
   3  12   3   27.19    2.33
  -3  12  -3   22.90    2.25
  -3  12  -3   22.74    2.22
   3  12   3   29.79    2.38
  -4 -12  -3    1.02    0.59
   4 -12   3    0.84    0.54
   4 -12   3    0.67    0.56
  -4 -12  -3    0.33    0.26
   4  12   3    1.17    0.70
  -4  12  -3    0.60    0.50
   4  12   3    0.54    0.70
  -4  12  -3    0.14    0.50
   5 -12   3   10.29    1.22
   5 -12   3    9.95    1.19
  -5  12  -3   10.87    1.14
  -5  12  -3   10.06    1.12
  -6 -12  -3   13.77    1.52
   6  12   3   13.26    1.59
   6  12   3   12.09    1.51
   7 -12   3    0.93    0.60
   7 -12   3    1.32    0.57
  -7 -12  -3    2.26    0.70
   7  12   3    2.65    0.86
   7  12   3    2.41    0.84
  -8 -12  -3    6.59    0.90
   8 -12   3    3.71    0.70
   8 -12   3    4.25    0.72
   8  12   3    5.75    1.02
   8  12   3    5.46    1.00
   9  12   3    2.66    0.97
  10  12   3   18.19    1.96
  11  12   3    1.98    0.99
  12 -12   3    3.37    0.97
  12  12   3    3.84    1.08
  13  12   3    1.35    0.94
  13  13  -3    1.77    1.06
  12  13  -3    1.10    0.96
  11 -13  -3    1.89    0.93
  11  13  -3    3.00    1.03
  11  13  -3    2.04    0.80
  10 -13  -3    3.11    0.93
  10  13  -3    3.74    0.84
  10  13  -3    3.42    1.02
   9 -13  -3    1.51    0.78
   9  13  -3    2.84    0.76
   9  13  -3    3.28    0.94
  -8 -13   3    0.79    0.70
   8 -13  -3    1.12    0.55
   8 -13  -3    0.11    0.68
  -8 -13   3    0.44    0.53
   8  13  -3    0.33    0.64
   8  13  -3    1.06    0.84
   8  13  -3    0.81    0.82
  -7 -13   3    1.78    0.76
   7 -13  -3    4.29    0.85
   7 -13  -3    3.67    0.63
  -7 -13   3    1.75    0.60
   7  13  -3    0.91    0.84
  -7  13   3    2.39    0.51
   7  13  -3    0.58    0.82
   6 -13  -3    0.41    0.59
   6 -13  -3    0.45    0.59
  -6 -13   3    1.67    0.75
  -6 -13   3    1.49    0.57
   6 -13  -3    1.27    0.56
   6  13  -3    1.45    0.81
  -6  13   3    0.74    0.52
   6  13  -3    0.63    0.80
   5 -13  -3   34.00    2.75
  -5 -13   3   30.10    2.80
  -5 -13   3   36.70    2.69
   5 -13  -3   32.32    2.73
   5  13  -3   31.12    2.84
   5  13  -3   30.27    2.83
  -5  13   3   28.46    2.69
   4 -13  -3   10.89    1.19
  -4 -13   3    8.43    1.27
  -4 -13   3    8.96    1.12
   4 -13  -3   10.84    1.22
   4  13  -3    8.68    1.32
   4  13  -3    7.92    1.29
  -4  13   3    9.73    1.18
  -3 -13   3  130.98    9.30
   3 -13  -3   98.71    9.59
  -3 -13   3  125.59    9.67
   3  13  -3  128.95    9.66
   3  13  -3  123.74    9.66
  -2 -13   3    2.52    0.54
   2 -13  -3    1.90    0.62
   2 -13  -3    2.61    0.60
  -2 -13   3    1.84    0.66
  -2 -13   3    1.18    0.68
  -2  13   3    2.05    0.68
   2  13  -3    1.29    0.73
   2  13  -3    1.97    0.73
  -1 -13   3   16.81    1.86
  -1 -13   3   18.37    1.77
  -1 -13   3   17.50    1.92
   1 -13  -3   24.11    1.90
   1 -13  -3   23.52    1.87
   1  13  -3   16.73    1.90
  -1  13   3   24.55    1.96
  -1  13   3   22.21    1.96
   1  13  -3   17.67    1.92
   0 -13  -3    0.89    0.58
   0 -13  -3    1.28    0.55
   0 -13   3    1.47    0.65
   0 -13   3    1.68    0.63
   0  13   3    0.77    0.63
   0  13  -3    0.76    0.65
   0  13  -3    1.34    0.67
   0  13   3    0.84    0.66
   1 -13   3   11.08    1.38
  -1 -13  -3   14.68    1.46
   1 -13   3   12.21    1.40
  -1 -13  -3   13.37    1.41
   1  13   3   15.42    1.54
   1  13   3   13.34    1.43
  -1  13  -3   10.40    1.39
  -1  13  -3   11.74    1.41
   2 -13   3   31.79    2.88
   2 -13   3   31.13    2.89
  -2  13  -3   32.44    2.88
  -2  13  -3   32.15    2.91
   2  13   3   42.57    2.96
   3 -13   3   26.95    2.61
   3 -13   3   28.55    2.61
  -3 -13  -3   35.41    2.70
  -3  13  -3   26.34    2.57
   3  13   3   33.78    2.72
   3  13   3   31.54    2.68
   4 -13   3   40.31    3.46
  -4 -13  -3   48.52    3.55
  -4 -13  -3   39.99    3.21
   4 -13   3   37.16    3.45
   4  13   3   46.80    3.59
   4  13   3   42.92    3.53
  -4  13  -3   37.44    3.41
  -5 -13  -3    8.13    1.15
   5 -13   3    6.35    0.87
   5 -13   3    5.28    0.89
   5  13   3    6.88    1.03
  -5  13  -3    5.83    0.80
   5  13   3    5.96    1.02
   6 -13   3    9.21    1.15
   6 -13   3    8.88    1.12
  -6  13  -3    7.23    0.91
  -7 -13  -3    5.70    0.93
   7  13   3    5.29    1.03
   7  13   3    6.01    1.04
   8 -13   3   13.89    1.38
   8 -13   3   14.51    1.37
  -8 -13  -3   12.69    1.60
   8  13   3   11.50    1.59
   8  13   3   13.27    1.72
   9 -13   3    0.00    0.53
   9  13   3    0.52    0.84
  10  13   3    0.06    0.82
  11  13   3    2.67    1.05
  12 -13   3    0.51    0.85
  12  13   3    0.98    0.93
  13  13   3   -0.17    0.90
  12  14  -3    3.61    1.10
  11 -14  -3    2.59    0.97
  11  14  -3    4.21    1.10
  10 -14  -3   28.45    2.70
  10  14  -3   30.49    2.80
   9 -14  -3    1.32    0.75
   9  14  -3    1.67    0.93
   8 -14  -3    7.43    1.28
  -8 -14   3   10.87    1.35
  -8 -14   3   10.33    1.24
   8  14  -3    9.74    1.40
   8  14  -3   10.36    1.47
  -7 -14   3    2.30    0.80
   7 -14  -3    4.24    0.85
  -7 -14   3    2.28    0.65
   7 -14  -3    3.91    0.69
   7  14  -3    2.64    0.90
   7  14  -3    1.76    0.91
   6 -14  -3   72.17    5.14
   6 -14  -3   70.36    5.06
  -6 -14   3   59.60    5.20
  -6 -14   3   55.96    4.96
  -6  14   3   67.85    5.09
   6  14  -3   56.37    5.20
   6  14  -3   59.08    5.22
   5 -14  -3   65.51    4.53
  -5 -14   3   54.73    4.39
  -5 -14   3   49.27    4.57
  -5  14   3   60.95    4.51
   5  14  -3   48.72    4.59
   5  14  -3   51.42    4.59
   4 -14  -3   49.86    3.64
  -4 -14   3   42.42    3.53
  -4 -14   3   37.58    3.68
   4 -14  -3   50.67    3.67
  -4  14   3   46.67    3.65
   4  14  -3   36.63    3.68
   4  14  -3   40.36    3.71
  -3 -14   3   10.72    1.15
  -3 -14   3    9.39    1.32
   3  14  -3    9.52    1.38
   3  14  -3    9.80    1.34
   2 -14  -3   40.95    3.58
   2 -14  -3   38.28    3.58
  -2 -14   3   47.08    3.46
  -2 -14   3   43.04    3.63
   2  14  -3   43.98    3.64
  -2  14   3   40.21    3.60
   2  14  -3   47.89    3.68
  -1 -14   3    4.72    0.71
  -1 -14   3    4.76    0.87
  -1 -14   3    4.71    0.84
   1  14  -3    4.56    0.86
   0 -14  -3    5.62    0.78
   0 -14  -3    4.25    0.78
   0  14   3    3.48    0.81
  -1 -14  -3    1.41    0.64
  -1 -14  -3    1.85    0.60
   1  14   3    1.13    0.74
   2 -14   3   14.41    1.43
  -2 -14  -3    9.97    1.41
   2 -14   3   13.49    1.42
   2  14   3   10.39    1.51
   2  14   3   11.48    1.49
  -2  14  -3   13.99    1.38
  -3 -14  -3    4.80    0.89
   3 -14   3    6.78    0.88
   3 -14   3    6.44    1.02
   3  14   3    4.47    0.95
  -3  14  -3    6.03    0.98
   3  14   3    4.44    0.94
  -4 -14  -3    8.92    1.20
  -4 -14  -3    6.89    0.81
   4  14   3    9.12    1.29
   4  14   3    8.01    1.32
  -5 -14  -3   33.73    3.02
   5 -14   3   38.20    2.96
   5 -14   3   36.57    2.96
  -5  14  -3   33.59    2.88
   5  14   3   31.82    3.05
   5  14   3   31.36    3.05
   6 -14   3   -0.11    0.59
   6 -14   3    0.58    0.63
  -6 -14  -3    1.57    0.75
   6  14   3    1.04    0.84
  -6  14  -3    0.17    0.21
   6  14   3    0.51    0.81
   7 -14   3   26.77    2.41
   7 -14   3   25.10    2.41
  -7 -14  -3   29.93    2.57
   7  14   3   29.56    2.65
   7  14   3   27.29    2.54
  -8 -14  -3    8.90    1.37
   8  14   3    8.25    1.38
   9 -14   3   35.17    2.72
   9  14   3   28.00    2.93
  10  14   3    0.70    0.86
  11  14   3    5.87    1.22
  12  14   3    1.99    1.01
  12  15  -3    0.33    0.94
  11  15  -3   11.17    1.63
  10 -15  -3    0.32    0.77
  10  15  -3    0.49    0.92
   9  15  -3    4.29    1.09
  -8 -15   3   13.31    1.52
   8 -15  -3   10.81    1.47
   8  15  -3   12.28    1.58
   7 -15  -3   16.15    1.56
  -7 -15   3   12.49    1.45
  -7 -15   3   13.09    1.65
   7 -15  -3   13.09    1.54
   7 -15  -3   16.69    1.58
   7  15  -3   12.45    1.67
  -6 -15   3    0.49    0.55
  -6 -15   3    0.46    0.75
   6 -15  -3    0.17    0.59
   6 -15  -3    0.00    0.63
   6  15  -3    0.10    0.82
  -6  15   3    0.61    0.56
  -5 -15   3   23.83    2.30
  -5 -15   3   24.33    2.15
   5  15  -3   24.02    2.35
  -4 -15   3   51.85    4.83
  -4  15   3   71.59    5.04
  -3 -15   3   29.43    2.69
  -3 -15   3   27.53    2.86
   3 -15  -3   36.26    2.85
   3 -15  -3   38.17    2.87
  -3  15   3   36.10    2.86
   3  15  -3   27.55    2.88
  -2 -15   3   49.79    3.98
   2 -15  -3   53.79    4.14
   2 -15  -3   50.48    4.13
  -2 -15   3   45.23    4.16
   2  15  -3   45.40    4.15
  -2  15   3   54.01    4.17
  -1 -15   3    4.69    0.91
  -1 -15   3    5.37    0.90
  -1 -15   3    4.83    0.74
   1  15  -3    5.02    0.95
   0 -15  -3    4.86    0.79
   0 -15   3    4.39    0.85
   0 -15   3    4.38    0.82
   0 -15  -3    3.91    0.80
   0  15   3    3.14    0.87
   0  15  -3    4.72    0.87
   1 -15   3    4.07    0.79
   1 -15   3    3.61    0.81
  -1  15  -3    3.74    0.82
  -2 -15  -3   29.11    2.30
   2 -15   3   21.75    2.21
   2 -15   3   21.07    2.22
  -2  15  -3   22.14    2.22
   2  15   3   27.52    2.32
   3 -15   3   41.62    3.29
  -3 -15  -3   31.41    3.28
   3 -15   3   41.16    3.30
  -3  15  -3   39.43    3.26
   4 -15   3    5.95    0.96
   4 -15   3    6.52    0.93
  -4  15  -3    5.76    0.86
  -5 -15  -3    4.35    0.64
  -5 -15  -3    4.30    0.91
  -5  15  -3    6.51    0.93
   5  15   3    4.15    0.99
   6 -15   3    9.00    1.23
   6 -15   3    9.53    1.24
   7 -15   3    0.91    0.62
   7 -15   3    0.63    0.62
  -7 -15  -3    0.47    0.73
   7  15   3    0.21    0.78
  -8 -15  -3    0.30    0.69
   8 -15   3    0.09    0.62
   8  15   3    0.04    0.82
   9 -15   3   14.43    1.42
   9  15   3   11.41    1.72
  10  15   3    0.18    0.86
  11  15   3    7.33    1.33
  12  15   3   -0.58    0.96
  12  16  -3    2.61    1.14
  11  16  -3   10.49    1.67
  10 -16  -3    2.56    0.93
  10  16  -3    4.28    1.14
   9  16  -3    3.85    1.09
   8 -16  -3   12.68    1.53
  -8 -16   3   12.20    1.57
   8  16  -3   12.09    1.67
   7 -16  -3    2.90    0.82
   7 -16  -3    3.42    0.80
  -6 -16   3   11.65    1.25
   6 -16  -3    9.24    1.28
   6 -16  -3    9.24    1.33
  -6 -16   3   11.97    1.43
  -6  16   3    7.15    1.19
   6  16  -3   12.49    1.49
   5 -16  -3    3.11    0.81
   5 -16  -3    3.50    0.75
  -5  16   3    3.01    0.77
   4 -16  -3   35.48    3.66
  -4 -16   3   51.91    3.59
   4 -16  -3   38.79    3.69
  -4 -16   3   48.71    3.77
   4  16  -3   52.01    3.81
  -4  16   3   37.01    3.68
  -3 -16   3    7.50    1.04
  -3 -16   3    5.64    1.01
   3  16  -3    6.15    1.10
  -2 -16   3   43.48    3.18
   2 -16  -3   31.11    3.07
   2 -16  -3   29.60    3.06
  -2  16   3   32.03    3.13
   2  16  -3   43.90    3.19
  -1 -16   3   25.17    2.57
   1 -16  -3   31.78    2.55
   1 -16  -3   30.07    2.57
  -1 -16   3   26.40    2.43
   1  16  -3   26.72    2.59
  -1  16   3   30.20    2.61
   0 -16  -3   31.18    3.21
   0 -16   3   41.95    3.29
   0 -16   3   41.53    3.29
   0 -16  -3   36.70    3.24
   0  16   3   34.81    3.27
   0  16  -3   40.93    3.28
   1 -16   3   45.67    4.27
   1 -16   3   50.05    4.28
  -1  16  -3   47.85    4.26
   1  16   3   62.42    4.34
   2 -16   3   70.83    5.77
   2 -16   3   78.16    5.79
  -2 -16  -3   59.77    5.77
  -2  16  -3   74.76    5.76
   3 -16   3  121.27   10.08
  -3 -16  -3  131.60   10.14
   3 -16   3  133.60   10.09
   3  16   3  123.85   10.11
  -3  16  -3  123.83   10.05
  -4 -16  -3   56.84    4.93
   4 -16   3   73.32    5.26
   4 -16   3   68.56    5.26
  -4 -16  -3   61.80    5.29
   4  16   3   57.51    5.29
  -4  16  -3   67.40    5.21
   5 -16   3    0.12    0.66
  -5 -16  -3    0.17    0.72
   5 -16   3    0.52    0.68
  -5 -16  -3    0.33    0.35
  -5  16  -3    0.29    0.57
   5  16   3   -0.16    0.77
   6 -16   3   -0.10    0.64
  -6 -16  -3    0.25    0.74
   6 -16   3   -0.19    0.64
   6  16   3    0.10    0.77
  -7 -16  -3   12.03    1.48
   7 -16   3    9.76    1.31
   7  16   3   11.12    1.52
   8  16   3   11.65    1.63
   9 -16   3    3.09    0.73
   9  16   3    1.79    1.05
  10 -16   3   12.47    1.39
  10  16   3   16.42    1.84
  11  16   3    0.54    0.96
  11  17  -3    2.74    1.12
  10  17  -3    0.78    0.98
   9  17  -3    4.17    1.16
   8 -17  -3    0.57    0.76
  -8 -17   3   -0.13    0.76
   8  17  -3   -0.34    0.91
  -7 -17   3    5.81    1.06
   7 -17  -3    5.63    1.02
   7 -17  -3    6.22    0.98
   7  17  -3    6.64    1.22
  -6 -17   3    0.19    0.76
   6 -17  -3    1.38    0.70
   6 -17  -3    0.64    0.69
   6  17  -3   -0.23    0.86
  -5 -17   3   10.07    1.26
  -5 -17   3   10.49    1.46
   5  17  -3   11.35    1.51
  -4 -17   3    5.88    1.02
  -4 -17   3    4.48    0.79
   4  17  -3    5.29    1.07
  -3 -17   3   -0.04    0.54
   3 -17  -3    1.06    0.72
  -3 -17   3    0.54    0.74
   3 -17  -3    0.85    0.66
   3  17  -3    0.02    0.86
  -3  17   3    1.06    0.80
   2 -17  -3    2.16    0.73
  -2 -17   3    1.88    0.80
  -2 -17   3    2.03    0.66
   2 -17  -3    2.56    0.78
   2  17  -3    2.39    0.92
  -2  17   3    1.82    0.91
  -1 -17   3    8.52    1.21
   1 -17  -3   10.66    1.39
  -1 -17   3    8.98    1.32
   1 -17  -3    9.26    1.28
  -1  17   3   10.61    1.42
   1  17  -3    8.62    1.38
   0 -17  -3    1.39    0.72
   0 -17   3    0.26    0.73
   0  17  -3    1.07    0.84
   0  17   3    1.44    0.87
   1 -17   3   16.17    1.80
   1 -17   3   17.17    1.84
  -1 -17  -3   16.88    1.78
   1  17   3   18.91    1.92
  -1  17  -3   17.50    1.81
   2 -17   3    1.02    0.73
  -2 -17  -3    2.60    0.80
   2 -17   3    1.06    0.74
   2  17   3    3.26    0.94
  -2  17  -3    1.65    0.80
   3 -17   3   80.96    6.65
  -3 -17  -3   91.29    6.74
   3 -17   3   77.87    6.66
   3  17   3   83.11    6.71
  -3  17  -3   78.64    6.62
  -4 -17  -3    6.51    1.13
  -4 -17  -3    6.03    0.86
   4 -17   3    9.76    1.22
   4 -17   3   10.28    1.32
   4  17   3    6.39    1.19
  -4  17  -3    9.86    1.21
   5 -17   3   14.52    1.63
  -5 -17  -3   16.48    1.70
   5 -17   3   13.85    1.58
  -5 -17  -3   14.70    1.30
   5  17   3   16.01    1.78
  -5  17  -3   12.93    1.51
   6 -17   3    4.58    0.87
   6 -17   3    3.73    0.84
   6  17   3    6.08    1.15
   7 -17   3    2.92    0.80
  -7 -17  -3    4.87    1.00
   7  17   3    3.75    1.08
   8 -17   3   -0.19    0.66
   8  17   3   -0.11    0.84
   9 -17   3    0.15    0.66
   9  17   3   -0.20    0.89
  10 -17   3    0.14    0.60
  10  17   3   -0.76    0.93
  11  17   3   -0.10    0.97
  11  18  -3    7.72    1.40
  10  18  -3   10.82    1.69
   9 -18  -3    2.15    0.88
   9  18  -3    5.37    1.19
   8 -18  -3    8.72    1.37
   8  18  -3    9.63    1.44
   7 -18  -3    0.58    0.70
  -7 -18   3    1.96    0.86
   7 -18  -3    0.02    0.69
   7  18  -3    0.73    0.98
  -6 -18   3   29.40    2.79
   6 -18  -3   30.84    2.71
   6  18  -3   29.43    2.83
   5 -18  -3    3.53    0.79
  -5  18   3    2.31    0.81
   4 -18  -3  111.33    9.43
  -4 -18   3  123.82    9.51
   4 -18  -3  116.86    9.43
  -4  18   3  114.26    9.42
   4  18  -3  124.17    9.50
  -3 -18   3    6.59    1.11
   3 -18  -3    7.87    1.27
   3 -18  -3    7.26    1.15
   3  18  -3    7.56    1.23
  -3  18   3    6.93    1.10
  -2 -18   3   52.57    4.80
   2 -18  -3   63.28    4.83
   2 -18  -3   58.24    4.80
   2  18  -3   55.08    4.83
  -2  18   3   59.72    4.82
  -1 -18   3    1.56    0.78
   1 -18  -3    3.84    0.85
   1  18  -3    1.07    0.92
  -1  18   3    3.75    0.96
   0 -18   3   42.73    3.61
   0  18  -3   40.77    3.60
   1 -18   3    8.82    1.39
  -1 -18  -3   13.30    1.43
   1  18   3   12.46    1.59
  -1  18  -3    9.29    1.44
  -2 -18  -3    4.34    0.93
   2 -18   3    5.20    0.95
   2 -18   3    4.28    0.91
  -2  18  -3    5.31    0.97
   2  18   3    2.70    1.04
   3 -18   3   37.25    3.25
   3 -18   3   35.94    3.24
  -3 -18  -3   40.63    3.32
   3  18   3   36.21    3.33
  -3  18  -3   36.65    3.20
   4 -18   3    0.71    0.71
  -4 -18  -3    1.12    0.42
  -4 -18  -3    1.08    0.79
   4 -18   3    1.05    0.75
  -4  18  -3    0.99    0.71
   4  18   3    0.60    0.82
  -5 -18  -3   35.65    3.03
   5 -18   3   29.89    2.88
   5 -18   3   35.33    2.96
  -5  18  -3   31.78    2.85
   5  18   3   33.12    3.03
  -6 -18  -3    8.35    1.24
   6  18   3    7.73    1.31
  -7 -18  -3   43.07    3.73
   7 -18   3   44.36    3.58
   7  18   3   38.13    3.70
   8 -18   3    2.53    0.77
   8  18   3    3.98    1.15
   9 -18   3   14.18    1.52
   9  18   3   11.86    1.82
  10 -18   3    2.67    0.72
  10  18   3    2.23    1.03
  10  19  -3    4.19    1.21
   9  19  -3    9.67    1.50
   8 -19  -3    0.71    0.81
   8 -19  -3    0.95    0.84
   8  19  -3    0.74    1.04
   7 -19  -3    1.00    0.74
  -7 -19   3   -0.02    0.80
   7 -19  -3    0.27    0.70
   7  19  -3   -0.22    0.99
   6 -19  -3    0.74    0.76
  -6 -19   3    0.52    0.84
   6  19  -3   -0.61    0.95
  -5 -19   3    1.98    0.87
   5 -19  -3    2.34    0.83
  -5  19   3    1.34    0.79
   5  19  -3    1.40    0.98
   4 -19  -3   10.48    1.36
   4 -19  -3   10.25    1.48
  -4  19   3    9.97    1.48
   3 -19  -3    2.45    0.80
   3 -19  -3    2.51    0.78
  -3 -19   3    1.16    0.84
  -3  19   3    2.14    0.88
   3  19  -3    0.76    0.91
  -2 -19   3    0.38    0.76
   2 -19  -3    1.42    0.75
  -2  19   3    1.03    0.88
   2  19  -3   -0.27    0.87
  -1 -19   3    7.68    1.28
   1 -19  -3    8.42    1.29
   1  19  -3    9.12    1.41
  -1  19   3    8.53    1.28
   0 -19   3    1.07    0.74
   0 -19  -3    0.96    0.74
   0  19   3   -0.12    0.89
   0  19  -3    1.60    0.89
   1 -19   3    5.09    0.96
  -1  19  -3    4.85    1.01
   2 -19   3    6.22    1.03
  -2 -19  -3    5.16    1.07
   2 -19   3    7.67    1.09
   2  19   3    4.98    1.18
  -2  19  -3    7.38    1.08
  -3 -19  -3    1.82    0.81
   3 -19   3    0.45    0.70
   3 -19   3    1.12    0.75
  -3  19  -3    1.07    0.79
   3  19   3    1.09    0.88
   4 -19   3    7.08    1.18
  -4 -19  -3    6.05    0.89
   4 -19   3    8.78    1.16
  -4 -19  -3    7.98    1.31
  -4  19  -3    9.59    1.24
   4  19   3    6.93    1.29
  -5 -19  -3    3.32    0.94
   5 -19   3    1.58    0.80
   5  19   3    2.09    1.06
   6 -19   3    1.28    0.76
  -6 -19  -3    0.70    0.86
   6  19   3   -0.12    0.87
   7 -19   3    1.48    0.80
  -7 -19  -3    0.67    0.85
   7  19   3    0.13    0.91
   8 -19   3    1.20    0.76
   8  19   3    0.27    0.93
   9 -19   3    7.20    1.13
   9  19   3    4.19    1.35
  10 -19   3    0.37    0.67
  10  19   3    0.01    0.95
  10  20  -3   13.57    1.89
   9  20  -3    2.58    1.15
   8 -20  -3   15.31    1.73
   8 -20  -3   17.26    1.80
   8  20  -3   10.31    1.83
   7 -20  -3    0.44    0.73
  -7 -20   3    0.72    0.87
   7  20  -3    0.69    1.04
  -6 -20   3    2.82    0.92
   6  20  -3    2.89    1.11
   5 -20  -3    4.02    0.97
  -5 -20   3    4.63    1.06
   5  20  -3    5.48    1.18
   4 -20  -3   17.29    1.97
   4 -20  -3   14.89    1.86
  -4 -20   3   22.14    2.00
  -4  20   3   15.32    1.97
   4  20  -3   21.00    2.07
  -3 -20   3   11.61    1.58
   3  20  -3   12.51    1.66
  -2 -20   3    5.10    1.00
   2 -20  -3    2.81    0.85
   2  20  -3    5.73    1.11
  -2  20   3    2.10    1.00
   1 -20  -3   39.46    3.46
  -1  20   3   39.12    3.52
   0 -20   3   14.22    1.65
   0  20  -3   14.65    1.75
   1 -20   3    4.24    0.92
  -1  20  -3    5.32    1.04
   2 -20   3   13.77    1.56
  -2  20  -3   13.05    1.61
  -3 -20  -3   19.45    2.02
   3 -20   3   17.68    1.92
   3 -20   3   19.94    2.04
   3  20   3   19.02    2.11
  -3  20  -3   18.81    1.97
  -4 -20  -3    4.56    1.02
   4 -20   3    1.49    0.79
  -4  20  -3    1.08    0.78
   4  20   3    4.27    1.16
   5 -20   3   32.68    2.76
  -5 -20  -3   30.93    2.83
   5  20   3   25.85    2.84
  -6 -20  -3    1.53    0.93
   6 -20   3    1.21    0.78
   6  20   3    0.49    0.95
  -7 -20  -3   13.38    1.78
   7 -20   3   13.17    1.56
   7  20   3   11.52    1.79
   8 -20   3    7.72    1.28
   9 -20   3    9.36    1.36
  10 -20   3    1.54    0.76
   9  21  -3    0.74    1.02
   8 -21  -3    0.67    0.87
   8  21  -3    1.18    1.04
  -7 -21   3    2.10    0.96
   7 -21  -3    2.88    0.91
   7  21  -3    2.40    1.13
   6 -21  -3    1.22    0.86
  -6 -21   3    2.84    0.96
   6  21  -3    3.80    1.17
   5 -21  -3   -0.33    0.78
  -5 -21   3    2.34    0.94
   5  21  -3    1.83    1.06
   4 -21  -3    0.84    0.79
  -4 -21   3    0.46    0.84
  -4  21   3    0.28    0.90
   4  21  -3    0.86    1.04
   3 -21  -3    5.33    1.00
   3  21  -3    2.67    1.10
  -3  21   3    4.97    1.07
  -2 -21   3    4.86    1.03
   2  21  -3    4.87    1.16
  -1 -21   3    2.43    0.89
   1 -21  -3    2.63    0.87
  -1  21   3    0.88    0.91
   1  21  -3    2.72    1.02
   0 -21  -3    5.95    1.13
   0 -21   3    9.17    1.29
   0  21   3    4.87    1.24
   0  21  -3    9.04    1.37
  -1 -21  -3   -0.06    0.78
   1 -21   3   -0.41    0.76
   1  21   3   -0.43    0.88
  -1  21  -3   -0.01    0.86
   2 -21   3   -0.28    0.75
  -2 -21  -3    0.37    0.80
  -2  21  -3    0.01    0.87
   2  21   3    0.24    0.89
   3 -21   3    2.49    0.87
  -3 -21  -3    1.30    0.88
   3  21   3    0.72    0.94
  -3  21  -3    3.00    0.90
   4 -21   3    3.59    0.90
  -4 -21  -3    1.86    0.91
   4  21   3    0.95    0.96
   5 -21   3    1.92    0.81
  -5 -21  -3    0.22    0.84
   5  21   3    1.11    0.95
   6 -21   3    0.87    0.83
  -6 -21  -3    0.18    0.89
   6  21   3    0.56    0.98
  -7 -21  -3    0.82    0.94
   7 -21   3    0.84    0.78
   7  21   3    1.05    0.97
   8 -21   3    1.26    0.86
   8  21   3    0.84    1.06
   9 -21   3   -0.11    0.79
   9  21   3   -0.61    1.01
  10 -21   3    0.67    0.78
   9  22  -3    1.15    1.08
   8 -22  -3   15.36    1.86
   8  22  -3   11.99    1.89
  -7 -22   3    8.37    1.43
   7  22  -3   10.05    1.56
   6 -22  -3    8.38    1.39
  -6 -22   3    8.31    1.37
   6  22  -3    8.63    1.47
  -5 -22   3    4.58    1.03
   5 -22  -3    1.31    0.89
   5  22  -3    3.22    1.19
  -4 -22   3   10.97    1.57
   4  22  -3   10.76    1.67
  -3 -22   3    5.80    1.15
   3  22  -3    6.82    1.28
  -2 -22   3   21.53    2.20
   2  22  -3   21.47    2.27
  -1 -22   3   15.70    1.80
   1 -22  -3   15.35    1.80
   1  22  -3   16.57    1.91
  -1  22   3   14.79    1.97
   0 -22  -3    7.28    1.25
   0 -22   3   10.17    1.37
   0  22   3    5.70    1.34
   0  22  -3   10.38    1.45
   1 -22   3   10.26    1.52
  -1  22  -3   11.73    1.61
   2 -22   3    7.97    1.27
  -2  22  -3    9.55    1.35
   3 -22   3   34.43    3.24
  -3 -22  -3   37.48    3.33
  -3  22  -3   37.08    3.24
   3  22   3   36.56    3.38
  -4 -22  -3    2.21    0.97
   4 -22   3    3.76    0.92
   4  22   3    2.10    1.18
  -5 -22  -3   26.93    2.63
   5 -22   3   26.98    2.56
   5  22   3   25.93    2.70
  -6 -22  -3   -0.19    0.87
   6 -22   3   -0.44    0.77
   6  22   3   -0.67    0.94
   7  22   3   16.55    2.09
   8  22   3    8.79    1.63
   9 -22   3    0.60    0.79
  10 -22   3    0.40    0.80
   8 -23  -3    1.49    0.97
   8  23  -3    0.49    1.06
  -7 -23   3    5.78    1.28
   7  23  -3    5.61    1.35
   6 -23  -3    2.32    0.94
  -6 -23   3    0.93    0.95
   6  23  -3    1.07    1.04
  -5 -23   3    1.19    0.93
   5 -23  -3    0.73    0.88
   5  23  -3    0.32    1.11
  -4 -23   3    0.02    0.82
   4 -23  -3    0.53    0.82
   4  23  -3    0.31    1.05
  -3 -23   3   -0.01    0.88
   3 -23  -3    1.32    0.87
  -3  23   3    0.53    0.98
   3  23  -3    0.72    1.08
   2 -23  -3    2.72    0.94
  -2 -23   3    2.45    0.92
  -2  23   3    1.63    0.96
   2  23  -3    3.00    1.11
   1 -23  -3    2.58    0.94
  -1 -23   3    1.45    0.86
   1  23  -3    1.61    1.00
  -1  23   3    1.28    1.03
   0 -23   3    5.80    1.10
   0 -23  -3    4.33    1.08
   0  23  -3    6.35    1.22
   0  23   3    2.80    1.21
   1 -23   3    0.30    0.79
  -1 -23  -3    0.67    0.87
   1  23   3    0.94    0.95
  -1  23  -3    0.70    1.00
   2 -23   3    0.91    0.83
  -2 -23  -3    2.78    0.99
   2  23   3    1.05    1.02
  -2  23  -3    1.17    0.96
  -3 -23  -3    2.02    0.95
   3 -23   3    4.19    0.99
   3  23   3    2.82    1.24
  -4 -23  -3    2.18    0.97
   4 -23   3    0.81    0.86
   4  23   3    1.54    1.02
   5 -23   3    0.43    0.84
  -5 -23  -3    0.66    0.90
   5  23   3   -0.01    1.00
  -6 -23  -3    5.09    1.20
   6 -23   3    2.73    0.97
   6  23   3    6.31    1.37
   7 -23   3    7.69    1.19
   7  23   3    3.33    1.37
   8 -23   3    5.59    1.03
   8  23   3    1.11    1.16
   9 -23   3    0.35    0.82
  10 -23   3   -0.59    0.79
   8 -24  -3    1.49    1.01
   7 -24  -3    0.91    0.91
   7  24  -3    1.01    1.12
  -6 -24   3    3.55    1.13
   6  24  -3    3.43    1.26
   5 -24  -3    4.86    1.12
  -5 -24   3    1.74    1.00
   5  24  -3    1.26    1.06
   4 -24  -3    4.66    1.09
  -4 -24   3    5.41    1.16
   4  24  -3    6.34    1.32
  -3 -24   3    8.95    1.47
  -2 -24   3   20.68    2.21
   2  24  -3   19.58    2.24
   1 -24  -3    6.36    1.20
  -1  24   3    6.19    1.39
   0 -24  -3    1.96    0.93
   0  24  -3    5.71    1.24
   0  24   3    1.21    1.00
   1 -24   3    2.60    0.98
  -1  24  -3    4.32    1.16
   2 -24   3    4.12    1.05
  -2 -24  -3    5.83    1.19
   2  24   3    6.41    1.41
  -2  24  -3    3.31    1.12
  -3 -24  -3    0.82    0.91
   3 -24   3    0.23    0.85
   3  24   3   -0.35    0.99
  -4 -24  -3    5.69    1.22
   4  24   3    6.23    1.46
  -5 -24  -3   16.31    1.95
   5 -24   3   16.58    1.84
   5  24   3   14.83    2.11
   6 -24   3   11.58    1.60
   7 -24   3   10.92    1.53
   7  24   3    6.38    1.61
   8 -24   3    2.71    0.97
   9 -24   3    7.88    1.23
   7 -25  -3    0.38    0.88
   7  25  -3    1.06    1.18
   6 -25  -3   -0.03    0.90
  -6 -25   3   -0.53    0.99
   6  25  -3    0.17    1.14
  -5 -25   3    8.21    1.46
   5  25  -3    8.36    1.59
  -4 -25   3   -1.21    0.89
   4 -25  -3    0.67    0.89
   4  25  -3   -0.87    1.04
  -3 -25   3    4.92    1.17
   3  25  -3    5.88    1.40
   2 -25  -3    0.43    0.87
  -2 -25   3    1.11    0.94
  -2  25   3    0.62    0.96
   2  25  -3    0.41    1.07
  -1 -25   3   16.06    1.86
   1 -25  -3   12.71    1.81
  -1  25   3   13.98    2.02
   1  25  -3   16.89    2.04
   0 -25   3   -0.34    0.86
   0 -25  -3    0.12    0.87
   0  25   3   -0.27    1.01
   0  25  -3    0.32    1.10
  -1 -25  -3    5.34    1.15
   1 -25   3    3.25    1.06
  -1  25  -3    4.53    1.22
   1  25   3    4.00    1.32
   2 -25   3    2.40    0.95
  -2 -25  -3    0.84    0.97
   2  25   3    0.63    1.02
   3 -25   3    6.06    1.15
  -3 -25  -3    4.32    1.16
   3  25   3    4.74    1.41
  -4 -25  -3    5.85    1.26
   4 -25   3    4.70    1.11
   4  25   3    7.23    1.50
  -5 -25  -3    1.77    1.08
   5 -25   3    3.89    1.04
   5  25   3    1.05    1.11
   6 -25   3    2.65    1.05
  -6 -25  -3    4.71    1.23
   6  25   3    6.01    1.48
   7 -25   3    0.44    0.87
   6 -26  -3    0.52    0.93
  -6 -26   3    0.74    1.03
   6  26  -3    0.77    1.20
  -5 -26   3    5.50    1.27
   5 -26  -3    2.34    1.07
   5  26  -3    5.18    1.49
   4 -26  -3    0.53    0.94
  -4 -26   3    1.53    1.04
   4  26  -3    2.90    1.34
  -3 -26   3    1.15    1.00
   3 -26  -3    1.30    0.92
   3  26  -3    0.95    1.15
  -2 -26   3    2.44    1.00
   2 -26  -3    0.79    0.92
   2  26  -3    0.68    1.13
  -1 -26   3   12.27    1.79
   1 -26  -3   16.09    1.87
   1  26  -3   15.18    2.05
  -1  26   3   14.74    2.05
   0 -26   3    8.52    1.36
   0 -26  -3    7.61    1.36
   0  26   3    7.66    1.58
   0  26  -3    8.09    1.48
  -1 -26  -3   18.01    2.07
   1 -26   3   15.91    1.98
   1  26   3   18.17    2.26
  -1  26  -3   17.65    2.09
  -2 -26  -3   11.63    1.73
   2 -26   3   12.45    1.63
   2  26   3   11.92    1.94
  -3 -26  -3   20.85    2.32
   3 -26   3   20.21    2.22
   3  26   3   21.50    2.47
  -4 -26  -3    4.99    1.25
   4 -26   3    6.43    1.22
   4  26   3    6.08    1.53
  -5 -26  -3    6.75    1.40
   5  26   3    6.90    1.60
   6 -26   3    4.37    1.10
   6  26   3    0.43    1.17
  -6 -27   3    0.07    0.98
  -5 -27   3    0.79    1.06
   5 -27  -3    4.41    1.16
   5  27  -3    0.66    1.21
  -4 -27   3    2.73    1.16
   4 -27  -3    1.25    1.05
   4  27  -3    2.16    1.24
  -3 -27   3    2.59    1.11
   3 -27  -3    3.98    1.13
   3  27  -3    2.84    1.41
  -2 -27   3    0.12    0.95
   2 -27  -3    3.53    1.07
   2  27  -3   -0.62    1.10
   1 -27  -3   -0.12    0.91
  -1 -27   3    0.28    0.92
   1  27  -3    0.03    1.08
   0 -27  -3    3.24    1.10
   0 -27   3    0.77    0.97
   0  27  -3    1.49    1.08
   0  27   3    4.24    1.40
   1 -27   3    9.04    1.45
   2 -27   3    0.99    0.96
  -2 -27  -3    1.64    1.04
   2  27   3    2.60    1.36
  -3 -27  -3    1.38    1.04
   3  27   3    2.70    1.36
  -4 -27  -3    0.15    1.02
   4 -27   3    0.47    0.93
   4  27   3   -0.30    1.07
  -5 -27  -3    2.92    1.21
   5  27   3    3.31    1.43
  -5 -28   3    7.91    1.44
  -4 -28   3    3.75    1.17
   4  28  -3    3.50    1.43
   3 -28  -3    9.11    1.51
   2 -28  -3    6.37    1.38
  -2 -28   3   11.00    1.66
   2  28  -3   11.20    1.76
  -1 -28   3    4.37    1.16
   1 -28  -3    2.72    1.11
   1  28  -3    4.40    1.42
   0 -28  -3    1.62    1.07
   0 -28   3    4.22    1.17
   0  28   3    2.50    1.42
  -1 -28  -3    0.26    1.03
   1 -28   3    3.24    1.09
   1  28   3    0.13    1.18
  -2 -28  -3    7.20    1.43
   2  28   3    7.65    1.65
  -3 -28  -3    0.35    1.03
   3 -28   3    0.25    0.93
   3  28   3    1.07    1.17
  -4 -28  -3    2.83    1.16
   4  28   3    1.08    1.19
  -5 -28  -3    1.26    1.16
  -5 -29   3    9.53    1.64
  -4 -29   3    0.10    1.03
   4  29  -3    0.32    1.18
  -3 -29   3   23.88    2.67
   3  29  -3   25.70    2.81
  -2 -29   3    0.67    1.05
   2  29  -3   -0.47    1.13
  -1 -29   3   31.67    3.10
   1  29  -3   29.77    3.16
   0 -29   3    0.08    1.01
   0 -29  -3    0.00    0.99
  -1 -29  -3    1.06    1.08
   1  29   3    0.70    1.23
  -2 -29  -3    9.39    1.57
   2  29   3    7.93    1.78
  -3 -29  -3   -0.31    1.05
   3  29   3    0.38    1.16
  -4 -29  -3    4.14    1.32
  -5 -29  -3    1.30    1.20
   3  30  -3    0.67    1.25
   2  30  -3   -0.11    1.20
   2  30   3    0.48    1.28
  14   0  -4    0.88    0.93
  13   0  -4   30.75    2.82
  12   0  -4   18.60    1.95
  11   0  -4   37.09    3.03
  11   0  -4   35.07    3.11
  10   0  -4    0.15    0.49
  10   0  -4    0.36    0.58
  10   0  -4   -0.11    0.62
   9   0  -4   60.43    5.01
   9   0  -4   63.02    5.06
   9   0  -4   65.01    5.05
   8   0  -4   82.79    6.42
   8   0  -4   79.50    6.32
  -8   0   4   82.41    6.34
   8   0  -4   78.15    6.41
  -7   0   4   38.09    3.08
   7   0  -4   36.59    3.06
   7   0  -4   38.41    3.06
   7   0  -4   35.20    3.05
  -6   0   4   38.30    3.21
   6   0  -4   40.86    3.21
   6   0  -4   41.21    3.23
   6   0  -4   37.95    3.22
  -6   0   4   38.77    3.20
   5   0  -4    5.53    0.82
  -5   0   4    4.45    0.76
   5   0  -4    4.62    0.77
   5   0  -4    5.57    0.74
  -5   0   4    6.48    0.92
   4   0  -4    2.95    0.55
   4   0  -4    2.98    0.54
  -4   0   4    2.56    0.53
  -4   0   4    3.18    0.59
   4   0  -4    3.35    0.55
   3   0  -4   24.38    2.03
   3   0  -4   24.82    2.09
  -3   0   4   23.87    2.08
   3   0  -4   24.98    2.08
  -3   0   4   25.01    2.06
   2   0  -4   18.42    1.61
  -2   0   4   17.45    1.60
   2   0  -4   17.87    1.53
  -2   0   4   17.39    1.55
  -1   0   4   30.46    2.51
  -1   0   4   31.04    2.61
   1   0  -4   31.65    2.50
   1   0  -4   32.93    2.63
   0   0   4    3.50    0.55
   0   0   4    3.22    0.47
   0   0  -4    4.04    0.53
   0   0  -4    3.53    0.56
  -1   0  -4    2.23    0.35
   1   0   4    2.57    0.39
  -1   0  -4    2.51    0.45
   1   0   4    1.87    0.49
   2   0   4   25.09    2.10
   2   0   4   25.25    1.96
  -2   0  -4   24.26    2.09
  -3   0  -4   64.60    4.97
   3   0   4   60.29    4.97
   4   0   4    2.43    0.51
  -4   0  -4    2.43    0.43
  -5   0  -4   42.04    3.17
   5   0   4   36.46    3.19
   6   0   4    1.74    0.50
  -6   0  -4    1.62    0.34
   6   0   4    2.64    0.52
  -6   0  -4    1.83    0.36
   7   0   4  128.44   10.17
   7   0   4  125.71    9.83
   7   0   4  134.21   10.18
   8   0   4   12.49    1.24
   8   0   4   13.31    1.30
   8   0   4   12.36    1.25
   9   0   4   66.89    5.47
   9   0   4   74.16    5.62
   9   0   4   70.37    5.62
  10   0   4   43.36    3.32
  10   0   4   37.47    3.27
  11   0   4   13.89    1.43
  14  -1  -4   -0.39    0.89
  14   1  -4    1.89    0.96
  13  -1  -4    0.09    0.84
  13   1  -4    0.76    0.85
  12  -1  -4    1.05    0.80
  12   1  -4    1.09    0.65
  12   1  -4    1.59    0.81
  11  -1  -4    7.16    0.99
  11  -1  -4    8.20    1.20
  11   1  -4    6.34    1.09
  11   1  -4    6.09    1.04
  10  -1  -4    2.12    0.54
  10  -1  -4    1.05    0.77
  10  -1  -4    1.10    0.59
  10   1  -4    2.79    0.68
  10   1  -4    3.17    0.63
  10   1  -4    2.68    0.77
   9  -1  -4   77.03    6.16
   9  -1  -4   76.15    6.12
   9  -1  -4   73.83    6.16
   9   1  -4   85.49    6.20
   9   1  -4   76.35    6.19
   9   1  -4   75.94    6.09
   8  -1  -4   10.79    1.32
   8  -1  -4    8.93    1.19
  -8  -1   4   11.89    1.41
   8  -1  -4    8.23    1.18
   8   1  -4   12.58    1.23
   8   1  -4   13.95    1.25
   8   1  -4   12.61    1.30
   7  -1  -4   22.07    1.74
  -7  -1   4   18.30    1.84
   7  -1  -4   20.53    1.81
   7  -1  -4   19.77    1.74
   7   1  -4   17.77    1.76
  -7   1   4   20.45    1.88
  -7   1   4   18.89    1.66
   7   1  -4   17.51    1.77
   7   1  -4   19.88    1.79
  -6  -1   4    4.37    0.72
  -6  -1   4    3.54    0.60
   6   1  -4    3.65    0.66
  -6   1   4    5.52    0.62
   6   1  -4    3.60    0.63
   6   1  -4    3.91    0.62
   5  -1  -4    7.52    0.85
   5  -1  -4    6.95    0.83
  -5  -1   4    5.32    0.75
   5  -1  -4    5.91    0.88
  -5  -1   4    4.61    0.69
   5   1  -4    5.35    0.70
   5   1  -4    4.91    0.70
  -5   1   4    6.18    0.91
   5   1  -4    4.51    0.71
  -5   1   4    6.33    0.80
   4  -1  -4    8.15    0.85
   4  -1  -4    7.74    0.93
  -4  -1   4    6.57    0.93
  -4  -1   4    4.94    0.87
   4  -1  -4    9.19    0.93
  -4   1   4    8.20    0.97
   4   1  -4    4.95    0.87
   4   1  -4    6.13    0.88
   4   1  -4    6.46    0.79
  -4   1   4    8.89    0.88
  -3  -1   4    9.94    0.99
   3  -1  -4    9.03    1.01
  -3  -1   4    8.92    1.02
   3  -1  -4    8.41    0.98
   3   1  -4    8.89    1.05
  -3   1   4    8.15    1.02
   3   1  -4   10.07    0.97
   3   1  -4    9.33    0.97
  -3   1   4    8.37    0.98
  -2  -1   4   48.68    4.28
   2  -1  -4   61.55    4.30
   2  -1  -4   62.62    4.44
  -2  -1   4   47.64    4.42
  -2   1   4   61.74    4.45
   2   1  -4   51.37    4.28
   2   1  -4   52.81    4.44
   2   1  -4   49.68    4.43
  -2   1   4   64.10    4.32
   1  -1  -4  389.54   31.70
  -1  -1   4  433.52   32.76
   1  -1  -4  414.08   32.80
  -1  -1   4  446.62   31.65
  -1   1   4  394.10   32.75
   1   1  -4  428.32   32.87
  -1   1   4  408.35   31.65
   1   1  -4  441.57   32.84
   1   1  -4  427.09   31.71
   0  -1   4   55.20    4.15
   0  -1   4   54.93    4.32
   0   1  -4   52.06    4.30
   0   1  -4   56.24    4.31
   0   1  -4   50.97    4.14
  -1  -1  -4   28.97    2.50
  -1  -1  -4   26.17    2.34
   1  -1   4   33.23    2.50
  -1   1  -4   34.54    2.49
   1   1   4   29.09    2.36
   1   1   4   27.95    2.51
   2  -1   4   91.19    6.73
   2  -1   4   92.46    7.00
  -2  -1  -4   88.10    7.00
   2   1   4   85.03    6.99
  -2   1  -4   90.99    6.99
  -2   1  -4   83.35    6.98
   2   1   4   87.74    6.71
   3  -1   4    2.85    0.54
  -3   1  -4    3.35    0.50
   3   1   4    4.07    0.49
  -3   1  -4    3.55    0.50
   4  -1   4    7.47    0.91
  -4   1  -4    8.03    0.89
  -4   1  -4    7.21    0.83
   5  -1   4    1.61    0.49
   5   1   4    3.63    0.57
  -5   1  -4    1.83    0.38
   6  -1   4    1.89    0.47
  -6  -1  -4    1.04    0.37
   6   1   4    1.46    0.48
   6   1   4    1.36    0.49
   7  -1   4    6.85    0.79
   7   1   4    4.33    0.63
   7   1   4    4.72    0.73
   7   1   4    5.26    0.73
   8  -1   4   20.73    1.67
   8  -1   4   21.26    1.64
   8  -1   4   19.47    1.66
   8   1   4   15.05    1.60
   8   1   4   17.58    1.67
   8   1   4   16.46    1.71
   9  -1   4   50.89    3.98
   9  -1   4   49.63    3.93
   9   1   4   51.70    4.03
   9   1   4   47.79    3.90
   9   1   4   47.88    4.02
  10  -1   4    3.33    0.69
  10   1   4    0.82    0.58
  10   1   4    1.29    0.57
  10   1   4    1.84    0.59
  11  -1   4    1.92    0.73
  11   1   4    2.79    0.67
  14  -2  -4   -0.10    0.91
  14   2  -4    0.17    0.89
  13  -2  -4    2.61    0.93
  13   2  -4    1.11    0.68
  13   2  -4    0.48    0.84
  12  -2  -4    0.29    0.76
  12   2  -4    0.45    0.81
  12   2  -4   -0.56    0.65
  11  -2  -4   24.83    2.38
  11   2  -4   25.09    2.35
  11   2  -4   25.94    2.26
  10  -2  -4    3.08    0.55
  10  -2  -4    3.50    0.64
  10  -2  -4    2.36    0.83
  10   2  -4    2.83    0.72
  10   2  -4    3.15    0.67
  10   2  -4    2.42    0.76
   9  -2  -4   67.18    4.72
   9  -2  -4   61.56    4.70
   9  -2  -4   61.19    4.72
   9   2  -4   52.73    4.66
   9   2  -4   55.31    4.74
   9   2  -4   52.47    4.73
   8  -2  -4   24.64    1.91
   8  -2  -4   25.28    1.91
   8  -2  -4   25.56    2.01
  -8  -2   4   18.27    2.01
   8   2  -4   19.90    1.96
   8   2  -4   18.15    1.94
   8   2  -4   18.07    1.93
  -7  -2   4   90.15    7.58
   7  -2  -4   92.96    7.44
   7  -2  -4   94.89    7.59
  -7  -2   4  102.77    7.47
   7  -2  -4  101.38    7.59
  -7   2   4   95.36    7.56
   7   2  -4   94.64    7.43
   7   2  -4   98.98    7.62
   7   2  -4   94.74    7.62
  -7   2   4   96.31    7.56
  -6  -2   4   49.69    3.81
  -6  -2   4   54.33    3.81
   6  -2  -4   42.26    3.80
   6  -2  -4   40.10    3.75
   6  -2  -4   42.17    3.79
   6   2  -4   49.78    3.83
   6   2  -4   53.54    3.85
   6   2  -4   50.28    3.76
  -6   2   4   42.49    3.78
  -5  -2   4  134.39   10.55
  -5  -2   4  147.59   10.27
   5  -2  -4  129.98   10.53
   5  -2  -4  125.00   10.25
   5   2  -4  144.59   10.56
   5   2  -4  137.21   10.56
  -5   2   4  127.62   10.25
  -5   2   4  122.33   10.52
   5   2  -4  140.29   10.24
   4  -2  -4  169.44   13.21
  -4  -2   4  173.22   13.23
   4  -2  -4  163.15   12.82
  -4  -2   4  173.39   12.82
  -4   2   4  160.21   12.82
   4   2  -4  176.04   13.23
  -4   2   4  152.54   13.20
   4   2  -4  173.26   12.81
   4   2  -4  177.87   13.23
  -3  -2   4  232.33   18.31
   3  -2  -4  254.86   18.31
   3  -2  -4  270.61   18.92
  -3  -2   4  218.81   18.92
  -3   2   4  262.53   18.33
   3   2  -4  226.96   18.30
   3   2  -4  237.53   18.92
   3   2  -4  227.14   18.92
  -3   2   4  249.34   18.91
   2  -2  -4   20.39    2.17
   2  -2  -4   20.46    2.09
  -2  -2   4   27.37    2.18
  -2  -2   4   28.34    2.11
   2   2  -4   29.16    2.11
   2   2  -4   28.63    2.18
   2   2  -4   29.44    2.21
  -2   2   4   22.18    2.11
   1  -2  -4   26.66    2.12
  -1  -2   4   23.47    2.10
  -1  -2   4   24.88    2.01
   1  -2  -4   24.93    1.99
   1   2  -4   24.85    2.12
  -1   2   4   26.68    2.02
   1   2  -4   23.55    2.00
  -1   2   4   23.61    2.10
   1   2  -4   22.91    2.08
   0  -2  -4  158.55   12.22
   0  -2   4  162.28   11.80
   0  -2   4  157.88   12.22
   0  -2  -4  147.47   11.78
   0   2   4  149.60   12.22
   0   2  -4  161.07   12.21
   0   2  -4  153.64   11.79
   0   2  -4  153.67   12.22
   0   2   4  158.91   11.79
  -1  -2  -4  590.04   48.09
   1  -2   4  641.94   48.01
  -1  -2  -4  563.94   46.30
   1  -2   4  661.62   46.30
  -1   2  -4  665.00   48.12
  -1   2  -4  639.39   48.05
   1   2   4  592.01   46.28
   1   2   4  570.06   47.91
   2  -2   4   88.12    6.60
   2  -2   4   88.56    6.85
  -2   2  -4   88.31    6.84
  -2   2  -4   82.27    6.84
   3  -2   4   21.00    1.87
  -3   2  -4   21.16    1.87
  -3   2  -4   24.03    1.89
  -4  -2  -4   15.86    1.63
   4  -2   4   21.44    1.63
  -4   2  -4   20.90    1.59
   4   2   4   15.16    1.69
  -5  -2  -4   55.97    4.53
   5  -2   4   60.29    4.53
   5   2   4   51.86    4.55
   5   2   4   50.70    4.55
  -5   2  -4   64.55    4.51
  -6  -2  -4    6.72    0.84
   6   2   4    6.25    0.71
   6   2   4    6.59    0.93
   6   2   4    7.26    0.92
  -7  -2  -4   12.13    1.14
   7   2   4   12.72    1.23
   7   2   4   10.66    1.27
   7   2   4   12.13    1.10
   8  -2   4    0.06    0.44
   8  -2   4    0.43    0.44
   8   2   4    0.67    0.47
   8   2   4    0.29    0.51
   8   2   4    0.48    0.55
   9  -2   4    3.16    0.67
   9   2   4    1.50    0.54
   9   2   4    2.25    0.63
   9   2   4    1.84    0.64
  10  -2   4    0.02    0.60
  10   2   4   -0.38    0.47
  10   2   4   -0.36    0.54
  10   2   4   -0.50    0.59
  11  -2   4    4.16    0.80
  11   2   4    1.50    0.60
  11   2   4    2.37    0.67
  12  -2   4    0.37    0.72
  14   3  -4    0.25    0.88
  13  -3  -4   -0.07    0.82
  13   3  -4    0.77    0.85
  13   3  -4   -0.60    0.66
  12  -3  -4    0.32    0.83
  12   3  -4    0.23    0.69
  12   3  -4    0.25    0.79
  11  -3  -4    3.35    0.95
  11   3  -4    5.44    0.86
  11   3  -4    5.40    0.99
  10  -3  -4    6.12    0.90
  10  -3  -4    4.72    0.68
  10  -3  -4    5.78    0.97
  10   3  -4    3.38    0.75
  10   3  -4    3.10    0.79
  10   3  -4    3.63    0.85
  -9  -3   4    0.81    0.44
   9  -3  -4    0.53    0.49
   9  -3  -4    2.00    0.72
   9  -3  -4    0.10    0.55
   9   3  -4    1.42    0.66
   9   3  -4    0.89    0.59
   9   3  -4    0.61    0.65
   8  -3  -4    0.69    0.51
   8  -3  -4    0.77    0.46
   8  -3  -4    1.08    0.64
  -8  -3   4    0.76    0.58
   8   3  -4    1.05    0.60
   8   3  -4    0.88    0.55
   8   3  -4    0.67    0.62
   7  -3  -4    2.01    0.54
   7  -3  -4    2.57    0.47
   7  -3  -4    2.81    0.67
  -7  -3   4    1.39    0.52
  -7  -3   4    1.30    0.60
   7   3  -4    1.65    0.59
   7   3  -4    1.70    0.55
   7   3  -4    1.78    0.59
  -7   3   4    1.37    0.42
  -6  -3   4    5.47    0.84
   6  -3  -4    5.12    0.78
   6  -3  -4    5.24    0.82
  -6  -3   4    6.46    0.82
   6   3  -4    6.16    0.90
   6   3  -4    5.85    0.88
   6   3  -4    5.47    0.85
  -6   3   4    4.79    0.63
  -5  -3   4    8.06    1.00
  -5  -3   4    8.57    1.02
   5   3  -4    8.73    1.04
   5   3  -4    8.05    1.01
   5   3  -4    9.09    1.01
  -4  -3   4  162.76   12.65
   4  -3  -4  131.01   12.62
  -4  -3   4  163.16   12.65
  -4  -3   4  168.14   12.26
   4   3  -4  169.24   12.26
   4   3  -4  168.45   12.65
   4   3  -4  167.07   12.66
   3  -3  -4  233.34   16.20
  -3  -3   4  190.39   15.66
   3  -3  -4  228.91   15.69
  -3  -3   4  192.89   16.20
  -3  -3   4  192.08   16.20
  -3   3   4  217.01   16.18
   3   3  -4  192.49   16.20
   3   3  -4  192.31   15.66
   3   3  -4  198.93   16.20
  -3   3   4  232.76   15.69
   2  -3  -4   28.25    2.80
  -2  -3   4   36.58    2.84
  -2  -3   4   35.24    2.83
  -2  -3   4   34.92    2.72
   2   3  -4   36.86    2.82
  -2   3   4   28.99    2.72
   2   3  -4   37.14    2.72
   2   3  -4   35.34    2.82
   1  -3  -4    4.98    0.69
  -1  -3   4    6.56    0.86
   1  -3  -4    4.66    0.63
  -1  -3   4    5.89    0.81
  -1  -3   4    6.49    0.72
   1   3  -4    6.09    0.70
  -1   3   4    5.20    0.75
  -1   3   4    4.00    0.66
   1   3  -4    5.79    0.76
   1   3  -4    6.27    0.84
   0  -3   4   15.21    1.32
   0  -3   4   14.30    1.41
   0  -3   4   15.66    1.45
   0   3  -4   15.70    1.40
   0   3  -4   14.86    1.39
   0   3  -4   14.46    1.30
   1  -3   4   14.53    1.22
   1  -3   4   12.91    1.31
   1  -3   4   14.08    1.33
  -1   3  -4   13.35    1.29
  -1   3  -4   13.64    1.29
  -2  -3  -4   20.92    1.51
   2  -3   4   16.87    1.70
  -2  -3  -4   22.23    1.75
  -2   3  -4   16.76    1.66
   2   3   4   22.29    1.72
  -2   3  -4   17.32    1.68
   3  -3   4  309.10   24.11
  -3  -3  -4  296.29   24.12
  -3   3  -4  338.35   24.20
   3   3   4  305.61   24.14
   3   3   4  287.51   24.13
  -3   3  -4  318.93   24.11
   4  -3   4    6.90    0.89
  -4  -3  -4    8.51    0.95
  -4   3  -4    6.37    0.81
   4   3   4    7.93    0.97
  -4   3  -4    6.98    0.83
   4   3   4    8.26    0.99
  -5  -3  -4  115.70    8.77
   5  -3   4  105.94    8.76
   5   3   4  116.40    8.81
   5   3   4  109.94    8.79
  -5   3  -4  109.67    8.73
  -6  -3  -4    4.17    0.58
   6   3   4    4.30    0.67
   6   3   4    3.60    0.67
   7  -3   4   43.94    3.64
  -7  -3  -4   44.98    3.63
   7   3   4   45.17    3.70
   7   3   4   46.60    3.69
   8  -3   4    0.51    0.45
   8  -3   4    0.54    0.45
   8   3   4    1.38    0.60
   8   3   4    1.15    0.42
   8   3   4    1.29    0.62
   9  -3   4   21.75    2.13
   9   3   4   25.82    2.17
   9   3   4   24.28    2.01
   9   3   4   25.42    2.19
  10  -3   4    0.32    0.61
  10   3   4    0.18    0.60
  10   3   4    0.12    0.60
  10   3   4    0.13    0.43
  11  -3   4    1.41    0.75
  11   3   4    3.46    0.73
  12  -3   4    4.93    0.94
  14   4  -4    0.42    0.89
  14   4  -4    0.18    0.72
  13  -4  -4   13.29    1.76
  13   4  -4   14.19    1.70
  13   4  -4   15.05    1.57
  12  -4  -4    0.49    0.85
  12   4  -4    1.30    0.73
  12   4  -4    1.20    0.80
  11  -4  -4   15.49    1.63
  11   4  -4   12.60    1.52
  11   4  -4   12.02    1.43
  10  -4  -4    3.27    0.57
  10  -4  -4    3.66    0.89
  10  -4  -4    3.16    0.62
  10   4  -4    2.91    0.77
  10   4  -4    3.00    0.79
   9  -4  -4   12.45    1.20
   9  -4  -4   13.88    1.40
   9  -4  -4   11.41    1.18
   9   4  -4    9.59    1.26
   9   4  -4    8.66    1.29
   9   4  -4    9.98    1.30
  -8  -4   4   -0.06    0.47
   8  -4  -4   -0.68    0.48
  -8  -4   4   -0.12    0.55
   8  -4  -4   -0.25    0.43
   8  -4  -4   -0.12    0.58
   8   4  -4    0.06    0.59
   8   4  -4    0.47    0.54
   8   4  -4    0.54    0.61
  -7  -4   4    1.34    0.59
   7  -4  -4    0.80    0.45
  -7  -4   4    1.57    0.52
   7  -4  -4    0.77    0.57
   7   4  -4    1.72    0.56
   7   4  -4    1.41    0.58
   7   4  -4    0.95    0.58
  -6  -4   4   78.86    6.09
   6  -4  -4   84.90    6.21
  -6  -4   4   72.82    6.21
   6  -4  -4   81.04    6.10
  -6  -4   4   73.91    6.22
   6   4  -4   75.47    6.24
   6   4  -4   76.62    6.23
   6   4  -4   75.42    6.06
  -6   4   4   84.74    6.18
  -5  -4   4   27.00    2.24
   5  -4  -4   25.98    2.21
   5  -4  -4   24.20    2.20
  -5  -4   4   26.22    2.24
  -5  -4   4   26.47    2.19
   5   4  -4   26.43    2.19
   5   4  -4   25.71    2.24
  -5   4   4   26.70    2.21
  -5   4   4   23.31    2.16
   5   4  -4   27.65    2.25
  -4  -4   4   37.99    3.10
  -4  -4   4   38.07    3.01
  -4  -4   4   35.12    3.07
   4   4  -4   37.84    3.08
   4   4  -4   37.38    2.98
   4   4  -4   37.33    3.08
   3  -4  -4   97.37    7.40
  -3  -4   4   89.57    7.42
   3  -4  -4   99.87    7.20
  -3  -4   4   87.80    7.41
  -3  -4   4   91.86    7.18
   3   4  -4   89.35    7.41
  -3   4   4   95.50    7.41
  -3   4   4  101.88    7.21
  -3   4   4   96.85    7.41
   3   4  -4   90.84    7.17
   3   4  -4   90.05    7.41
   2  -4  -4  185.10   13.63
  -2  -4   4  166.53   13.17
  -2  -4   4  165.74   13.63
  -2  -4   4  168.01   13.63
   2  -4  -4  185.84   13.19
  -2   4   4  175.85   13.64
   2   4  -4  168.47   13.17
  -2   4   4  183.80   13.19
   2   4  -4  174.37   13.64
  -2   4   4  174.32   13.62
   2   4  -4  165.19   13.62
  -1  -4   4   24.61    2.19
  -1  -4   4   24.22    2.19
  -1  -4   4   24.90    2.08
   1   4  -4   25.68    2.17
  -1   4   4   32.55    2.19
   1   4  -4   23.78    2.16
   1   4  -4   23.02    2.06
   0  -4   4   79.57    7.26
   0  -4   4   80.64    7.26
   0  -4   4   83.30    7.00
   0  -4  -4  107.01    6.99
   0   4  -4   84.65    7.25
   0   4   4   99.27    7.27
   0   4   4  107.73    7.00
   0   4  -4   78.91    7.25
   0   4   4  106.88    7.30
   1  -4   4  111.79    8.20
   1  -4   4  106.15    8.48
  -1  -4  -4  102.68    8.15
   1  -4   4  112.22    8.49
  -1  -4  -4  107.36    8.49
   1   4   4  104.16    8.49
  -1   4  -4  109.39    8.49
   1   4   4  108.42    8.52
   1   4   4  106.44    8.15
  -1   4  -4  109.75    8.48
   2  -4   4    8.47    0.96
  -2  -4  -4    9.01    1.00
   2  -4   4    8.24    1.00
  -2   4  -4    8.67    0.94
   2   4   4    8.09    1.01
  -2   4  -4    7.45    0.91
   2   4   4    7.57    0.99
  -3  -4  -4  182.36   14.73
   3  -4   4  188.25   14.71
   3  -4   4  193.98   14.72
   3   4   4  189.31   14.75
  -3   4  -4  198.85   14.71
   3   4   4  178.92   14.73
  -3   4  -4  185.41   14.71
  -4  -4  -4   26.39    2.21
   4   4   4   25.09    2.22
   4   4   4   25.58    2.24
   5  -4   4   28.66    2.65
  -5  -4  -4   34.68    2.71
   5   4   4   35.29    2.74
  -5   4  -4   30.97    2.61
   5   4   4   32.55    2.72
  -6  -4  -4    6.17    0.89
   6  -4   4    7.29    0.85
   6   4   4    5.67    0.82
   6   4   4    5.33    0.92
  -7  -4  -4   73.25    5.72
   7  -4   4   69.51    5.70
   7   4   4   74.28    5.78
   7   4   4   71.09    5.75
  -8  -4  -4    8.56    0.99
   8   4   4    9.03    1.20
   8   4   4   10.34    1.20
   9   4   4   87.16    7.17
   9   4   4   92.53    7.17
  10  -4   4    2.65    0.71
  10   4   4    2.14    0.71
  10   4   4    1.69    0.49
  11  -4   4   51.20    4.27
  11   4   4   54.20    4.32
  12  -4   4    0.92    0.78
  12   4   4    2.36    0.73
  14   5  -4    1.05    0.78
  13  -5  -4    2.52    1.03
  13   5  -4    4.38    0.99
  13   5  -4    4.36    0.93
  12  -5  -4    0.70    0.89
  12   5  -4    2.91    0.83
  12   5  -4    2.92    0.88
  11  -5  -4    1.85    0.85
  11   5  -4    2.27    0.79
  11   5  -4    2.45    0.78
  10  -5  -4    2.08    0.52
  10  -5  -4    2.60    0.82
  10  -5  -4    2.21    0.57
  10   5  -4    2.92    0.80
  10   5  -4    2.05    0.74
   9  -5  -4    1.54    0.51
   9  -5  -4    1.75    0.71
   9  -5  -4    1.04    0.54
   9   5  -4    1.15    0.64
   9   5  -4    1.64    0.70
   9   5  -4    1.78    0.71
  -8  -5   4   12.29    1.30
  -8  -5   4   11.90    1.43
   8   5  -4   13.08    1.38
   8   5  -4   12.60    1.39
   8   5  -4   13.03    1.44
   7  -5  -4    1.72    0.49
  -7  -5   4    2.73    0.61
   7  -5  -4    1.53    0.68
  -7  -5   4    4.10    0.71
   7   5  -4    3.04    0.70
   7   5  -4    3.25    0.66
   7   5  -4    3.86    0.70
  -6  -5   4    0.27    0.50
   6  -5  -4    0.23    0.39
  -6  -5   4    0.37    0.47
  -6  -5   4    0.59    0.51
   6  -5  -4    0.36    0.53
  -6   5   4   -0.14    0.13
   6   5  -4    0.48    0.54
   6   5  -4    0.21    0.55
  -6   5   4    0.03    0.40
   6   5  -4    0.03    0.48
   5  -5  -4   78.74    7.03
  -5  -5   4   97.66    7.05
  -5  -5   4   98.82    7.27
  -5  -5   4   99.20    7.26
   5  -5  -4   80.00    7.20
   5   5  -4   94.59    7.03
  -5   5   4   78.06    7.19
   5   5  -4  101.56    7.27
  -5   5   4   89.67    7.21
   5   5  -4   96.37    7.26
  -4  -5   4   27.19    2.33
  -4  -5   4   28.73    2.27
  -4  -5   4   28.73    2.35
   4  -5  -4   20.85    2.24
   4   5  -4   28.72    2.25
   4   5  -4   26.68    2.32
   4   5  -4   29.77    2.35
   3  -5  -4  104.06    9.14
  -3  -5   4  130.95    9.47
   3  -5  -4  105.87    9.43
  -3  -5   4  131.46    9.15
  -3  -5   4  126.89    9.46
   3   5  -4  131.87    9.15
   3   5  -4  128.22    9.46
  -3   5   4  100.77    9.43
  -2  -5   4   20.08    1.73
  -2  -5   4   18.31    1.61
  -2  -5   4   17.67    1.70
   2   5  -4   19.11    1.73
   2   5  -4   18.28    1.59
   2   5  -4   19.04    1.70
  -1  -5   4  131.21    9.69
  -1  -5   4  136.56   10.04
   1  -5  -4  109.80    9.67
  -1  -5   4  133.15   10.04
   1  -5  -4  113.07   10.02
   1   5  -4  131.96   10.03
   1   5  -4  133.61   10.04
   1   5  -4  130.49    9.69
   0  -5  -4   15.82    1.52
   0  -5   4   21.67    1.58
   0  -5   4   21.05    1.68
   0  -5  -4   15.26    1.66
   0  -5   4   20.76    1.70
   0   5  -4   21.31    1.69
   0   5  -4   20.11    1.66
   0   5   4   15.94    1.69
   0   5   4   14.73    1.66
  -1  -5  -4  271.80   24.18
   1  -5   4  349.40   25.08
   1  -5   4  354.50   24.24
   1  -5   4  331.61   25.08
  -1  -5  -4  304.82   25.08
  -1   5  -4  349.83   25.09
   1   5   4  292.64   25.09
   1   5   4  286.22   25.08
  -1   5  -4  352.36   25.08
   2  -5   4    7.44    0.93
   2  -5   4    6.84    0.94
  -2   5  -4    6.66    0.87
  -2   5  -4    8.15    0.92
   3  -5   4  104.83    9.12
   3  -5   4  107.76    9.12
  -3   5  -4  111.65    9.12
   3   5   4  132.28    9.17
   3   5   4  136.00    9.19
  -3   5  -4  105.14    9.11
   4  -5   4    6.88    0.89
  -4  -5  -4    9.02    0.97
   4  -5   4    5.91    0.90
  -4   5  -4    5.81    0.82
   4   5   4    9.37    1.05
   4   5   4    8.92    1.05
  -4   5  -4    6.35    0.85
   5  -5   4    6.06    0.79
  -5   5  -4    4.37    0.58
  -5   5  -4    6.26    0.71
  -6  -5  -4   20.44    1.77
   6   5   4   18.91    1.80
   6   5   4   18.89    1.82
  -7  -5  -4    1.70    0.50
   7  -5   4    0.86    0.50
   7   5   4    1.14    0.61
   7   5   4    0.84    0.65
   8   5   4    4.62    0.85
   8   5   4    4.74    0.82
   9   5   4    0.50    0.67
   9   5   4    0.42    0.71
  10  -5   4    6.14    0.98
  10   5   4    7.85    1.17
  11  -5   4    0.67    0.71
  11   5   4    0.44    0.72
  12  -5   4    4.48    0.94
  12   5   4    3.56    0.83
  13   5   4    0.00    0.73
  14   6  -4    4.85    0.97
  13  -6  -4    4.62    1.12
  13   6  -4    5.01    1.04
  13   6  -4    5.08    1.00
  12  -6  -4    0.31    0.84
  12   6  -4    2.10    0.82
  12   6  -4    2.25    0.85
  11  -6  -4    6.90    1.09
  11   6  -4    4.20    0.91
  11   6  -4    3.94    0.94
  10  -6  -4    4.98    0.90
  10   6  -4    2.69    0.81
  10   6  -4    2.68    0.78
   9  -6  -4   46.92    3.92
   9  -6  -4   50.84    3.86
  -9  -6   4   43.67    3.87
   9  -6  -4   49.48    3.85
   9   6  -4   48.61    3.96
   9   6  -4   43.21    3.82
   9   6  -4   48.60    3.97
  -8  -6   4    3.79    0.72
  -8  -6   4    4.22    0.79
   8   6  -4    4.51    0.83
   8   6  -4    4.85    0.82
   8   6  -4    4.23    0.77
   7  -6  -4   34.73    3.21
   7  -6  -4   37.54    3.19
  -7  -6   4   42.45    3.22
  -7  -6   4   38.56    3.23
   7   6  -4   39.97    3.17
   7   6  -4   41.40    3.28
   7   6  -4   37.29    3.26
  -6  -6   4   50.49    3.95
  -6  -6   4   44.71    4.04
  -6  -6   4   44.57    4.03
   6  -6  -4   55.97    4.02
   6  -6  -4   55.30    4.00
  -6   6   4   54.11    3.97
   6   6  -4   47.40    4.06
   6   6  -4   46.24    4.06
   6   6  -4   46.84    3.93
  -5  -6   4   67.19    4.89
  -5  -6   4   62.50    5.01
  -5  -6   4   64.69    5.02
   5  -6  -4   58.73    4.97
   5  -6  -4   58.43    4.88
   5   6  -4   67.48    5.03
   5   6  -4   62.51    5.02
   5   6  -4   65.66    4.87
  -5   6   4   57.12    4.95
  -5   6   4   58.76    4.96
  -4  -6   4    8.02    0.91
   4  -6  -4    6.48    0.93
  -4  -6   4    7.56    1.02
  -4  -6   4    7.67    0.99
   4  -6  -4    6.08    0.93
  -4   6   4    5.67    0.95
  -4   6   4    5.38    0.88
   4   6  -4    7.56    0.90
   4   6  -4    7.38    1.00
   4   6  -4    7.42    1.00
  -3  -6   4   41.52    3.23
  -3  -6   4   41.07    3.12
  -3  -6   4   40.55    3.23
   3  -6  -4   35.09    3.11
   3  -6  -4   36.96    3.21
   3   6  -4   42.51    3.23
   3   6  -4   42.75    3.24
  -3   6   4   33.26    3.18
   3   6  -4   40.08    3.09
  -3   6   4   35.80    3.20
  -2  -6   4  202.28   15.51
   2  -6  -4  195.74   15.49
   2  -6  -4  190.12   14.98
  -2  -6   4  205.25   14.99
  -2  -6   4  205.15   15.51
   2   6  -4  206.02   15.51
   2   6  -4  199.87   14.98
  -2   6   4  182.66   15.49
   2   6  -4  206.80   15.51
  -2   6   4  185.01   15.49
  -1  -6   4  100.24    8.13
  -1  -6   4   97.84    7.84
   1  -6  -4  108.49    8.13
  -1  -6   4  103.24    8.14
   1  -6  -4  108.01    7.84
   1   6  -4  105.28    8.13
  -1   6   4  103.90    8.14
   1   6  -4  101.83    8.13
  -1   6   4   97.23    8.11
   0  -6   4  259.06   19.84
   0  -6  -4  256.48   19.82
   0  -6  -4  264.73   20.55
   0  -6   4  280.79   20.55
   0  -6   4  276.25   20.56
   0   6   4  240.01   20.54
   0   6  -4  264.32   20.54
   0   6   4  254.17   20.56
   0   6  -4  270.43   20.54
  -1  -6  -4   53.93    4.49
  -1  -6  -4   53.60    4.25
   1  -6   4   59.52    4.48
   1  -6   4   56.31    4.48
  -1   6  -4   57.36    4.47
  -1   6  -4   58.23    4.47
   1   6   4   53.41    4.50
   1   6   4   53.04    4.49
  -2  -6  -4  149.42   12.09
   2  -6   4  156.33   12.08
   2  -6   4  151.43   12.08
   2   6   4  154.56   12.10
  -2   6  -4  150.48   12.07
   2   6   4  158.19   12.12
  -2   6  -4  157.33   12.07
   3  -6   4  278.82   21.57
   3  -6   4  286.65   21.57
  -3  -6  -4  270.32   21.58
   3   6   4  262.10   21.59
  -3   6  -4  270.98   21.55
   3   6   4  281.88   21.61
  -3   6  -4  282.43   21.55
  -4  -6  -4  407.43   28.84
   4  -6   4  329.25   28.79
   4  -6   4  345.08   28.79
  -4   6  -4  370.57   28.78
  -4   6  -4  343.51   28.78
   4   6   4  403.68   28.85
   4   6   4  386.90   28.84
   5  -6   4   18.81    1.69
   5  -6   4   17.78    1.69
  -5   6  -4   20.29    1.65
   6  -6   4   22.77    1.80
  -6  -6  -4   20.15    1.87
   6   6   4   17.69    1.86
   6   6   4   20.88    1.92
   7  -6   4   32.82    2.93
   7   6   4   39.79    3.07
   7   6   4   35.15    3.03
   8  -6   4    2.92    0.54
   8   6   4    1.35    0.74
   8   6   4    1.29    0.67
   9   6   4   27.91    2.53
   9   6   4   28.51    2.54
  10  -6   4    1.53    0.66
  10   6   4    1.79    0.76
  11  -6   4    5.88    0.95
  11   6   4    3.49    0.90
  12  -6   4    0.61    0.77
  12   6   4    0.97    0.77
  13   6   4   11.77    1.45
  14   7  -4    1.99    0.87
  13  -7  -4    1.55    0.96
  13   7  -4    1.51    0.84
  13   7  -4    1.24    0.88
  12   7  -4    8.79    1.35
  12   7  -4   10.25    1.37
  11  -7  -4    2.46    0.84
  11   7  -4    1.56    0.83
  11   7  -4    1.88    0.80
  10  -7  -4    5.14    0.99
  10  -7  -4    4.47    0.67
  10   7  -4    6.60    0.97
  10   7  -4    6.39    0.96
   9  -7  -4    0.83    0.49
   9  -7  -4    0.97    0.73
  -9  -7   4    1.29    0.57
   9   7  -4    1.19    0.71
   9   7  -4    2.10    0.71
   9   7  -4    0.84    0.74
  -8  -7   4   17.17    1.73
  -8  -7   4   15.60    1.64
   8   7  -4   17.75    1.77
   8   7  -4   16.94    1.73
   8   7  -4   18.46    1.68
  -7  -7   4   16.42    1.73
   7  -7  -4   20.19    1.78
  -7  -7   4   16.69    1.73
   7  -7  -4   20.67    1.71
   7   7  -4   17.01    1.76
   7   7  -4   18.26    1.70
  -7   7   4   18.34    1.56
   7   7  -4   17.44    1.79
   6  -7  -4    0.63    0.45
   6  -7  -4    0.72    0.54
  -6  -7   4    0.74    0.51
  -6  -7   4    0.10    0.55
  -6   7   4    0.60    0.44
   6   7  -4   -0.02    0.61
   6   7  -4    0.15    0.60
   6   7  -4    0.94    0.54
  -5  -7   4   14.34    1.44
  -5  -7   4   14.01    1.39
  -5  -7   4   14.36    1.49
   5   7  -4   14.27    1.48
   5   7  -4   13.53    1.36
   5   7  -4   15.12    1.52
   4  -7  -4    7.29    0.96
  -4  -7   4    7.32    1.01
  -4  -7   4    6.93    1.05
   4  -7  -4    7.43    1.03
  -4  -7   4    6.85    0.94
  -4   7   4    6.44    0.97
  -4   7   4    6.36    0.94
   4   7  -4    8.03    1.01
   4   7  -4    7.52    0.88
   4   7  -4    8.72    1.08
  -3  -7   4   89.44    7.32
   3  -7  -4   91.54    7.08
  -3  -7   4   93.46    7.33
   3  -7  -4   95.75    7.30
  -3  -7   4   93.45    7.08
   3   7  -4   88.11    7.06
   3   7  -4   90.08    7.32
   3   7  -4   93.15    7.33
  -3   7   4   91.72    7.30
  -3   7   4   94.71    7.31
  -2  -7   4   23.14    2.12
  -2  -7   4   25.51    2.14
  -2  -7   4   23.64    2.01
   2   7  -4   23.77    2.10
   2   7  -4   23.02    2.11
   2   7  -4   23.90    1.99
  -1  -7   4   23.73    2.15
  -1  -7   4   25.06    2.03
  -1  -7   4   24.21    2.15
   1   7  -4   24.07    2.12
   1   7  -4   24.80    2.13
   0  -7   4   48.82    3.84
   0  -7   4   50.45    4.01
   0  -7   4   47.75    4.00
   0   7  -4   47.59    3.99
   0   7  -4   51.19    4.01
   1  -7   4  110.12    8.04
  -1  -7  -4   93.11    7.70
   1  -7   4  115.43    8.05
  -1  -7  -4   93.19    8.05
  -1  -7  -4   93.45    8.03
   1   7   4   93.07    8.04
  -1   7  -4  110.73    8.03
   1   7   4   93.62    8.06
  -1   7  -4  112.08    8.04
   2  -7   4    1.14    0.53
   2  -7   4    1.12    0.54
  -2   7  -4    1.11    0.49
   2   7   4    2.26    0.59
  -2   7  -4    1.38    0.47
   2   7   4    3.25    0.64
   3  -7   4  161.70   13.14
  -3  -7  -4  179.01   13.18
   3  -7   4  162.91   13.14
  -3   7  -4  162.73   13.13
   3   7   4  171.65   13.17
   3   7   4  179.50   13.19
  -3   7  -4  156.57   13.13
   4  -7   4   47.49    4.38
   4  -7   4   50.32    4.38
  -4   7  -4   55.75    4.37
   4   7   4   66.04    4.47
   5  -7   4   52.92    3.87
  -5  -7  -4   42.82    3.89
   5  -7   4   53.38    3.86
   5   7   4   40.66    3.91
  -5   7  -4   53.84    3.82
   5   7   4   41.33    3.92
   6  -7   4    6.49    0.86
   6  -7   4    6.57    0.94
   6   7   4    6.27    0.92
   6   7   4    6.92    1.10
   7   7   4    9.03    1.26
   7   7   4    9.72    1.29
   8   7   4   20.97    2.09
   8   7   4   23.72    2.14
   9   7   4    6.18    0.97
   9   7   4    6.08    1.00
  10   7   4   10.60    1.43
  11  -7   4    0.70    0.71
  11   7   4    0.42    0.78
  12  -7   4    2.53    0.87
  12   7   4    4.60    0.95
  13   7   4    9.35    1.33
  14   8  -4    0.24    0.85
  13   8  -4    2.57    0.93
  13   8  -4    3.87    0.97
  12  -8  -4    0.18    0.81
  12   8  -4    0.76    0.84
  12   8  -4    0.40    0.79
  11  -8  -4   11.65    1.43
  11   8  -4    9.03    1.36
  11   8  -4    7.93    1.28
  10  -8  -4    2.45    0.86
  10  -8  -4    1.59    0.59
  10   8  -4    2.37    0.83
  10   8  -4    2.47    0.77
   9  -8  -4   12.75    1.46
   9  -8  -4   13.57    1.29
  -9  -8   4   11.40    1.34
   9   8  -4   12.28    1.39
   9   8  -4   11.13    1.45
   9   8  -4   12.26    1.52
  -8  -8   4    0.73    0.59
  -8  -8   4    1.66    0.63
   8  -8  -4    1.13    0.50
   8  -8  -4    0.59    0.68
   8   8  -4    1.18    0.74
   8   8  -4    2.00    0.68
   8   8  -4    1.12    0.72
   7  -8  -4    7.34    0.95
  -7  -8   4    5.33    0.81
   7  -8  -4    6.67    1.02
  -7  -8   4    4.98    0.85
   7   8  -4    5.07    0.83
   7   8  -4    4.74    0.91
   7   8  -4    4.82    0.91
  -6  -8   4   12.38    1.26
  -6  -8   4    8.87    1.22
   6   8  -4   10.07    1.28
   6   8  -4   10.86    1.34
   6   8  -4   10.85    1.17
  -5  -8   4   12.58    1.28
   5  -8  -4   12.87    1.28
  -5  -8   4   10.73    1.33
   5  -8  -4   14.08    1.30
  -5  -8   4   11.10    1.30
   5   8  -4   11.44    1.22
  -5   8   4   12.84    1.28
   5   8  -4   11.34    1.39
   5   8  -4   11.32    1.32
  -5   8   4   12.05    1.22
  -4  -8   4  143.64   11.61
  -4  -8   4  138.80   11.60
  -4  -8   4  142.24   11.21
   4   8  -4  143.02   11.61
  -4   8   4  176.38   11.57
   4   8  -4  142.04   11.20
   4   8  -4  143.83   11.60
  -3  -8   4   22.51    1.96
  -3  -8   4   22.88    2.09
  -3  -8   4   24.32    2.09
   3   8  -4   23.51    2.10
   3   8  -4   22.32    1.94
   3   8  -4   23.19    2.07
  -2  -8   4   94.49    7.73
  -2  -8   4   92.30    7.45
  -2  -8   4   90.84    7.73
   2   8  -4   92.31    7.72
  -2   8   4  120.08    7.73
   2   8  -4   93.79    7.73
   1  -8  -4    2.93    0.49
   1  -8  -4    3.92    0.59
   1  -8  -4    2.79    0.60
  -1   8   4    2.53    0.61
  -1   8   4    2.61    0.62
   0  -8   4  166.19   13.98
   0  -8  -4  183.66   13.49
   0  -8   4  179.22   13.99
   0  -8   4  171.45   13.51
   0  -8  -4  184.54   13.99
   0  -8  -4  180.30   14.00
   0   8  -4  173.93   13.99
   0   8   4  181.10   14.00
   0   8   4  182.95   14.00
   0   8  -4  179.32   13.99
  -1  -8  -4    2.60    0.64
  -1  -8  -4    4.18    0.65
   1  -8   4    5.91    0.87
  -1  -8  -4    3.62    0.56
  -1   8  -4    5.90    0.84
   1   8   4    2.73    0.68
  -1   8  -4    5.90    0.86
   1   8   4    3.16    0.71
   2  -8   4  202.12   14.93
  -2  -8  -4  182.80   14.95
   2  -8   4  190.43   14.92
  -2  -8  -4  188.15   14.35
  -2  -8  -4  192.89   14.94
   2   8   4  179.72   14.93
  -2   8  -4  196.78   14.92
  -2   8  -4  191.76   14.91
   2   8   4  188.54   14.95
  -3  -8  -4   85.87    6.73
   3  -8   4   79.07    6.70
   3  -8   4   83.21    6.70
  -3  -8  -4   92.63    6.76
   3   8   4   85.64    6.74
   3   8   4   87.31    6.75
  -3   8  -4   75.38    6.67
  -3   8  -4   86.72    6.69
   4  -8   4  108.14    8.51
  -4  -8  -4  106.25    8.53
   4  -8   4  109.36    8.50
   4   8   4  103.94    8.54
  -4   8  -4  112.15    8.48
  -4   8  -4  102.37    8.47
   4   8   4  112.02    8.56
   5  -8   4    9.50    1.23
   5  -8   4   11.67    1.19
  -5   8  -4   11.99    1.14
   5   8   4   14.51    1.37
   6  -8   4   52.13    3.73
   6  -8   4   49.03    3.73
   6   8   4   42.21    3.82
   6   8   4   38.85    3.79
   7  -8   4   65.39    5.92
   7   8   4   80.09    6.05
   7   8   4   79.55    6.04
   8  -8   4    6.31    0.82
   8   8   4    4.68    0.93
   8   8   4    4.26    0.89
   9   8   4   41.19    3.66
   9   8   4   45.55    3.71
  10   8   4    4.80    0.99
  11  -8   4   11.85    1.43
  11   8   4   11.19    1.50
  12  -8   4   -0.16    0.72
  12   8   4   -0.45    0.82
  13   8   4   12.32    1.57
  14   8   4    7.96    1.31
  14   9  -4    2.87    0.96
  13   9  -4    0.18    0.89
  12  -9  -4    1.42    0.90
  12   9  -4    3.54    0.95
  12   9  -4    3.04    0.88
  11  -9  -4    0.20    0.81
  11   9  -4    0.08    0.73
  11   9  -4    0.27    0.85
  10   9  -4    9.17    1.37
  10   9  -4    9.75    1.26
   9  -9  -4    0.30    0.70
   9  -9  -4    0.12    0.47
   9   9  -4    0.37    0.73
   9   9  -4    0.29    0.74
   9   9  -4    1.12    0.66
  -8  -9   4   17.87    1.82
  -8  -9   4   18.39    1.83
   8   9  -4   22.03    2.01
   8   9  -4   18.20    1.79
   8   9  -4   18.84    1.89
   7  -9  -4   29.06    2.97
   7   9  -4   39.49    2.96
   7   9  -4   40.05    3.11
  -6  -9   4   18.97    1.74
  -6  -9   4   18.45    1.80
   6   9  -4   18.39    1.71
   6   9  -4   17.00    1.81
   6   9  -4   19.84    1.85
   5  -9  -4   65.51    6.00
  -5  -9   4   85.60    6.25
   5  -9  -4   71.14    6.15
  -5  -9   4   88.30    6.02
  -5   9   4   73.82    6.15
   5   9  -4   87.12    6.25
   5   9  -4   79.40    6.22
  -5   9   4   66.71    6.13
   5   9  -4   79.86    5.99
  -4  -9   4    2.62    0.66
  -4  -9   4    3.12    0.70
  -4  -9   4    2.85    0.57
   4  -9  -4    2.09    0.53
   4  -9  -4    2.87    0.59
  -4   9   4    1.73    0.59
  -4   9   4    1.28    0.59
   4   9  -4    2.42    0.66
   4   9  -4    3.09    0.58
   4   9  -4    3.17    0.73
   3  -9  -4  131.05   10.30
   3  -9  -4  143.06   10.64
  -3  -9   4  140.34   10.68
  -3  -9   4  134.14   10.29
  -3  -9   4  129.17   10.66
  -3   9   4  138.57   10.65
   3   9  -4  139.79   10.68
   3   9  -4  130.61   10.28
   3   9  -4  133.20   10.67
  -3   9   4  130.28   10.63
   2  -9  -4   25.84    2.22
   2  -9  -4   25.55    2.22
   2  -9  -4   25.86    2.11
  -2   9   4   25.55    2.22
  -2   9   4   23.66    2.21
   1  -9  -4   11.26    1.19
   1  -9  -4   11.47    1.07
   1  -9  -4    9.72    1.20
  -1   9   4   10.43    1.24
  -1   9   4   10.49    1.25
   0  -9  -4   17.94    1.66
   0  -9   4   15.71    1.62
   0  -9  -4   16.76    1.45
   0  -9   4   17.13    1.51
   0  -9  -4   16.36    1.60
   0  -9   4   17.09    1.63
   0   9  -4   16.90    1.61
   0   9  -4   16.38    1.62
   0   9   4   17.11    1.64
   0   9   4   17.29    1.67
  -1  -9  -4    0.66    0.32
  -1  -9  -4    0.59    0.48
  -1  -9  -4    0.53    0.48
   1  -9   4    1.12    0.54
   1  -9   4    0.59    0.54
  -1   9  -4    0.92    0.51
   1   9   4    0.45    0.55
   1   9   4    0.27    0.57
  -1   9  -4    0.72    0.51
  -2  -9  -4   15.77    1.20
  -2  -9  -4   15.46    1.50
   2  -9   4   12.68    1.43
  -2  -9  -4   17.15    1.48
   2  -9   4   12.68    1.44
   2   9   4   15.53    1.53
  -2   9  -4   12.23    1.39
  -2   9  -4   13.70    1.42
   2   9   4   14.17    1.48
   3  -9   4   29.27    2.51
  -3   9  -4   28.43    2.48
  -3   9  -4   31.05    2.50
   4  -9   4    0.70    0.53
   4  -9   4    0.69    0.52
  -4  -9  -4    1.99    0.60
  -4  -9  -4    1.09    0.52
  -4   9  -4    0.98    0.44
  -4   9  -4    0.62    0.44
   4   9   4    1.23    0.65
   4   9   4    0.99    0.66
   5  -9   4    0.97    0.51
   5  -9   4    1.12    0.54
  -5   9  -4    1.14    0.41
   5   9   4    0.39    0.69
  -5   9  -4    0.50    0.29
   5   9   4    0.68    0.70
   6  -9   4   29.37    2.50
   6  -9   4   28.66    2.53
   6   9   4   31.68    2.66
   6   9   4   29.53    2.65
   7  -9   4    1.12    0.58
   7  -9   4    1.24    0.56
   7   9   4    0.34    0.74
   7   9   4    0.98    0.79
   8  -9   4    0.07    0.53
   8   9   4    0.89    0.80
   8   9   4   -0.27    0.74
   9   9   4    0.08    0.79
  10   9   4   17.74    1.89
  11  -9   4    2.24    0.80
  11   9   4    2.35    0.93
  12  -9   4    2.34    0.88
  12   9   4    3.74    0.97
  13  -9   4    0.83    0.86
  13   9   4    2.93    0.96
  14   9   4    0.08    0.81
  14  10  -4    0.28    0.90
  13  10  -4    0.73    0.93
  12 -10  -4    1.28    0.90
  12  10  -4    2.31    0.84
  12  10  -4    3.61    1.01
  11 -10  -4    4.36    1.01
  11  10  -4    2.25    0.80
  11  10  -4    2.08    0.95
  10  10  -4    4.58    0.86
  10  10  -4    4.37    1.00
   9 -10  -4   10.12    1.22
   9 -10  -4    8.86    1.37
   9  10  -4   11.25    1.27
   9  10  -4   11.18    1.40
  -8 -10   4    4.46    0.82
  -8 -10   4    5.69    0.90
   8  10  -4    6.22    1.00
   8  10  -4    5.52    0.88
   8  10  -4    5.75    0.99
  -7 -10   4   25.82    2.32
  -7 -10   4   25.39    2.40
   7 -10  -4   29.84    2.31
   7 -10  -4   26.88    2.36
   7  10  -4   23.70    2.40
  -7  10   4   26.28    2.23
  -7  10   4   26.05    2.20
   7  10  -4   26.52    2.47
   7  10  -4   26.31    2.28
  -6 -10   4    9.37    1.30
  -6 -10   4   10.67    1.19
   6  10  -4    9.38    1.11
   6  10  -4    9.03    1.40
   6  10  -4    9.00    1.31
  -5 -10   4    6.55    0.95
  -5 -10   4    5.37    0.85
   5 -10  -4    4.93    0.70
   5 -10  -4    5.55    0.78
   5  10  -4    5.63    0.86
  -5  10   4    3.74    0.72
   5  10  -4    5.47    0.89
   5  10  -4    5.42    0.87
  -5  10   4    3.53    0.71
  -4 -10   4   15.73    1.67
   4 -10  -4   18.75    1.58
   4 -10  -4   17.25    1.62
  -4 -10   4   17.80    1.59
  -4  10   4   18.16    1.67
   4  10  -4   14.86    1.67
   4  10  -4   17.30    1.74
   4  10  -4   15.97    1.54
  -4  10   4   16.74    1.64
   3 -10  -4    4.61    0.66
   3 -10  -4    4.09    0.63
   3 -10  -4    4.90    0.69
  -3 -10   4    2.06    0.58
  -3  10   4    3.44    0.70
   3  10  -4    1.71    0.71
  -3  10   4    3.81    0.67
   2 -10  -4   51.91    3.91
  -2 -10   4   48.83    4.07
   2 -10  -4   52.36    4.06
  -2 -10   4   48.36    3.91
  -2 -10   4   46.06    4.08
   2 -10  -4   49.09    4.07
  -2  10   4   50.52    4.07
   2  10  -4   50.54    4.11
  -2  10   4   50.31    4.08
   2  10  -4   48.89    4.09
  -1 -10   4    1.74    0.64
  -1 -10   4    1.57    0.60
   1 -10  -4    2.73    0.57
   1 -10  -4    2.34    0.48
   1 -10  -4    1.97    0.56
  -1 -10   4    2.40    0.50
  -1  10   4    2.14    0.64
  -1  10   4    1.97    0.65
   1  10  -4    1.23    0.62
   1  10  -4    1.54    0.63
   0 -10  -4   15.78    1.70
   0 -10   4   19.08    1.75
   0 -10   4   19.04    1.63
   0 -10   4   20.09    1.77
   0 -10  -4   16.93    1.76
   0  10  -4   20.55    1.78
   0  10  -4   19.71    1.73
   0  10   4   17.09    1.80
   0  10   4   16.32    1.74
   1 -10   4   42.30    3.53
   1 -10   4   44.05    3.53
  -1  10  -4   41.56    3.52
  -1  10  -4   42.59    3.52
   2 -10   4   85.21    6.49
  -2 -10  -4   76.10    6.50
   2 -10   4   90.53    6.49
  -2 -10  -4   78.81    6.50
  -2  10  -4   90.11    6.49
   2  10   4   73.75    6.51
  -2  10  -4   83.65    6.47
   2  10   4   71.29    6.49
   3 -10   4    1.71    0.59
  -3 -10  -4    0.53    0.54
   3 -10   4    1.44    0.56
  -3 -10  -4    1.05    0.52
  -3  10  -4    1.61    0.53
   3  10   4    0.18    0.65
  -3  10  -4    1.96    0.54
   3  10   4    0.81    0.66
   4 -10   4   14.37    1.55
  -4 -10  -4   17.75    1.66
   4 -10   4   15.89    1.56
   4  10   4   17.53    1.73
   4  10   4   17.01    1.66
  -4  10  -4   14.74    1.49
  -4  10  -4   16.74    1.53
  -5 -10  -4    8.67    1.16
   5 -10   4    5.83    0.96
   5 -10   4    6.51    0.96
  -5  10  -4    5.64    0.83
   5  10   4    7.59    1.13
  -5  10  -4    5.57    0.80
   5  10   4    7.35    1.17
   6 -10   4   29.96    2.59
   6 -10   4   29.94    2.61
   6  10   4   31.21    2.71
  -6  10  -4   28.57    2.51
   6  10   4   34.18    2.76
   7 -10   4    1.08    0.56
   7 -10   4    0.63    0.60
   7  10   4    3.68    0.86
   7  10   4    3.38    0.82
   8 -10   4   35.05    2.98
   8  10   4   37.94    3.21
   8  10   4   35.50    3.16
   9  10   4   23.87    2.31
  10  10   4    4.35    1.00
  11  10   4    7.38    1.21
  12 -10   4   -0.03    0.76
  12  10   4   -0.34    0.85
  13 -10   4    2.55    0.94
  13  10   4    2.70    1.01
  14  10   4    0.92    0.90
  13  11  -4   -0.96    0.89
  12  11  -4    6.47    1.08
  12  11  -4    7.20    1.24
  11 -11  -4    5.11    1.06
  11  11  -4    3.20    0.85
  11  11  -4    2.77    1.00
  10  11  -4   37.29    3.19
  10  11  -4   39.07    3.37
   9 -11  -4    4.48    0.92
   9  11  -4    3.64    0.97
   9  11  -4    3.76    0.80
   8 -11  -4   27.22    2.37
   8 -11  -4   24.45    2.41
  -8 -11   4   28.03    2.47
   8  11  -4   26.56    2.34
   8  11  -4   25.72    2.49
   8  11  -4   30.12    2.56
  -7 -11   4    4.45    0.82
   7 -11  -4    6.78    1.02
   7 -11  -4    5.10    0.89
  -7 -11   4    5.35    0.93
  -7  11   4    4.68    0.77
   7  11  -4    5.89    0.86
   7  11  -4    6.28    1.04
   7  11  -4    5.58    0.98
  -6 -11   4    4.51    0.87
   6 -11  -4    2.36    0.64
   6 -11  -4    2.51    0.71
  -6 -11   4    4.97    0.75
   6  11  -4    3.71    0.87
   6  11  -4    4.10    0.89
   6  11  -4    4.81    0.75
   5 -11  -4   30.43    2.28
  -5 -11   4   25.79    2.22
   5 -11  -4   27.20    2.23
  -5 -11   4   22.89    2.29
   5  11  -4   25.02    2.18
  -5  11   4   25.34    2.23
   5  11  -4   24.57    2.36
   5  11  -4   21.54    2.29
  -4 -11   4    1.24    0.68
   4 -11  -4    0.56    0.51
   4 -11  -4    0.45    0.50
   4 -11  -4    0.57    0.54
  -4 -11   4    1.74    0.56
   4  11  -4    1.33    0.68
  -4  11   4    0.29    0.56
  -4  11   4    0.57    0.55
   4  11  -4    1.17    0.67
   3 -11  -4    2.30    0.58
   3 -11  -4    2.39    0.58
   3 -11  -4    2.29    0.55
  -3  11   4    1.80    0.63
  -3  11   4    1.63    0.62
   2 -11  -4    5.17    0.77
   2 -11  -4    6.19    0.79
  -2 -11   4    8.24    1.03
  -2  11   4    4.73    0.84
  -2  11   4    5.21    0.82
   1 -11  -4   14.77    1.47
  -1 -11   4   15.49    1.55
  -1 -11   4   14.51    1.41
  -1 -11   4   14.18    1.52
   1 -11  -4   15.07    1.53
   1  11  -4   15.76    1.58
  -1  11   4   13.91    1.58
  -1  11   4   14.57    1.56
   1  11  -4   14.95    1.54
   0 -11   4   23.58    2.02
   0 -11   4   21.39    2.14
   0 -11   4   23.25    2.14
   0  11  -4   25.94    2.17
   0  11  -4   23.95    2.14
  -1 -11  -4   22.55    2.20
   1 -11   4   26.32    2.22
   1 -11   4   26.15    2.21
  -1 -11  -4   23.50    2.20
  -1  11  -4   27.07    2.20
  -1  11  -4   25.87    2.21
   1  11   4   24.20    2.26
   1  11   4   22.07    2.23
  -2 -11  -4    3.79    0.68
   2 -11   4    1.89    0.65
   2 -11   4    1.74    0.61
  -2  11  -4    2.68    0.63
   2  11   4    3.12    0.76
  -2  11  -4    1.71    0.59
   2  11   4    2.74    0.77
  -3 -11  -4   29.12    2.68
   3 -11   4   33.07    2.69
   3 -11   4   34.02    2.66
   3  11   4   29.08    2.76
  -3  11  -4   33.74    2.66
  -3  11  -4   31.16    2.63
   3  11   4   26.79    2.71
   4 -11   4    6.50    0.94
   4 -11   4    4.32    0.78
  -4  11  -4    4.70    0.70
  -4  11  -4    6.01    0.88
  -5 -11  -4    7.51    1.24
   5 -11   4   10.00    1.15
   5 -11   4   11.65    1.16
   5  11   4    6.57    1.11
   5  11   4    7.14    1.25
  -5  11  -4   10.04    1.08
  -5  11  -4   10.27    1.04
  -6 -11  -4   28.90    2.40
   6 -11   4   25.36    2.23
   6 -11   4   24.68    2.24
  -6  11  -4   24.77    2.14
   6  11   4   28.67    2.42
  -6  11  -4   23.03    2.11
   6  11   4   25.02    2.35
   7 -11   4    7.63    1.08
   7 -11   4    9.17    1.08
   7  11   4    7.71    1.17
   7  11   4    8.97    1.40
   8 -11   4    0.37    0.57
   8 -11   4    0.67    0.56
   8  11   4    0.82    0.86
   8  11   4    0.54    0.78
   9  11   4    7.43    1.18
  10  11   4   12.42    1.61
  11  11   4    0.93    0.87
  12 -11   4    0.46    0.81
  12  11   4   -0.07    0.91
  13 -11   4    1.32    0.85
  13  11   4    1.07    0.92
  13  12  -4   -0.54    0.94
  12  12  -4    2.16    1.01
  12  12  -4    2.08    0.86
  11 -12  -4    8.25    1.26
  11  12  -4    5.66    1.02
  11  12  -4    6.76    1.20
  10 -12  -4    6.22    1.13
  10  12  -4    5.35    1.14
  10  12  -4    5.81    0.97
   9 -12  -4    5.64    1.03
   9  12  -4    5.11    1.05
   9  12  -4    5.08    0.90
  -8 -12   4    0.02    0.68
   8 -12  -4    0.16    0.52
   8 -12  -4    0.43    0.67
   8  12  -4   -0.61    0.79
   8  12  -4    0.20    0.80
   8  12  -4    0.72    0.65
  -7 -12   4   38.81    3.42
   7 -12  -4   40.21    3.35
  -7 -12   4   37.41    3.30
   7 -12  -4   43.19    3.35
   7  12  -4   39.87    3.27
   7  12  -4   36.73    3.44
   7  12  -4   43.25    3.53
   6 -12  -4    1.44    0.66
   6 -12  -4    1.20    0.55
  -6 -12   4    1.32    0.57
  -6 -12   4    0.60    0.71
   6  12  -4    0.25    0.58
   6  12  -4   -0.34    0.73
  -6  12   4    1.09    0.55
   6  12  -4    0.73    0.76
   5 -12  -4   13.87    1.47
  -5 -12   4   13.45    1.54
   5 -12  -4   12.97    1.39
  -5 -12   4   15.03    1.42
  -5  12   4   11.56    1.40
   5  12  -4   13.16    1.58
   5  12  -4   12.05    1.51
  -4 -12   4    2.15    0.74
  -4 -12   4    3.61    0.65
   4 -12  -4    6.22    0.95
   4  12  -4    3.51    0.81
   4  12  -4    3.19    0.81
  -3 -12   4    1.51    0.71
  -3 -12   4    2.97    0.60
   3  12  -4    1.60    0.70
   3  12  -4    1.67    0.73
  -2 -12   4    8.29    1.02
  -2 -12   4    7.06    1.14
  -2 -12   4    7.95    1.17
   2  12  -4    7.16    1.02
   2  12  -4    7.00    1.13
   1 -12  -4    6.67    0.80
  -1 -12   4    4.71    0.83
   1 -12  -4    5.96    0.93
  -1 -12   4    4.75    0.85
  -1 -12   4    5.57    0.76
   1  12  -4    4.81    0.86
  -1  12   4    6.41    0.92
  -1  12   4    5.71    0.88
   1  12  -4    6.16    0.89
   0 -12  -4   27.75    2.42
   0 -12  -4   26.45    2.42
   0  12   4   27.28    2.45
   0  12   4   27.82    2.49
   1 -12   4   23.37    2.23
   1 -12   4   24.66    2.25
  -1  12  -4   26.97    2.30
  -1  12  -4   25.66    2.26
   2 -12   4  103.59    7.82
   2 -12   4   99.29    7.83
  -2 -12  -4   95.97    7.86
  -2 -12  -4   95.00    7.83
   2  12   4   94.05    7.86
  -2  12  -4   99.18    7.81
   2  12   4   92.83    7.85
  -2  12  -4  105.66    7.83
  -3 -12  -4   49.65    3.73
   3 -12   4   42.75    3.65
   3 -12   4   39.12    3.64
   3  12   4   48.09    3.74
   3  12   4   44.96    3.70
  -3  12  -4   40.94    3.63
   4 -12   4   19.74    1.90
  -4 -12  -4   21.36    1.96
   4 -12   4   21.96    1.91
   4  12   4   18.49    1.97
  -4  12  -4   20.41    1.85
   4  12   4   20.80    2.04
   5 -12   4    4.98    0.78
   5 -12   4    3.98    0.78
  -5  12  -4    4.32    0.67
  -6 -12  -4    5.87    0.97
   6 -12   4    8.72    1.04
   6  12   4    5.73    1.03
  -6  12  -4    6.04    0.76
   6  12   4    5.60    1.04
   7  12   4    1.64    0.86
   7  12   4    2.31    0.88
   8 -12   4    2.73    0.62
   8 -12   4    2.34    0.63
   8  12   4    0.71    0.81
   8  12   4    0.94    0.83
   9 -12   4    4.65    0.70
   9  12   4    1.77    0.92
  10  12   4    0.83    0.88
  11  12   4    0.78    0.87
  12 -12   4   -0.48    0.76
  12  12   4    0.12    0.92
  13  12   4    0.60    0.96
  13  13  -4    0.94    0.99
  12  13  -4   10.25    1.59
  11 -13  -4    2.81    0.97
  11  13  -4    1.68    0.82
  11  13  -4    3.07    1.06
  10 -13  -4   16.53    1.92
  10  13  -4   18.48    1.81
  10  13  -4   19.17    1.99
   9 -13  -4    3.61    0.89
   9  13  -4    2.03    0.95
   9  13  -4    2.70    0.79
  -8 -13   4    2.34    0.80
   8 -13  -4    2.35    0.77
   8  13  -4    2.26    0.91
   8  13  -4    2.92    0.74
   8  13  -4    1.59    0.88
  -7 -13   4    5.37    0.94
  -7 -13   4    4.97    0.80
   7  13  -4    5.76    1.04
   7  13  -4    5.32    0.86
   7  13  -4    4.37    1.00
  -6 -13   4   30.08    2.68
   6  13  -4   28.10    2.68
   6  13  -4   30.63    2.74
  -5 -13   4   25.16    2.29
   5 -13  -4   24.86    2.17
  -5 -13   4   24.78    2.11
   5 -13  -4   23.61    2.14
   5 -13  -4   23.09    2.20
   5  13  -4   22.22    2.29
   5  13  -4   22.97    2.24
  -5  13   4   22.25    2.14
   4 -13  -4   27.25    2.27
   4 -13  -4   24.43    2.26
   4 -13  -4   24.44    2.17
  -4  13   4   24.09    2.25
  -3 -13   4    0.16    0.48
   3 -13  -4    1.11    0.58
  -3 -13   4   -0.08    0.67
   3 -13  -4    0.48    0.53
   3  13  -4   -0.08    0.69
   3  13  -4    0.06    0.69
  -3  13   4    0.62    0.68
   2 -13  -4    3.71    0.70
   2 -13  -4    3.78    0.66
  -2 -13   4    2.21    0.73
  -2 -13   4    2.10    0.77
  -2 -13   4    3.11    0.62
   2  13  -4    2.51    0.77
   2  13  -4    2.32    0.76
  -2  13   4    3.08    0.79
   1 -13  -4    0.22    0.58
  -1 -13   4    0.66    0.62
   1 -13  -4    0.20    0.50
  -1 -13   4    0.50    0.46
  -1 -13   4    0.42    0.64
  -1  13   4    0.09    0.66
   1  13  -4    0.55    0.65
   1  13  -4    0.49    0.65
   0 -13  -4    7.02    1.24
   0 -13   4   12.00    1.28
   0 -13  -4    7.99    1.28
   0 -13   4   13.01    1.30
   0  13   4    8.31    1.31
   0  13  -4   11.55    1.26
  -1 -13  -4    4.78    0.76
  -1 -13  -4    4.72    0.81
   1  13   4    3.90    0.88
   1  13   4    4.08    0.86
   2 -13   4   44.75    4.11
   2 -13   4   50.09    4.14
  -2 -13  -4   53.62    4.18
   2  13   4   49.62    4.18
   2  13   4   51.69    4.21
  -2  13  -4   50.92    4.13
   3 -13   4   19.18    1.63
   3 -13   4   18.20    1.63
  -3 -13  -4   11.97    1.62
   3  13   4   11.66    1.74
  -3  13  -4   17.84    1.59
  -4 -13  -4    2.65    0.72
   4 -13   4    1.14    0.63
   4 -13   4    0.37    0.64
   4  13   4    2.00    0.82
  -4  13  -4    1.37    0.59
   4  13   4    2.10    0.80
  -5 -13  -4   24.63    2.60
   5 -13   4   33.73    2.58
  -5  13  -4   32.08    2.49
   5  13   4   24.56    2.66
   6 -13   4   15.05    1.51
   6 -13   4   15.07    1.50
  -6 -13  -4   12.98    1.62
   6  13   4   12.15    1.75
  -7 -13  -4    3.35    0.82
   7  13   4    2.78    0.92
   7  13   4    2.39    0.87
   8 -13   4   20.22    1.87
   8  13   4   19.29    2.05
   9 -13   4    7.42    1.03
   9  13   4    7.54    1.27
  10  13   4    4.23    1.13
  11  13   4    0.29    0.90
  12 -13   4    3.96    1.03
  12  13   4    4.78    1.18
  12  14  -4    1.85    1.06
  11  14  -4   -0.09    0.95
  11  14  -4    0.93    0.80
  10 -14  -4    5.03    1.03
  10  14  -4    2.57    1.03
  10  14  -4    1.83    0.81
   9 -14  -4    0.10    0.70
   9  14  -4    0.41    0.92
   8 -14  -4   28.11    2.39
  -8 -14   4   24.63    2.42
   8  14  -4   24.29    2.45
   7 -14  -4    1.04    0.69
   7 -14  -4    0.57    0.61
  -7 -14   4    0.50    0.74
   7  14  -4    0.20    0.82
   6 -14  -4    3.23    0.69
   6 -14  -4    3.40    0.77
  -6 -14   4    0.79    0.78
  -6 -14   4    1.29    0.61
   6  14  -4    1.00    0.85
  -6  14   4    2.41    0.66
  -5 -14   4   12.48    1.35
   5 -14  -4   11.73    1.43
   5 -14  -4   13.57    1.39
  -5 -14   4   10.60    1.50
   5 -14  -4   11.14    1.34
  -5  14   4   11.86    1.38
   5  14  -4    9.61    1.48
   4 -14  -4   52.99    4.03
  -4 -14   4   46.05    4.08
   4 -14  -4   47.40    4.02
  -4 -14   4   49.62    3.91
   4  14  -4   46.55    4.08
  -4  14   4   47.84    4.02
   3 -14  -4   31.22    2.55
   3 -14  -4   32.10    2.54
  -3 -14   4   26.36    2.43
  -3 -14   4   24.37    2.57
  -3  14   4   31.46    2.58
   3  14  -4   25.24    2.57
   2 -14  -4    8.07    1.15
   2 -14  -4    8.96    1.22
  -2  14   4    8.06    1.30
   1 -14  -4   15.35    1.94
   1 -14  -4   16.00    1.91
  -1 -14   4   22.64    1.99
  -1 -14   4   22.32    1.85
  -1 -14   4   22.53    2.00
   1  14  -4   22.09    1.98
   0 -14  -4    4.32    0.73
   0 -14   4    2.20    0.71
   0 -14   4    2.02    0.70
   0 -14  -4    4.48    0.80
   0  14  -4    2.26    0.75
   0  14   4    3.01    0.84
   1 -14   4   17.38    1.81
   1 -14   4   19.58    1.85
  -1  14  -4   18.95    1.83
   2 -14   4    8.36    1.21
   2 -14   4    8.06    1.14
  -2 -14  -4    7.64    1.21
   2  14   4    6.30    1.09
  -2  14  -4    8.05    1.12
   3 -14   4   38.93    3.10
   3 -14   4   36.00    3.10
  -3 -14  -4   35.77    3.17
  -3  14  -4   37.51    3.09
   3  14   4   32.84    3.15
   4 -14   4   15.84    1.80
   4 -14   4   17.00    1.84
  -4 -14  -4   21.77    1.92
   4  14   4   20.11    1.96
   4  14   4   19.92    1.93
  -4  14  -4   17.76    1.77
  -5 -14  -4    5.38    0.95
   5 -14   4    5.11    0.90
   5 -14   4    5.15    0.84
  -5  14  -4    4.99    0.75
   5  14   4    4.36    0.99
   5  14   4    4.74    1.04
   6 -14   4   -0.30    0.65
   6 -14   4   -0.01    0.63
  -6 -14  -4    1.19    0.69
   6  14   4    0.36    0.81
   6  14   4    0.33    0.83
  -6  14  -4    0.21    0.27
  -7 -14  -4    0.49    0.71
   7 -14   4    0.69    0.64
   7 -14   4    0.04    0.64
   7  14   4   -1.14    0.78
   7  14   4    0.26    0.76
   8 -14   4    0.66    0.63
   8  14   4   -0.39    0.80
   9 -14   4    8.47    1.05
   9  14   4    4.73    1.22
  10  14   4   -0.20    0.89
  11  14   4    9.80    1.61
  12  14   4   -0.18    0.95
  12  15  -4   11.50    1.70
  11  15  -4    2.05    1.04
  10 -15  -4    6.72    1.17
   9 -15  -4    0.12    0.72
   9  15  -4    0.12    0.93
  -8 -15   4   14.26    1.56
   8 -15  -4    9.25    1.41
   8  15  -4   13.31    1.67
   7 -15  -4    2.52    0.68
   7 -15  -4    2.44    0.77
   7  15  -4    5.22    1.03
   6 -15  -4    8.71    1.25
   6 -15  -4    7.58    1.22
   6 -15  -4    7.93    1.18
  -6 -15   4    8.56    1.26
   6  15  -4    8.07    1.32
  -6  15   4    6.22    0.95
   5 -15  -4   28.62    2.64
   5 -15  -4   28.10    2.71
   5 -15  -4   30.69    2.73
  -5 -15   4   32.93    2.64
  -5 -15   4   34.52    2.81
  -5  15   4   27.90    2.67
   5  15  -4   32.64    2.83
   4 -15  -4   49.84    3.77
  -4 -15   4   40.79    3.61
  -4 -15   4   41.48    3.83
   4  15  -4   38.82    3.79
  -4  15   4   51.12    3.78
   3 -15  -4  111.18    8.69
   3 -15  -4  117.55    8.69
  -3 -15   4  104.93    8.37
  -3 -15   4  103.04    8.71
  -3  15   4  112.75    8.68
   3  15  -4  102.15    8.70
   2 -15  -4    1.38    0.64
   2 -15  -4    1.18    0.71
  -2 -15   4    2.78    0.80
  -2 -15   4    2.31    0.64
  -2  15   4    1.43    0.81
   2  15  -4    3.61    0.87
   1 -15  -4   79.06    6.63
   1 -15  -4   80.39    6.66
  -1 -15   4   84.93    6.68
  -1 -15   4   87.05    6.42
   1  15  -4   85.67    6.68
  -1  15   4   77.42    6.65
   0 -15  -4    4.42    0.79
   0 -15  -4    3.86    0.83
   0 -15   4    7.68    1.16
   0  15   4    3.89    0.96
   1 -15   4   61.18    5.34
  -1 -15  -4   75.96    5.40
   1 -15   4   59.20    5.34
   1  15   4   73.28    5.42
  -1  15  -4   58.63    5.32
   2 -15   4    7.23    1.15
  -2 -15  -4    5.92    0.99
   2 -15   4    7.04    0.99
  -2  15  -4    7.18    1.13
   2  15   4    4.69    1.05
   3 -15   4    1.17    0.70
  -3 -15  -4    2.74    0.81
   3 -15   4    0.28    0.74
  -3  15  -4    1.42    0.71
   3  15   4    2.38    0.89
   4 -15   4    1.19    0.75
  -4 -15  -4    2.25    0.38
   4 -15   4    0.92    0.71
  -4 -15  -4    1.75    0.79
   4  15   4    2.02    0.88
  -4  15  -4    1.01    0.66
   5 -15   4    2.96    0.75
   5 -15   4    2.24    0.76
  -5 -15  -4    2.89    0.81
  -5  15  -4    2.52    0.64
   5  15   4    1.92    0.93
   6 -15   4   12.45    1.41
   6 -15   4   11.78    1.41
   7 -15   4    3.20    0.76
  -7 -15  -4    1.19    0.75
   7  15   4    0.81    0.83
   8 -15   4   40.16    3.31
   8  15   4   37.70    3.45
   9 -15   4    1.15    0.66
   9  15   4    0.67    0.94
  10  15   4    6.58    1.30
  11  15   4   -0.05    0.97
  12  15   4    5.12    1.26
  11  16  -4   -0.04    1.01
  10 -16  -4    4.92    1.09
  10  16  -4    6.66    1.27
   9 -16  -4    7.10    1.19
   9  16  -4    9.30    1.48
  -8 -16   4    4.77    0.99
   8 -16  -4    2.53    0.86
   8  16  -4    4.57    1.09
  -7 -16   4   11.26    1.49
   7 -16  -4    9.90    1.32
   7  16  -4    9.36    1.54
   6 -16  -4    1.27    0.70
   6 -16  -4    2.04    0.76
   6 -16  -4    1.95    0.68
  -6 -16   4   -0.26    0.75
   6  16  -4   -0.13    0.85
  -6  16   4    0.93    0.64
   5 -16  -4   31.43    2.79
  -5 -16   4   35.90    2.91
   5 -16  -4   30.15    2.76
   5 -16  -4   29.16    2.71
  -5  16   4   29.42    2.76
   5  16  -4   34.87    2.91
  -4 -16   4   49.47    3.83
   4 -16  -4   38.30    3.71
   4 -16  -4   40.82    3.70
  -4 -16   4   48.04    3.63
  -4  16   4   41.48    3.75
   4  16  -4   46.90    3.82
  -3 -16   4   26.39    2.39
  -3 -16   4   28.06    2.61
   3  16  -4   28.10    2.60
   2 -16  -4   16.69    1.78
   2 -16  -4   17.26    1.78
  -2  16   4   16.95    1.87
  -1 -16   4   10.19    1.33
  -1 -16   4    9.66    1.20
   1 -16  -4    8.99    1.33
   1 -16  -4    8.65    1.27
   1  16  -4    9.35    1.35
  -1  16   4    7.14    1.21
   0 -16   4   10.33    1.46
   0 -16   4   13.90    1.56
   0  16  -4   11.81    1.51
   1 -16   4   44.02    3.45
   1 -16   4   41.78    3.42
  -1 -16  -4   33.91    3.39
  -1  16  -4   44.74    3.46
   1  16   4   34.11    3.45
   2 -16   4    3.03    0.80
  -2 -16  -4    1.64    0.76
   2 -16   4    1.63    0.77
  -2  16  -4    3.01    0.81
   2  16   4    1.76    0.91
   3 -16   4   50.61    4.78
   3 -16   4   54.97    4.79
  -3 -16  -4   67.69    4.91
  -3  16  -4   56.88    4.80
   3  16   4   61.87    4.86
  -4 -16  -4    2.71    0.86
   4 -16   4    0.67    0.73
  -4 -16  -4    2.15    0.39
   4 -16   4    1.60    0.74
   4  16   4    2.17    0.95
  -4  16  -4    1.54    0.69
   5 -16   4   11.31    1.42
   5 -16   4   10.68    1.42
   5  16   4   14.48    1.59
  -5  16  -4   10.34    1.29
   6 -16   4    1.07    0.73
   6 -16   4    1.06    0.69
  -6 -16  -4    0.57    0.75
   6  16   4   -0.46    0.78
  -7 -16  -4    1.70    0.80
   7 -16   4   -0.11    0.68
   7  16   4    0.74    0.83
   8 -16   4    1.61    0.71
   8  16   4    3.09    1.07
   9 -16   4    0.87    0.65
   9  16   4    0.04    0.92
  10 -16   4    1.76    0.69
  10  16   4    4.42    1.21
  11  16   4   -0.37    0.97
  11  17  -4    0.65    1.03
  10  17  -4    1.34    1.06
   9 -17  -4   16.56    1.79
   9  17  -4   14.12    1.92
   8 -17  -4    7.83    1.31
  -8 -17   4   12.17    1.53
   8  17  -4   11.18    1.59
  -7 -17   4    4.19    1.00
   7  17  -4    3.98    1.10
   6 -17  -4   11.23    1.45
   6 -17  -4   10.27    1.36
  -5 -17   4    3.64    0.99
   5 -17  -4    7.21    0.99
   5 -17  -4    6.52    0.97
   5 -17  -4    7.84    1.20
   5  17  -4    3.09    1.06
  -5  17   4    4.94    0.91
  -4 -17   4   62.40    5.15
   4  17  -4   60.86    5.15
   3 -17  -4    3.41    0.86
   3 -17  -4    3.41    0.79
  -3 -17   4    4.07    0.95
   3  17  -4    4.42    1.00
  -3  17   4    2.96    0.93
  -2 -17   4   48.65    4.22
   2  17  -4   50.33    4.23
  -1 -17   4    3.18    0.86
   1 -17  -4    2.08    0.77
  -1  17   4    1.25    0.88
   1  17  -4    3.12    0.94
   0 -17  -4    8.74    1.35
   0  17   4   11.94    1.54
   1 -17   4   66.81    5.33
   1 -17   4   62.81    5.31
  -1  17  -4   63.81    5.30
  -2 -17  -4    6.58    1.17
   2 -17   4   12.13    1.41
   2 -17   4   10.05    1.30
  -2  17  -4   10.96    1.33
   2  17   4    6.58    1.25
   3 -17   4   50.24    4.26
   3 -17   4   51.24    4.27
  -3  17  -4   50.92    4.23
   4 -17   4    7.58    1.04
   4 -17   4    6.96    0.99
  -4 -17  -4    4.16    1.03
  -4 -17  -4    4.70    0.72
  -4  17  -4    7.07    0.94
   4  17   4    4.18    1.11
  -5 -17  -4   49.37    4.77
   5 -17   4   66.47    4.74
   5 -17   4   62.68    4.74
   5  17   4   46.44    4.75
  -5  17  -4   58.78    4.65
  -6 -17  -4    3.04    0.90
   6 -17   4    2.01    0.79
   6  17   4    1.35    0.89
  -7 -17  -4   13.45    1.68
   7  17   4   14.67    1.80
   8 -17   4   14.90    1.63
   8  17   4   16.00    1.90
   9 -17   4    1.04    0.72
   9  17   4    0.67    0.96
  10 -17   4   11.88    1.31
  10  17   4    7.94    1.54
  11  17   4    1.14    1.06
  10  18  -4    2.21    1.17
   9 -18  -4    1.52    0.86
   9  18  -4    2.62    1.09
   8 -18  -4    1.06    0.81
   8  18  -4    1.04    1.03
  -7 -18   4    5.49    1.11
   7  18  -4    6.11    1.22
   6 -18  -4    1.38    0.76
   6 -18  -4    0.91    0.79
  -6 -18   4    3.82    0.97
   6  18  -4    3.60    1.06
   5 -18  -4    0.50    0.69
   5 -18  -4    0.35    0.71
  -5 -18   4    0.60    0.81
  -5  18   4    0.42    0.74
   5  18  -4    0.87    0.95
   4 -18  -4    1.37    0.78
   4 -18  -4    2.42    0.77
  -4 -18   4    4.76    0.96
   4  18  -4    5.58    1.11
  -4  18   4    2.45    0.89
   3 -18  -4   12.66    1.51
   3 -18  -4   11.87    1.53
  -3  18   4   11.63    1.61
  -2 -18   4    1.23    0.82
   2 -18  -4    0.96    0.73
   2  18  -4    1.35    0.93
  -2  18   4    0.56    0.89
   1 -18  -4    3.38    0.83
  -1  18   4    2.75    1.00
   0 -18  -4    0.20    0.70
   0 -18   4    0.89    0.79
   0  18  -4    1.08    0.86
   0  18   4    0.82    0.94
  -1 -18  -4   23.41    2.60
   1 -18   4   33.66    2.68
  -1  18  -4   32.98    2.68
   1  18   4   25.02    2.73
   2 -18   4    8.35    1.33
  -2 -18  -4   12.33    1.42
   2 -18   4    7.82    1.20
   2  18   4   11.29    1.55
  -2  18  -4    7.87    1.32
  -3 -18  -4   13.13    1.56
   3 -18   4   12.49    1.55
   3 -18   4   10.81    1.48
  -3  18  -4   11.04    1.45
   3  18   4   10.40    1.56
   4 -18   4   10.88    1.43
   4 -18   4   10.76    1.45
  -4  18  -4   10.48    1.35
  -5 -18  -4    6.09    1.10
   5  18   4    5.13    1.19
   6 -18   4    0.22    0.75
  -6 -18  -4    1.97    0.87
   6  18   4    0.19    0.84
   7 -18   4    9.68    1.30
  -7 -18  -4   10.69    1.46
   7  18   4    7.60    1.40
   8 -18   4   -0.26    0.70
   8  18   4   -0.11    0.89
   9 -18   4    5.66    0.93
   9  18   4    3.45    1.27
  10 -18   4    0.21    0.70
  10  18   4    0.64    1.04
  10  19  -4   17.57    2.14
   9  19  -4    3.87    1.20
   8 -19  -4    4.71    1.08
   8  19  -4    8.61    1.36
   7 -19  -4    4.04    0.94
  -7 -19   4    1.48    0.92
   7  19  -4    0.86    1.05
  -6 -19   4   21.30    2.22
   6 -19  -4   19.68    2.06
   6 -19  -4   22.38    2.19
   6  19  -4   21.66    2.26
   5 -19  -4   31.86    2.53
  -5 -19   4   23.78    2.57
   5  19  -4   23.81    2.60
   4 -19  -4    1.31    0.78
   4 -19  -4    1.70    0.73
  -4  19   4    2.13    0.90
  -3 -19   4   60.94    4.54
   3 -19  -4   43.06    4.44
   3  19  -4   61.72    4.55
  -3  19   4   47.93    4.49
  -2 -19   4    5.55    1.08
   2  19  -4    5.49    1.16
  -2  19   4    9.05    1.41
  -1 -19   4  113.66    9.75
   1 -19  -4  125.87    9.77
  -1  19   4  129.28    9.77
   1  19  -4  117.89    9.74
   0 -19   4    2.18    0.87
   0 -19  -4    0.99    0.76
   0  19  -4    3.44    0.99
   0  19   4    0.92    0.99
   1 -19   4   29.82    2.98
  -1 -19  -4   34.12    3.00
  -1  19  -4   33.99    3.03
   1  19   4   35.22    3.11
  -2 -19  -4   26.66    2.53
   2  19   4   26.17    2.60
   3 -19   4    9.37    1.36
   3 -19   4    9.29    1.28
  -3 -19  -4    7.44    1.21
   3  19   4    6.27    1.30
  -3  19  -4    8.83    1.29
   4 -19   4   17.49    1.97
   4 -19   4   20.93    2.03
  -4  19  -4   20.19    1.94
  -5 -19  -4    0.27    0.85
   5 -19   4    0.54    0.77
   5  19   4   -0.10    0.85
  -6 -19  -4   48.25    3.95
   6  19   4   41.05    3.92
  -7 -19  -4    0.67    0.83
   7 -19   4    2.45    0.85
   7  19   4    0.55    0.95
   8 -19   4   23.65    2.50
   8  19   4   32.94    2.80
   9 -19   4    3.11    0.83
   9  19   4    1.37    1.07
  10 -19   4    7.91    1.23
  10  19   4    8.38    1.52
   9  20  -4    5.63    1.34
   8 -20  -4   -0.02    0.75
   8  20  -4   -0.38    1.06
  -7 -20   4    7.36    1.29
   7 -20  -4    8.90    1.26
   7 -20  -4    7.34    1.21
   7  20  -4    7.66    1.39
   6 -20  -4    0.24    0.80
  -6 -20   4    0.84    0.85
   6 -20  -4    0.62    0.76
   6  20  -4    0.40    1.05
  -5 -20   4    6.33    1.19
   5  20  -4    6.84    1.29
   4 -20  -4    9.33    1.46
  -4 -20   4   13.32    1.58
  -4  20   4    8.87    1.53
   4  20  -4   14.26    1.71
   3 -20  -4    9.32    1.43
  -3 -20   4   11.78    1.50
   3  20  -4   11.47    1.63
  -3  20   4   10.05    1.62
  -2 -20   4   -0.02    0.78
   2 -20  -4   -0.09    0.76
  -2  20   4   -0.83    0.91
   2  20  -4    0.44    0.95
  -1 -20   4    1.96    0.87
   1 -20  -4    0.41    0.77
  -1  20   4    0.72    0.98
   1  20  -4    1.30    0.96
   0 -20   4    5.02    1.02
   0  20  -4    6.57    1.14
   0  20   4    2.01    1.11
  -1 -20  -4   -0.03    0.75
   1 -20   4    0.78    0.79
   1  20   4   -0.55    0.89
  -1  20  -4   -0.08    0.85
  -2 -20  -4    1.64    0.89
   2 -20   4    7.14    1.05
  -2  20  -4    6.97    1.07
   2  20   4    1.51    0.96
   3 -20   4    3.10    0.91
  -3 -20  -4    4.50    1.02
   3  20   4    4.49    1.17
  -3  20  -4    3.14    0.91
  -4 -20  -4    2.51    0.97
   4 -20   4    0.16    0.76
   4  20   4    1.54    0.95
   5 -20   4    1.16    0.78
  -5 -20  -4    1.41    0.91
   5  20   4    0.15    0.91
   6 -20   4    1.20    0.81
  -6 -20  -4    0.78    0.88
   6  20   4    0.75    0.95
  -7 -20  -4    2.85    0.98
   7  20   4    3.01    1.17
   8 -20   4    0.72    0.84
   8  20   4    3.92    1.24
   9 -20   4    1.34    0.82
   9  20   4    1.27    1.08
  10 -20   4    0.93    0.78
   9  21  -4    8.46    1.53
   8  21  -4   20.34    2.33
  -7 -21   4    9.30    1.56
   7  21  -4   10.33    1.67
  -6 -21   4   11.46    1.53
   6 -21  -4    8.40    1.32
   6 -21  -4    6.53    1.22
   6  21  -4   11.85    1.63
  -5 -21   4    2.58    0.97
   5 -21  -4    3.21    0.95
   5  21  -4    2.63    1.10
  -4 -21   4    9.02    1.38
   4  21  -4    9.61    1.51
  -3 -21   4    5.46    1.12
   3 -21  -4    7.30    1.15
   3  21  -4    4.97    1.26
  -3  21   4    6.38    1.22
   2 -21  -4    8.43    1.35
  -2  21   4    7.60    1.32
   1 -21  -4    7.94    1.21
  -1 -21   4    7.15    1.18
   1  21  -4    8.19    1.32
  -1  21   4    6.86    1.34
   0 -21   4    3.83    0.97
   0  21  -4    4.09    1.07
   0  21   4    7.72    1.34
   1 -21   4   16.39    1.70
  -1 -21  -4   11.77    1.68
   1  21   4   12.21    1.89
  -1  21  -4   16.34    1.78
  -2 -21  -4   13.99    1.70
   2  21   4   12.27    1.83
  -4 -21  -4   12.41    1.63
   4 -21   4    9.32    1.42
   4  21   4   11.10    1.72
  -5 -21  -4   40.76    3.83
   5 -21   4   49.35    3.76
   5  21   4   38.42    3.83
   6 -21   4    2.47    0.90
  -6 -21  -4    2.49    1.00
   6  21   4    1.19    1.01
   7 -21   4   33.16    2.78
   7  21   4   26.12    2.92
   8 -21   4   17.18    1.91
   8  21   4   18.46    2.20
   9 -21   4   -0.23    0.81
   9  21   4   -0.85    1.05
  10 -21   4    5.96    1.05
   8  22  -4    5.22    1.38
  -7 -22   4    6.53    1.28
   7  22  -4    8.22    1.47
  -6 -22   4    8.60    1.42
   6  22  -4    9.39    1.52
   5 -22  -4    8.61    1.49
  -5 -22   4   12.37    1.64
   5  22  -4   12.06    1.73
   4 -22  -4    1.92    0.90
  -4 -22   4    1.22    0.91
   4  22  -4    1.95    1.08
   3 -22  -4    0.31    0.85
  -3 -22   4    1.99    0.94
  -3  22   4    0.37    1.02
   3  22  -4    1.66    1.05
   2 -22  -4    1.48    0.88
  -2 -22   4    0.22    0.85
   2  22  -4    0.69    1.01
  -2  22   4    1.02    1.04
  -1 -22   4   12.59    1.55
   1 -22  -4   10.50    1.53
   1  22  -4   12.42    1.67
  -1  22   4    8.44    1.55
   0 -22   4    1.02    0.82
   0 -22  -4    0.45    0.88
   0  22   4    0.18    0.98
   0  22  -4    1.10    0.99
  -1 -22  -4   11.90    1.70
   1 -22   4   14.76    1.68
  -1  22  -4   16.09    1.80
   1  22   4   11.72    1.91
   2 -22   4    2.28    0.86
  -2 -22  -4    4.18    1.04
  -2  22  -4    2.53    0.96
   2  22   4    3.68    1.22
   3 -22   4    9.69    1.52
  -3 -22  -4   16.02    1.77
   3  22   4   13.51    1.87
   4 -22   4   -0.05    0.81
  -4 -22  -4   -0.37    0.91
   4  22   4   -0.09    0.93
  -5 -22  -4   -0.34    0.91
   5 -22   4   -0.19    0.83
   5  22   4    0.44    0.95
  -6 -22  -4    0.09    0.92
   6 -22   4   -0.33    0.80
   6  22   4   -0.19    0.95
   7 -22   4    4.95    1.06
   7  22   4    2.13    1.25
   8 -22   4    1.67    0.89
   8  22   4    2.12    1.25
   9 -22   4    1.44    0.89
  10 -22   4   -0.47    0.77
   8  23  -4    3.84    1.33
   7 -23  -4    4.33    1.12
   7  23  -4    1.17    1.10
   6 -23  -4    0.78    0.91
   6 -23  -4    0.30    0.78
  -6 -23   4    3.44    1.06
   6  23  -4    3.41    1.22
  -5 -23   4   18.19    2.19
   5 -23  -4   21.27    2.14
   5  23  -4   19.49    2.29
  -4 -23   4    3.56    1.02
   4 -23  -4    1.62    0.92
   4  23  -4    2.80    1.19
   3 -23  -4   56.75    4.93
  -3 -23   4   56.65    4.95
  -3  23   4   57.45    4.96
   3  23  -4   60.54    5.00
  -2 -23   4    1.70    0.94
   2 -23  -4    0.48    0.87
   2  23  -4    1.22    1.08
  -2  23   4   -0.47    0.90
   1 -23  -4   46.11    3.62
  -1 -23   4   33.33    3.53
   1  23  -4   36.04    3.58
  -1  23   4   44.56    3.66
   0 -23  -4    0.76    0.88
   0 -23   4    4.43    1.03
   0  23   4    0.06    0.97
   0  23  -4    4.57    1.14
   1 -23   4   15.22    1.85
  -1 -23  -4   16.65    1.88
   1  23   4   17.17    2.12
  -1  23  -4   15.76    1.91
   2 -23   4    3.84    1.02
  -2  23  -4    4.28    1.08
  -3 -23  -4    0.24    0.89
   3 -23   4    0.50    0.86
   3  23   4    0.36    0.95
  -4 -23  -4   11.62    1.73
   4  23   4   12.39    1.85
   5 -23   4    0.21    0.85
  -5 -23  -4    0.41    0.97
   5  23   4    0.53    1.01
  -6 -23  -4    6.13    1.27
   6  23   4    5.94    1.43
   7 -23   4    2.18    0.94
   7  23   4    1.08    1.07
   8 -23   4    2.53    0.94
   9 -23   4    1.89    0.91
   7 -24  -4    4.62    1.15
   7  24  -4    1.20    1.15
  -6 -24   4   -0.70    0.93
   6 -24  -4   -0.09    0.91
   6  24  -4   -0.39    1.06
  -5 -24   4   -0.19    0.94
   5 -24  -4    0.36    0.89
   5  24  -4    0.02    1.13
  -4 -24   4    4.49    1.17
   4  24  -4    6.04    1.36
  -3 -24   4    2.05    0.96
   3 -24  -4    2.17    0.96
   3  24  -4    1.65    1.15
   2 -24  -4    1.74    0.92
  -2 -24   4    2.41    0.97
  -2  24   4    0.67    0.95
   2  24  -4    2.86    1.20
  -1 -24   4    8.18    1.30
   1 -24  -4    5.39    1.19
  -1  24   4    4.87    1.35
   1  24  -4    9.17    1.43
   0 -24  -4    3.94    1.07
   0  24   4    3.40    1.32
   1 -24   4   11.20    1.53
  -1 -24  -4    9.75    1.57
   1  24   4    8.50    1.62
  -1  24  -4   10.03    1.47
  -2 -24  -4    2.96    1.04
   2 -24   4    1.54    0.95
   2  24   4    3.26    1.33
  -3 -24  -4    0.40    0.96
   3 -24   4    0.34    0.85
   3  24   4   -0.67    0.98
  -4 -24  -4    0.45    1.01
   4 -24   4    2.28    0.95
   4  24   4    0.81    1.04
  -5 -24  -4    0.55    0.96
   5 -24   4    0.55    0.89
   5  24   4    0.75    1.07
   6 -24   4    0.35    0.88
  -6 -24  -4    0.88    0.98
   6  24   4    0.03    1.03
   7 -24   4    3.30    1.02
   7  24   4    5.31    1.45
   8 -24   4    1.54    0.93
   7 -25  -4    2.79    1.10
  -6 -25   4    1.68    1.06
   6 -25  -4    1.91    0.99
   6  25  -4    1.44    1.18
  -5 -25   4    2.05    1.02
   5 -25  -4    0.58    0.92
   5  25  -4    2.07    1.17
   4 -25  -4    3.63    1.05
  -4 -25   4    0.77    1.00
   4  25  -4    0.87    1.18
   3 -25  -4    0.12    0.90
  -3 -25   4   -0.11    0.93
   3  25  -4    0.72    1.13
  -2 -25   4    1.35    0.95
   2 -25  -4    3.34    1.07
   2  25  -4    1.13    1.14
   1 -25  -4    6.40    1.22
  -1 -25   4    4.21    1.15
   1  25  -4    5.44    1.32
  -1  25   4    4.65    1.34
   0 -25   4    2.67    1.00
   0 -25  -4    3.27    1.08
   0  25   4    0.89    1.11
   0  25  -4    2.76    1.14
   1 -25   4    3.80    1.07
  -1 -25  -4    2.32    1.06
  -1  25  -4    4.80    1.24
   1  25   4    0.80    1.11
  -2 -25  -4    5.50    1.26
   2  25   4    6.03    1.50
   3 -25   4   17.26    1.95
  -3 -25  -4   16.43    2.10
   3  25   4   18.21    2.29
  -4 -25  -4    1.35    1.02
   4 -25   4   -0.41    0.87
   4  25   4    1.06    1.07
  -5 -25  -4   17.69    2.19
   5 -25   4   18.91    2.09
   5  25   4   17.20    2.30
   6 -25   4   -0.61    0.85
   6  25   4    1.12    1.11
   7 -25   4    6.28    1.20
  -6 -26   4    0.10    1.02
   6  26  -4   -0.97    1.09
   5 -26  -4    2.86    1.08
  -5 -26   4    4.83    1.21
   5  26  -4    4.76    1.37
   4 -26  -4    1.57    1.01
  -4 -26   4    1.95    1.07
   4  26  -4    2.52    1.26
  -3 -26   4    0.55    0.97
   3 -26  -4    0.56    0.97
   3  26  -4   -0.05    1.07
  -2 -26   4   -0.22    0.92
   2 -26  -4   -0.14    0.98
   2  26  -4   -0.34    1.04
  -1 -26   4    0.01    0.93
   1 -26  -4    0.50    0.95
   1  26  -4   -0.35    1.12
  -1  26   4   -0.21    1.04
   0 -26   4    0.66    0.92
   0 -26  -4    1.80    1.03
   0  26   4   -0.06    1.09
   0  26  -4    0.03    1.16
  -1 -26  -4    4.00    1.18
   1  26   4    3.66    1.43
  -2 -26  -4   -0.49    0.96
   2 -26   4   -0.48    0.89
   2  26   4    0.68    1.11
   3 -26   4    1.69    1.04
  -3 -26  -4    5.29    1.25
   3  26   4    2.49    1.24
   4 -26   4    9.59    1.55
  -4 -26  -4    8.46    1.52
   4  26   4    8.68    1.70
   5 -26   4    0.41    0.89
  -5 -26  -4    0.81    1.04
   5  26   4   -0.45    1.12
  -5 -27   4    6.08    1.35
   5  27  -4    5.23    1.53
   4 -27  -4   -0.46    0.95
  -4 -27   4    0.51    1.02
   4  27  -4    0.30    1.18
   3 -27  -4   21.22    2.15
  -3 -27   4   15.04    2.06
   3  27  -4   16.66    2.29
  -2 -27   4    1.32    1.01
   2 -27  -4    1.72    1.08
   2  27  -4    2.51    1.36
   1 -27  -4   10.91    1.70
  -1 -27   4    8.68    1.48
   1  27  -4    9.06    1.65
   0 -27   4   -0.24    0.93
   0 -27  -4   -0.26    0.97
   0  27  -4   -0.05    1.09
   0  27   4    0.95    1.10
  -1 -27  -4    4.37    1.23
   1 -27   4    3.58    1.13
   1  27   4    5.38    1.55
   2 -27   4    4.14    1.13
  -2 -27  -4    1.66    1.12
   2  27   4    0.34    1.14
   3 -27   4    0.33    0.95
  -3 -27  -4    4.50    1.23
   3  27   4    2.38    1.28
  -4 -27  -4    0.80    1.11
   4 -27   4    0.46    0.90
   4  27   4    0.09    1.21
  -5 -27  -4    0.04    1.06
   5  27   4   -0.62    1.14
  -5 -28   4    4.45    1.29
  -4 -28   4    2.57    1.15
   4  28  -4    4.18    1.50
  -3 -28   4    3.02    1.15
   3  28  -4    3.35    1.47
   2 -28  -4    6.60    1.31
  -2 -28   4    2.51    1.10
   2  28  -4    2.98    1.44
  -1 -28   4   12.15    1.79
   1  28  -4   13.74    2.07
   0 -28  -4    2.19    1.15
   0 -28   4    2.66    1.08
   0  28   4    3.73    1.43
   1 -28   4    4.44    1.20
  -1 -28  -4    6.02    1.35
   1  28   4    3.55    1.54
  -2 -28  -4    6.90    1.47
   2 -28   4    7.73    1.35
   2  28   4    6.32    1.70
  -3 -28  -4   -0.53    1.04
   3  28   4   -0.92    1.14
  -4 -28  -4    0.61    1.12
   4  28   4    0.62    1.23
  -5 -28  -4    3.50    1.23
  -5 -29   4    1.57    1.16
  -4 -29   4    1.36    1.11
  -3 -29   4    0.41    1.06
   3  29  -4    0.34    1.22
  -2 -29   4   -0.19    0.99
   2  29  -4    0.53    1.16
  -1 -29  -4   10.56    1.68
   1  29   4    8.44    1.78
  -2 -29  -4    7.45    1.51
   2  29   4    8.09    1.79
  -3 -29  -4    2.78    1.21
   3  29   4    2.08    1.29
  -4 -29  -4    6.61    1.47
   2  30   4    5.08    1.67
  13   0  -5    1.07    0.88
  13   0  -5    0.15    0.64
  12   0  -5   -0.11    0.66
  12   0  -5    0.28    0.79
  11   0  -5   -0.36    0.64
  11   0  -5    0.63    0.77
  10   0  -5    0.04    0.61
  10   0  -5    0.22    0.68
   9   0  -5    1.04    0.57
   9   0  -5    0.81    0.64
   9   0  -5    1.26    0.70
   8   0  -5    1.40    0.63
   8   0  -5    0.99    0.67
   8   0  -5    1.13    0.57
   7   0  -5   -0.52    0.45
  -7   0   5   -0.46    0.46
  -7   0   5   -0.74    0.55
   7   0  -5   -0.11    0.52
   7   0  -5    0.14    0.53
  -6   0   5    2.95    0.71
   6   0  -5    3.67    0.69
   6   0  -5    4.22    0.61
   6   0  -5    3.55    0.65
  -6   0   5    3.42    0.61
  -5   0   5    0.68    0.49
  -5   0   5    0.57    0.52
   5   0  -5    0.60    0.48
   5   0  -5    0.80    0.45
   5   0  -5    0.58    0.47
   4   0  -5   -0.20    0.43
  -4   0   5   -0.16    0.48
   4   0  -5   -0.42    0.45
   4   0  -5   -0.34    0.42
  -4   0   5    0.06    0.46
  -3   0   5    0.78    0.43
   3   0  -5    0.96    0.43
   3   0  -5    0.43    0.44
  -3   0   5    0.33    0.48
   3   0  -5    0.64    0.44
   2   0  -5    2.15    0.46
  -2   0   5    2.04    0.48
  -2   0   5    1.82    0.53
   2   0  -5    1.69    0.49
   2   0  -5    2.00    0.45
   1   0  -5    1.24    0.43
  -1   0   5    1.02    0.40
  -1   0   5    1.38    0.50
   1   0  -5    0.96    0.37
   0   0  -5    1.63    0.37
   0   0   5    1.55    0.41
   0   0   5    1.37    0.47
   0   0  -5    1.67    0.45
   1   0   5    3.79    0.64
   1   0   5    4.59    0.63
  -1   0  -5    4.18    0.56
  -1   0  -5    3.54    0.55
   2   0   5    0.40    0.48
  -2   0  -5    0.64    0.39
   2   0   5    0.63    0.35
  -3   0  -5    0.60    0.41
   3   0   5    1.05    0.34
   3   0   5    0.49    0.50
  -4   0  -5    4.03    0.56
   4   0   5    3.38    0.62
   5   0   5    3.20    0.63
  -5   0  -5    4.24    0.54
  -5   0  -5    4.09    0.67
  -6   0  -5    0.39    0.37
   6   0   5    0.33    0.52
  -6   0  -5   -0.06    0.17
   7   0   5    0.40    0.56
  -7   0  -5    0.39    0.37
   7   0   5   -0.35    0.53
   8   0   5   -0.20    0.54
   8   0   5    0.15    0.58
   8   0   5    0.76    0.50
   9   0   5   -0.15    0.51
   9   0   5   -0.02    0.58
   9   0   5    0.15    0.52
  10   0   5   -0.68    0.54
  10   0   5   -0.99    0.56
  11   0   5   -0.80    0.54
  13  -1  -5    5.91    1.10
  13   1  -5    3.95    0.82
  13   1  -5    3.36    1.01
  12  -1  -5   10.58    1.50
  12  -1  -5    9.74    1.26
  12   1  -5   12.18    1.32
  12   1  -5   10.73    1.50
  11  -1  -5   10.36    1.36
  11  -1  -5   10.78    1.21
  11   1  -5    9.39    1.24
  11   1  -5    8.84    1.34
  10  -1  -5   10.44    1.19
  10  -1  -5    9.13    1.24
  10  -1  -5    8.65    1.12
  10   1  -5    7.90    1.15
  10   1  -5    7.96    1.18
   9  -1  -5   60.42    4.52
   9  -1  -5   55.20    4.52
   9  -1  -5   54.18    4.50
   9   1  -5   54.16    4.50
   9   1  -5   52.49    4.52
   9   1  -5   56.92    4.53
   8  -1  -5  125.96    9.24
   8  -1  -5  121.79    9.04
   8  -1  -5  128.74    9.23
  -8   1   5  110.67    9.17
   8   1  -5  109.12    9.23
   8   1  -5  104.40    9.00
   8   1  -5  116.49    9.23
  -7  -1   5    0.58    0.51
   7  -1  -5    1.11    0.61
   7  -1  -5   -0.10    0.52
  -7  -1   5    0.50    0.60
   7  -1  -5    0.43    0.50
  -7   1   5   -0.02    0.43
   7   1  -5    0.75    0.57
  -7   1   5    0.49    0.62
   7   1  -5    0.88    0.60
   7   1  -5    0.72    0.53
  -6  -1   5   30.10    2.75
  -6  -1   5   28.34    2.73
   6  -1  -5   33.31    2.74
   6  -1  -5   35.50    2.75
   6  -1  -5   37.60    2.77
   6   1  -5   29.58    2.71
  -6   1   5   35.79    2.74
   6   1  -5   29.01    2.75
   6   1  -5   32.08    2.77
  -6   1   5   36.29    2.77
   5  -1  -5    8.18    0.98
   5  -1  -5    7.00    0.96
   5  -1  -5    6.66    0.93
  -5   1   5    6.08    0.86
  -5   1   5    6.45    0.89
  -4  -1   5    3.75    0.61
   4  -1  -5    2.27    0.52
   4  -1  -5    2.48    0.53
   4  -1  -5    2.51    0.55
   4   1  -5    3.68    0.58
  -4   1   5    1.84    0.53
  -4   1   5    2.10    0.56
   3  -1  -5   23.48    1.91
  -3  -1   5   19.41    1.96
  -3  -1   5   20.47    1.91
   3  -1  -5   25.95    1.97
   3   1  -5   21.72    1.98
   3   1  -5   20.77    1.95
  -3   1   5   23.52    1.96
   3   1  -5   20.17    1.88
  -3   1   5   25.72    1.96
   2  -1  -5  149.59   12.09
   2  -1  -5  160.74   12.51
  -2  -1   5  156.39   12.51
  -2  -1   5  169.46   12.11
   2   1  -5  162.81   12.50
  -2   1   5  148.72   12.51
  -2   1   5  152.58   12.09
   2   1  -5  166.87   12.10
   2   1  -5  168.15   12.52
   1  -1  -5   23.69    1.81
   1  -1  -5   23.22    1.92
  -1  -1   5   20.87    1.82
  -1  -1   5   20.01    1.92
  -1   1   5   21.33    1.90
   1   1  -5   22.55    1.92
  -1   1   5   23.26    1.83
   1   1  -5   21.31    1.90
   1   1  -5   20.04    1.80
   0  -1   5   20.03    1.60
   0  -1   5   18.44    1.71
   0   1  -5   17.30    1.65
   0   1  -5   19.59    1.70
   0   1  -5   18.82    1.57
  -1  -1  -5   68.41    5.35
   1  -1   5   67.05    5.14
  -1  -1  -5   66.37    5.12
   1  -1   5   65.42    5.34
  -1   1  -5   66.22    5.13
  -1   1  -5   67.26    5.34
   1   1   5   68.17    5.35
   1   1   5   71.83    5.13
  -1   1  -5   62.31    5.33
   2  -1   5   85.20    6.84
   2  -1   5   87.46    6.58
  -2   1  -5   83.52    6.83
  -2   1  -5   89.17    6.84
   3  -1   5  135.38   10.48
  -3  -1  -5  138.58   10.48
   3  -1   5  136.85   10.09
   3   1   5  135.35   10.07
  -3   1  -5  129.62   10.47
  -3   1  -5  135.47   10.46
   3   1   5  121.47   10.47
  -4  -1  -5    2.76    0.48
   4  -1   5    1.71    0.52
  -4   1  -5    1.93    0.45
   4   1   5    1.77    0.37
   4   1   5    2.39    0.55
  -4   1  -5    1.56    0.45
   5  -1   5    2.67    0.60
  -5  -1  -5    3.56    0.51
  -5   1  -5    2.70    0.49
  -5   1  -5    3.32    0.51
   5   1   5    3.55    0.63
   6  -1   5    3.56    0.67
   6   1   5    6.03    0.92
  -6   1  -5    4.45    0.73
   7  -1   5   67.03    5.76
  -7  -1  -5   68.76    5.71
  -7  -1  -5   73.65    5.72
   7   1   5   73.45    5.54
   7   1   5   77.39    5.80
   7   1   5   73.99    5.79
   8   1   5    8.93    1.15
   8   1   5    8.01    0.95
   8   1   5    8.60    1.08
   9  -1   5    8.01    0.95
   9  -1   5    6.38    0.90
   9  -1   5    6.52    0.96
   9   1   5    5.88    0.86
   9   1   5    5.52    0.85
   9   1   5    6.04    0.93
  10  -1   5   11.48    1.28
  10  -1   5   11.73    1.31
  10   1   5   12.71    1.27
  10   1   5   14.37    1.38
  11  -1   5   12.15    1.43
  11   1   5   15.35    1.44
  13  -2  -5    0.92    0.92
  13   2  -5    2.05    0.78
  13   2  -5    1.99    0.94
  12  -2  -5   -0.31    0.62
  12  -2  -5    0.10    0.80
  12   2  -5    0.27    0.80
  12   2  -5    0.32    0.68
  11  -2  -5    0.78    0.62
  11  -2  -5    0.83    0.76
  11   2  -5    1.25    0.71
  11   2  -5    0.72    0.77
  10  -2  -5    1.73    0.58
  10  -2  -5    1.93    0.81
  10  -2  -5    1.79    0.66
  10   2  -5    4.59    0.86
  10   2  -5    3.82    0.77
   9  -2  -5   16.70    1.50
   9  -2  -5   17.49    1.62
   9  -2  -5   15.12    1.46
  -9  -2   5   11.35    1.33
   9   2  -5   14.75    1.55
   9   2  -5   14.05    1.48
   9   2  -5   12.43    1.54
  -8  -2   5    9.64    1.09
   8   2  -5    9.09    1.26
   8   2  -5   10.76    1.22
   8   2  -5   12.15    1.24
  -8   2   5   10.03    1.11
  -7  -2   5   17.86    1.71
  -7  -2   5   19.41    1.85
   7   2  -5   17.94    1.76
   7   2  -5   18.54    1.75
   7   2  -5   20.04    1.78
   6  -2  -5   15.56    1.59
  -6  -2   5   19.74    1.61
   6  -2  -5   14.65    1.62
   6  -2  -5   14.95    1.58
   6   2  -5   18.31    1.60
  -6   2   5   14.36    1.64
  -6   2   5   14.39    1.55
   6   2  -5   20.83    1.67
   6   2  -5   20.47    1.65
  -5  -2   5   41.91    3.62
  -5  -2   5   46.97    3.57
   5   2  -5   43.67    3.63
   5   2  -5   45.46    3.64
   5   2  -5   43.65    3.54
   4  -2  -5  126.27   10.52
  -4  -2   5  144.07   10.54
  -4  -2   5  143.95   10.22
   4  -2  -5  122.60   10.21
  -4   2   5  112.97   10.50
   4   2  -5  146.58   10.54
   4   2  -5  144.43   10.22
   4   2  -5  143.37   10.54
  -4   2   5  120.41   10.21
  -3  -2   5    0.79    0.53
   3  -2  -5    1.71    0.47
  -3  -2   5    0.95    0.46
   3  -2  -5    1.96    0.50
  -3   2   5    1.89    0.54
   3   2  -5    0.83    0.49
   3   2  -5    1.25    0.47
   3   2  -5    0.70    0.48
  -3   2   5    1.31    0.51
  -2  -2   5   19.54    1.67
  -2  -2   5   18.28    1.73
   2   2  -5   19.47    1.73
   2   2  -5   19.11    1.64
   2   2  -5   19.12    1.71
  -1  -2   5    0.22    0.46
   1  -2  -5    0.09    0.38
  -1  -2   5    0.51    0.39
   1  -2  -5    0.46    0.34
   1   2  -5    0.46    0.34
  -1   2   5    0.15    0.39
   1   2  -5    0.38    0.41
   1   2  -5   -0.10    0.40
  -1   2   5    0.56    0.47
   0  -2   5    6.09    0.76
   0  -2   5    6.14    0.86
   0   2  -5    6.75    0.92
   0   2  -5    5.41    0.83
   0   2  -5    5.95    0.72
  -1  -2  -5    4.22    0.55
  -1  -2  -5    5.43    0.80
   1  -2   5    3.45    0.52
   1  -2   5    2.96    0.60
  -1   2  -5    3.38    0.57
  -1   2  -5    3.44    0.55
   1   2   5    4.43    0.64
   1   2   5    4.80    0.60
   2  -2   5    2.70    0.60
  -2  -2  -5    5.56    0.82
   2  -2   5    3.40    0.51
  -2   2  -5    3.55    0.54
  -2   2  -5    3.40    0.57
   2   2   5    4.97    0.57
   2   2   5    4.61    0.64
   3  -2   5   70.60    5.68
  -3  -2  -5   69.49    5.69
   3  -2   5   77.85    5.48
  -3   2  -5   74.64    5.68
   3   2   5   66.17    5.70
  -3   2  -5   69.76    5.67
   3   2   5   71.46    5.43
   4  -2   5   -0.60    0.44
  -4  -2  -5    0.58    0.39
  -4   2  -5   -0.29    0.37
   4   2   5    0.27    0.27
  -4   2  -5    0.57    0.37
   4   2   5    0.61    0.52
  -5  -2  -5    6.03    0.85
   5  -2   5    4.60    0.70
  -5   2  -5    4.84    0.81
  -5   2  -5    4.79    0.62
   5   2   5    5.57    0.91
   5   2   5    5.49    0.78
   6  -2   5    8.25    0.97
  -6   2  -5    6.27    0.75
  -6   2  -5    9.12    0.88
  -7  -2  -5    3.41    0.58
   7  -2   5    4.60    0.65
   7   2   5    3.72    0.53
   7   2   5    3.67    0.75
   7   2   5    3.73    0.72
   8  -2   5    0.50    0.53
  -8  -2  -5    1.00    0.42
   8  -2   5    0.65    0.53
   8   2   5    1.09    0.60
   8   2   5    0.83    0.45
   8   2   5    0.97    0.67
   9  -2   5    8.69    1.13
   9  -2   5    9.67    1.18
   9  -2   5    9.51    1.17
   9   2   5   10.45    1.05
   9   2   5   12.18    1.28
   9   2   5   12.37    1.24
  10  -2   5    2.29    0.56
  10  -2   5    2.26    0.68
  10   2   5    3.19    0.74
  10   2   5    3.27    0.58
  11  -2   5    1.08    0.67
  11   2   5    0.36    0.66
  14   3  -5    3.22    1.05
  14   3  -5    3.97    0.87
  13  -3  -5    0.62    0.89
  13   3  -5    0.06    0.76
  13   3  -5    0.27    0.84
  12  -3  -5    3.04    0.94
  12   3  -5    3.25    0.83
  12   3  -5    3.20    0.93
  11  -3  -5   -0.50    0.58
  11  -3  -5   -0.45    0.77
  11   3  -5    0.47    0.71
  11   3  -5   -0.45    0.73
  10  -3  -5   20.69    1.74
  10  -3  -5   20.68    1.93
  10   3  -5   16.23    1.83
  10   3  -5   16.22    1.81
   9  -3  -5    0.18    0.61
   9  -3  -5    1.18    0.55
   9  -3  -5    1.56    0.72
   9   3  -5    2.19    0.74
   9   3  -5    2.53    0.67
   9   3  -5    2.38    0.71
   8  -3  -5    5.02    0.85
  -8  -3   5    7.69    0.97
   8  -3  -5    5.98    0.83
   8  -3  -5    7.02    1.02
   8   3  -5    6.74    0.99
   8   3  -5    7.52    1.06
   8   3  -5    7.59    0.91
   7  -3  -5    1.55    0.52
  -7  -3   5    3.20    0.71
   7  -3  -5    1.35    0.59
  -7  -3   5    3.12    0.60
   7  -3  -5    1.98    0.67
   7   3  -5    2.95    0.69
  -7   3   5    0.15    0.47
   7   3  -5    2.92    0.65
   7   3  -5    3.71    0.66
  -6  -3   5   62.76    5.13
  -6  -3   5   66.95    5.06
   6   3  -5   61.32    5.01
   6   3  -5   61.30    5.14
   6   3  -5   67.30    5.16
  -5  -3   5    2.53    0.63
  -5  -3   5    2.79    0.61
   5   3  -5    2.42    0.62
   5   3  -5    3.08    0.63
  -5   3   5    4.76    0.74
   5   3  -5    2.55    0.60
   4  -3  -5  115.56    8.15
  -4  -3   5   95.65    7.90
   4  -3  -5  108.68    7.91
  -4  -3   5   96.28    8.15
  -4   3   5  109.19    7.92
   4   3  -5   98.42    8.15
   4   3  -5  100.92    8.15
   4   3  -5   97.36    7.89
  -4   3   5  104.87    8.13
   3  -3  -5   57.32    4.71
  -3  -3   5   60.34    4.73
  -3  -3   5   58.94    4.57
   3  -3  -5   57.03    4.57
   3   3  -5   61.92    4.72
   3   3  -5   63.24    4.73
  -3   3   5   54.99    4.58
   3   3  -5   61.02    4.56
  -3   3   5   52.51    4.69
   2  -3  -5   97.88    8.22
  -2  -3   5  106.36    7.95
  -2  -3   5  108.62    8.24
   2  -3  -5   98.12    7.95
   2   3  -5  111.58    8.23
   2   3  -5  112.51    7.96
  -2   3   5   96.87    7.95
   2   3  -5  111.46    8.23
  -2   3   5   93.43    8.22
  -1  -3   5    3.88    0.65
  -1  -3   5    5.06    0.72
   1   3  -5    4.89    0.65
   1   3  -5    4.25    0.64
   1   3  -5    4.43    0.64
   0  -3   5   59.29    4.40
   0  -3   5   56.07    4.56
   0   3  -5   54.49    4.55
   0   3  -5   55.69    4.38
   0   3  -5   58.04    4.56
   1  -3   5   58.26    4.58
   1  -3   5   61.31    4.78
  -1   3  -5   58.91    4.77
  -2  -3  -5    9.16    1.07
  -2  -3  -5    8.05    0.76
   2   3   5    8.00    1.06
   2   3   5    8.55    0.81
   3  -3   5   39.78    3.46
  -3   3  -5   42.63    3.46
  -3   3  -5   38.39    3.44
   3   3   5   49.88    3.50
  -4  -3  -5   10.35    1.37
   4  -3   5   15.54    1.38
  -4   3  -5   15.73    1.32
  -4   3  -5   16.25    1.33
   4   3   5   10.25    1.43
   5  -3   5  120.44    9.93
  -5  -3  -5  136.13    9.95
  -5   3  -5  116.77    9.90
  -5   3  -5  135.43    9.92
   5   3   5  129.49    9.98
   5   3   5  119.82    9.95
   6  -3   5    4.49    0.65
  -6  -3  -5    3.42    0.57
  -6   3  -5    3.55    0.47
  -6   3  -5    3.33    0.47
   6   3   5    2.82    0.66
   6   3   5    3.23    0.69
  -7  -3  -5   16.58    1.56
   7  -3   5   16.70    1.57
   7   3   5   15.80    1.65
   7   3   5   18.05    1.65
   8  -3   5   24.01    2.23
   8   3   5   28.50    2.33
   8   3   5   26.31    2.33
   9  -3   5   53.51    4.19
   9  -3   5   51.37    4.19
   9   3   5   52.50    4.26
   9   3   5   50.43    4.26
  10  -3   5    5.00    0.84
  11  -3   5    2.70    0.76
  11   3   5    2.70    0.76
  12   3   5    7.08    1.13
  14   4  -5    0.95    0.92
  14   4  -5    0.99    0.80
  13  -4  -5    1.57    0.93
  13   4  -5    2.19    0.93
  13   4  -5    0.54    0.80
  12  -4  -5   -0.29    0.81
  12   4  -5    1.30    0.76
  12   4  -5    0.89    0.85
  11  -4  -5   -0.06    0.79
  11  -4  -5    0.43    0.58
  11   4  -5    0.50    0.75
  11   4  -5    0.14    0.76
  10  -4  -5    0.55    0.58
  10  -4  -5    0.41    0.73
  10   4  -5    0.65    0.70
  10   4  -5    0.38    0.69
   9  -4  -5    9.48    1.13
  -9  -4   5    9.03    1.00
   9  -4  -5    8.48    1.11
   9  -4  -5    8.93    1.24
   8  -4  -5    1.13    0.54
   8  -4  -5    0.69    0.61
  -8  -4   5    1.53    0.59
   8  -4  -5    2.30    0.72
   8   4  -5    2.35    0.66
   8   4  -5    2.09    0.71
   8   4  -5    1.82    0.72
  -7  -4   5   32.27    2.68
  -7  -4   5   29.51    2.61
   7   4  -5   29.75    2.66
   7   4  -5   31.80    2.68
   7   4  -5   30.63    2.61
  -6  -4   5    2.49    0.62
  -6  -4   5    1.47    0.58
   6  -4  -5    1.43    0.49
   6  -4  -5    1.08    0.58
   6   4  -5    1.86    0.60
  -6   4   5    0.27    0.48
   6   4  -5    2.60    0.62
  -6   4   5    0.76    0.48
   6   4  -5    2.12    0.59
  -5  -4   5  126.89    8.58
   5  -4  -5  105.65    8.79
  -5  -4   5  125.00    8.84
   5  -4  -5   96.09    8.55
  -5   4   5   99.20    8.80
  -5   4   5   99.37    8.78
   5   4  -5  126.48    8.84
  -5   4   5   99.70    8.56
   5   4  -5  126.04    8.57
  -4  -4   5    3.55    0.62
  -4  -4   5    3.12    0.60
   4  -4  -5    1.68    0.52
   4  -4  -5    2.20    0.58
  -4  -4   5    3.08    0.65
   4   4  -5    4.28    0.62
  -4   4   5    1.86    0.57
   4   4  -5    3.22    0.61
   4   4  -5    3.51    0.64
  -4   4   5    2.04    0.62
  -3  -4   5   22.81    1.91
  -3  -4   5   21.79    1.99
  -3  -4   5   21.88    1.99
   3   4  -5   21.99    1.97
   3   4  -5   21.40    1.96
   3   4  -5   22.60    1.89
  -2  -4   5    3.22    0.66
  -2  -4   5    2.81    0.55
  -2  -4   5    2.77    0.64
  -2   4   5    5.70    0.85
   2   4  -5    3.42    0.62
   2   4  -5    2.96    0.60
   2   4  -5    3.46    0.55
  -1  -4   5    1.92    0.58
  -1  -4   5    2.14    0.57
  -1  -4   5    2.11    0.47
   1   4  -5    2.56    0.46
   1   4  -5    2.53    0.56
   1   4  -5    2.24    0.53
   0  -4  -5    2.98    0.44
   0  -4   5    2.73    0.51
   0  -4   5    2.81    0.61
   0  -4   5    2.24    0.59
   0  -4  -5    3.79    0.56
   0   4  -5    2.86    0.48
   0   4   5    2.82    0.50
   0   4   5    3.57    0.62
   0   4  -5    2.90    0.56
   0   4  -5    3.37    0.58
   1  -4   5    1.83    0.54
  -1  -4  -5    0.79    0.30
   1  -4   5    1.55    0.52
   1  -4   5    2.45    0.45
  -1  -4  -5    1.09    0.47
   1   4   5    0.57    0.51
   1   4   5    0.63    0.38
  -1   4  -5    1.77    0.50
  -1   4  -5    1.79    0.45
   2  -4   5   53.66    4.46
  -2  -4  -5   51.28    4.22
  -2  -4  -5   57.69    4.49
   2  -4   5   57.93    4.32
   2  -4   5   53.38    4.46
   2   4   5   53.31    4.48
   2   4   5   60.12    4.54
  -2   4  -5   58.33    4.47
   2   4   5   58.40    4.24
  -2   4  -5   52.24    4.46
   3  -4   5   11.37    1.25
  -3  -4  -5   12.42    1.25
   3   4   5   11.36    1.24
  -3   4  -5   10.85    1.17
  -3   4  -5   11.38    1.19
   3   4   5   12.49    1.34
   4  -4   5   63.50    5.06
  -4  -4  -5   64.17    5.07
  -4   4  -5   67.90    5.05
  -4   4  -5   60.69    5.03
   4   4   5   63.54    5.11
   4   4   5   59.27    5.08
   5  -4   5    3.19    0.60
   5   4   5    1.40    0.61
  -5   4  -5    2.81    0.46
  -5   4  -5    3.51    0.48
   5   4   5    1.18    0.65
   6  -4   5    7.81    0.99
  -6   4  -5    7.95    0.88
  -6   4  -5    7.04    0.81
   7  -4   5    2.18    0.59
   7   4   5    1.46    0.67
   7   4   5    1.13    0.64
   8   4   5    1.05    0.63
   8   4   5    0.69    0.68
   9  -4   5    0.04    0.50
   9   4   5   -0.11    0.68
   9   4   5   -1.02    0.66
  10  -4   5    2.39    0.72
  10   4   5    1.12    0.72
  11  -4   5    0.10    0.67
  11   4   5   -0.34    0.72
  12   4   5    0.02    0.73
  13   4   5    0.53    0.72
  14   5  -5    0.95    0.85
  14   5  -5    0.99    0.92
  13  -5  -5    2.32    0.99
  13   5  -5    2.32    0.93
  13   5  -5    1.49    0.87
  12  -5  -5    8.07    1.29
  12   5  -5    7.52    1.18
  12   5  -5    7.61    1.24
  11  -5  -5    9.51    1.37
  11  -5  -5   10.33    1.09
  11   5  -5    7.75    1.23
  11   5  -5    7.19    1.19
  10  -5  -5   31.29    2.46
  10  -5  -5   28.83    2.58
  10   5  -5   26.64    2.54
  10   5  -5   27.30    2.56
   9  -5  -5   11.45    1.26
   9  -5  -5   11.20    1.42
  -9  -5   5   10.73    1.28
   9  -5  -5   11.87    1.31
   9   5  -5   14.10    1.41
   9   5  -5   12.37    1.45
   9   5  -5   12.49    1.41
   8  -5  -5   54.58    3.88
   8  -5  -5   54.33    3.89
  -8  -5   5   39.53    3.88
   8  -5  -5   54.40    3.93
   8   5  -5   42.30    3.84
   8   5  -5   44.81    3.95
   8   5  -5   42.97    3.94
  -7  -5   5    2.02    0.65
  -7  -5   5    2.63    0.65
   7  -5  -5    1.99    0.53
   7  -5  -5    1.99    0.65
   7   5  -5    2.66    0.67
  -7   5   5    2.01    0.52
   7   5  -5    2.78    0.64
   7   5  -5    2.37    0.70
   6  -5  -5   37.50    2.77
  -6  -5   5   30.54    2.75
  -6  -5   5   29.44    2.79
   6   5  -5   29.09    2.79
   6   5  -5   28.75    2.79
  -6   5   5   37.17    2.72
   6   5  -5   29.31    2.70
  -6   5   5   39.66    2.77
  -5  -5   5  107.49    8.57
  -5  -5   5  105.06    8.83
   5  -5  -5  125.86    8.60
   5  -5  -5  129.37    8.81
  -5  -5   5  100.41    8.82
   5   5  -5  103.16    8.55
   5   5  -5  102.52    8.83
   5   5  -5  108.25    8.83
  -5   5   5  121.31    8.79
  -4  -5   5  123.97   11.14
  -4  -5   5  132.86   10.78
   4  -5  -5  168.53   11.14
  -4  -5   5  137.33   11.16
  -4   5   5  156.79   11.12
  -4   5   5  159.90   11.14
   4   5  -5  132.68   10.78
   4   5  -5  133.00   11.15
   4   5  -5  127.92   11.13
   3  -5  -5   81.36    5.94
   3  -5  -5   79.37    5.76
  -3  -5   5   70.34    5.94
  -3  -5   5   72.02    5.96
  -3  -5   5   71.00    5.74
   3   5  -5   72.36    5.94
   3   5  -5   68.42    5.73
   3   5  -5   69.06    5.94
  -3   5   5   76.32    5.92
  -3   5   5   73.82    5.94
  -3   5   5   83.47    5.78
  -2  -5   5   68.35    5.52
  -2  -5   5   69.09    5.74
   2  -5  -5   77.67    5.73
  -2  -5   5   68.25    5.73
   2  -5  -5   75.17    5.53
  -2   5   5   78.46    5.55
   2   5  -5   69.25    5.73
  -2   5   5   71.35    5.72
   2   5  -5   68.22    5.51
   2   5  -5   68.47    5.72
  -2   5   5   72.80    5.74
   1  -5  -5  161.42   11.43
   1  -5  -5  163.65   11.85
  -1  -5   5  143.18   11.84
  -1  -5   5  142.58   11.84
  -1  -5   5  141.28   11.43
   1   5  -5  136.41   11.42
  -1   5   5  161.99   11.86
  -1   5   5  163.43   11.43
  -1   5   5  157.79   11.85
   1   5  -5  139.90   11.83
   1   5  -5  144.89   11.84
   0  -5  -5   13.31    1.33
   0  -5  -5   11.22    1.08
   0   5   5   11.39    1.11
   0   5   5   11.53    1.33
   0   5   5   11.00    1.24
   1  -5   5  110.88    9.27
  -1  -5  -5  135.03    9.30
  -1  -5  -5  125.62    8.91
   1  -5   5  106.21    9.27
   1  -5   5  106.71    8.94
  -1   5  -5  112.22    9.27
   1   5   5  125.00    9.30
   1   5   5  125.57    9.29
  -1   5  -5  100.25    9.26
   1   5   5  128.23    8.91
  -2  -5  -5   11.38    1.00
  -2  -5  -5   12.44    1.32
   2   5   5   12.08    1.34
   2   5   5   11.92    1.03
   2   5   5   12.16    1.28
   3  -5   5   22.27    2.17
   3  -5   5   23.66    2.17
  -3  -5  -5   29.02    2.21
  -3   5  -5   24.23    2.16
   3   5   5   29.22    2.23
  -3   5  -5   22.83    2.15
   4  -5   5   25.72    2.12
  -4  -5  -5   20.26    2.15
  -4   5  -5   26.31    2.08
   5  -5   5   21.85    2.18
  -5  -5  -5   27.54    2.23
   5   5   5   28.01    2.29
  -5   5  -5   24.62    2.14
   5   5   5   25.98    2.27
   6  -5   5    8.88    1.08
  -6   5  -5    8.44    0.91
   6   5   5    9.07    1.21
  -6   5  -5    9.53    0.98
   6   5   5   10.08    1.18
   7  -5   5    3.76    0.68
   7   5   5    4.68    0.79
   7   5   5    4.73    0.85
   8  -5   5    5.02    0.78
   8   5   5    7.77    1.17
   8   5   5    7.27    0.99
   9  -5   5   28.72    2.24
   9   5   5   25.71    2.40
   9   5   5   23.42    2.36
  10   5   5    7.32    1.16
  11  -5   5   12.79    1.47
  11   5   5   12.19    1.47
  12  -5   5    9.82    1.31
  12   5   5    7.98    1.31
  13   5   5    4.69    0.93
  14   6  -5    3.08    0.93
  13   6  -5    3.95    0.98
  13   6  -5    3.58    1.02
  12  -6  -5    2.08    0.94
  12   6  -5    3.02    0.90
  12   6  -5    2.32    0.89
  11  -6  -5    3.49    0.96
  11  -6  -5    3.53    0.72
  11   6  -5    5.42    0.96
  11   6  -5    5.75    0.99
  10  -6  -5    4.90    0.96
  10  -6  -5    3.81    0.72
   9  -6  -5    1.85    0.56
   9  -6  -5    1.45    0.73
   9  -6  -5    1.99    0.65
  -9  -6   5    2.92    0.66
   9   6  -5    2.67    0.73
   9   6  -5    3.33    0.82
   9   6  -5    3.06    0.77
  -8  -6   5    3.77    0.74
   8   6  -5    3.63    0.84
   8   6  -5    4.11    0.81
   8   6  -5    4.12    0.79
   7  -6  -5    0.60    0.61
  -7  -6   5    0.25    0.54
   7  -6  -5    0.63    0.49
  -7  -6   5   -0.08    0.58
   7   6  -5    0.03    0.59
  -7   6   5   -0.27    0.24
   7   6  -5    0.33    0.60
   7   6  -5    0.11    0.59
  -7   6   5    0.56    0.44
  -6  -6   5   22.78    2.13
   6  -6  -5   26.03    2.14
   6  -6  -5   23.52    2.13
  -6  -6   5   24.02    2.12
   6   6  -5   23.52    2.09
  -6   6   5   22.96    2.06
   6   6  -5   24.53    2.18
   6   6  -5   23.58    2.17
  -6   6   5   23.99    2.10
  -5  -6   5    6.63    1.02
  -5  -6   5    6.65    1.02
  -5  -6   5    7.18    1.12
   5   6  -5    6.92    1.03
   5   6  -5    5.82    0.93
   5   6  -5    7.06    1.05
   4  -6  -5    0.37    0.47
  -4  -6   5    0.12    0.53
  -4  -6   5    0.12    0.59
  -4  -6   5    0.54    0.48
   4  -6  -5    0.54    0.52
  -4   6   5    0.35    0.54
   4   6  -5    0.41    0.56
   4   6  -5    0.34    0.56
   4   6  -5    0.67    0.47
  -4   6   5    0.09    0.55
   3  -6  -5  158.21   14.78
  -3  -6   5  211.03   15.32
  -3  -6   5  207.31   14.81
  -3  -6   5  201.57   15.31
   3  -6  -5  162.58   15.27
   3   6  -5  212.42   15.31
   3   6  -5  205.58   15.31
   3   6  -5  202.27   14.79
  -2  -6   5   66.50    5.30
  -2  -6   5   64.16    5.11
  -2  -6   5   66.57    5.30
   2   6  -5   62.13    5.09
   2   6  -5   68.01    5.30
   2   6  -5   68.10    5.31
  -1  -6   5   39.49    3.37
  -1  -6   5   39.31    3.24
  -1  -6   5   40.95    3.38
   1   6  -5   42.34    3.39
   1   6  -5   42.25    3.37
   1   6  -5   40.55    3.23
   0  -6   5  124.61    9.76
   0  -6   5  125.05    9.41
   0  -6   5  120.77    9.74
   0   6  -5  123.95    9.74
   0   6  -5  123.08    9.74
   1  -6   5  141.98   10.61
  -1  -6  -5  119.99   10.61
   1  -6   5  142.88   10.61
  -1  -6  -5  116.21   10.18
   1  -6   5  149.86   10.25
  -1   6  -5  150.79   10.61
   1   6   5  113.80   10.61
  -1   6  -5  142.48   10.61
  -2  -6  -5   13.51    0.96
   2  -6   5    9.36    1.26
   2  -6   5    9.14    1.21
   2   6   5   15.42    1.41
  -2   6  -5    8.24    1.19
  -2   6  -5   10.61    1.23
   3  -6   5  313.84   24.23
  -3  -6  -5  300.47   24.24
   3  -6   5  326.32   24.24
  -3   6  -5  307.87   24.22
   3   6   5  313.69   24.26
   3   6   5  292.99   24.25
  -3   6  -5  316.11   24.21
  -4  -6  -5  130.70   10.19
   4  -6   5  127.00   10.17
   4  -6   5  129.78   10.16
   4   6   5  135.03   10.23
   4   6   5  121.16   10.19
  -4   6  -5  122.90   10.14
  -4   6  -5  137.26   10.15
  -5  -6  -5   12.64    1.38
   5  -6   5   13.71    1.35
   5   6   5   12.11    1.39
  -5   6  -5   11.62    1.20
   5   6   5   12.48    1.42
  -5   6  -5   14.28    1.28
   6  -6   5   11.40    1.19
   6   6   5    9.27    1.30
  -6   6  -5   11.08    1.05
   6   6   5   10.45    1.29
  -6   6  -5    9.68    0.99
   7  -6   5    5.06    0.76
   7   6   5    4.89    0.85
   7   6   5    5.00    0.89
   8  -6   5    8.69    1.16
   8   6   5   12.08    1.37
   8   6   5   10.09    1.35
   9  -6   5    2.26    0.62
   9   6   5    3.60    0.86
   9   6   5    4.36    0.82
  10   6   5   14.31    1.60
  11  -6   5   21.11    1.96
  11   6   5   18.77    1.95
  12  -6   5    0.14    0.74
  12   6   5    0.77    0.79
  13   6   5    6.72    1.07
  14   7  -5    1.42    0.89
  13   7  -5    1.37    0.90
  13   7  -5    0.81    0.88
  12  -7  -5    0.74    0.86
  12   7  -5    0.37    0.83
  12   7  -5    1.34    0.89
  11  -7  -5    0.02    0.78
  11   7  -5    0.37    0.79
  11   7  -5   -0.12    0.75
  10  -7  -5    6.34    1.03
  10  -7  -5    5.87    0.87
  10   7  -5    3.46    0.88
  10   7  -5    3.08    0.89
   9  -7  -5    0.13    0.51
   9  -7  -5    0.69    0.70
   9   7  -5    0.29    0.68
   9   7  -5    1.01    0.68
   9   7  -5    0.89    0.76
   8  -7  -5   11.79    1.35
  -8  -7   5    9.71    1.28
   8  -7  -5   12.13    1.29
   8   7  -5   10.12    1.36
   8   7  -5   10.57    1.30
   8   7  -5    9.64    1.39
  -7  -7   5    0.46    0.56
   7  -7  -5    0.51    0.50
  -7  -7   5    0.75    0.64
   7  -7  -5    0.38    0.63
  -7   7   5    0.00    0.24
   7   7  -5    0.40    0.59
   7   7  -5    0.15    0.65
   7   7  -5    0.08    0.68
  -7   7   5    0.82    0.47
  -6  -7   5   22.06    2.12
   6  -7  -5   24.64    2.12
   6  -7  -5   25.42    2.12
  -6  -7   5   23.66    2.12
  -6   7   5   23.44    2.07
   6   7  -5   23.88    2.08
   6   7  -5   24.16    2.19
   6   7  -5   21.15    2.13
  -6   7   5   23.37    2.04
  -5  -7   5    7.27    1.11
  -5  -7   5    6.75    1.00
   5   7  -5    7.31    1.11
   5   7  -5    6.45    0.94
   5   7  -5    6.73    0.93
  -4  -7   5  247.71   18.22
   4  -7  -5  223.26   18.18
  -4  -7   5  256.41   18.23
   4  -7  -5  206.15   17.61
  -4  -7   5  242.84   17.61
   4   7  -5  246.16   18.22
  -4   7   5  198.66   18.16
  -4   7   5  208.60   18.18
   4   7  -5  259.67   18.23
   4   7  -5  234.19   17.60
  -3  -7   5    7.33    1.10
  -3  -7   5    6.69    0.96
  -3  -7   5    7.33    1.07
   3   7  -5    6.94    0.92
   3   7  -5    7.15    1.02
   3   7  -5    6.48    1.06
   2  -7  -5   65.07    5.06
  -2  -7   5   62.78    5.06
  -2  -7   5   62.33    4.88
   2  -7  -5   64.94    4.88
  -2  -7   5   61.91    5.07
   2   7  -5   61.31    4.87
  -2   7   5   59.33    5.04
   2   7  -5   62.35    5.07
   2   7  -5   63.65    5.07
  -2   7   5   62.85    5.07
  -1  -7   5    3.02    0.57
  -1  -7   5    3.55    0.69
  -1  -7   5    3.44    0.68
  -1   7   5    6.54    0.94
   1   7  -5    3.90    0.68
   1   7  -5    4.50    0.68
   0  -7   5   93.92    7.26
   0  -7  -5   88.60    6.95
   0  -7   5   94.28    7.25
   0  -7  -5   88.90    7.26
   0  -7   5   95.36    7.00
   0   7   5   87.81    7.27
   0   7  -5   93.14    7.24
   0   7   5   81.72    7.24
   0   7  -5   96.07    7.25
  -1  -7  -5  146.39   10.84
   1  -7   5  124.12   10.82
   1  -7   5  129.22   10.82
  -1  -7  -5  149.75   10.41
   1  -7   5  132.82   10.46
  -1   7  -5  126.69   10.82
   1   7   5  145.46   10.85
   1   7   5  149.99   10.87
  -1   7  -5  133.18   10.83
  -2  -7  -5  207.73   15.39
   2  -7   5  193.14   15.36
  -2  -7  -5  189.99   14.77
   2  -7   5  195.89   15.38
  -2   7  -5  185.97   15.36
   2   7   5  206.58   15.41
   2   7   5  196.80   15.39
  -2   7  -5  192.65   15.36
   3  -7   5  308.88   23.98
   3  -7   5  302.81   23.99
  -3  -7  -5  322.00   24.02
   3   7   5  315.99   24.03
  -3   7  -5  294.43   23.97
  -3   7  -5  305.18   23.97
   3   7   5  300.10   24.01
   4  -7   5   30.68    2.58
   4  -7   5   29.14    2.58
  -4  -7  -5   31.42    2.63
  -4   7  -5   31.73    2.55
   4   7   5   29.43    2.63
  -4   7  -5   28.78    2.54
   4   7   5   31.42    2.66
   5  -7   5  209.04   16.36
   5  -7   5  208.74   16.37
  -5   7  -5  194.90   16.32
   5   7   5  228.46   16.43
  -5   7  -5  207.22   16.33
   5   7   5  205.71   16.41
   6  -7   5    3.54    0.69
   6   7   5    2.62    0.73
   6   7   5    2.02    0.78
  -6   7  -5    3.46    0.47
  -6   7  -5    3.04    0.48
   7  -7   5   95.61    7.31
   7   7   5   88.36    7.38
   7   7   5   92.38    7.39
   8  -7   5   26.67    2.39
   8   7   5   27.31    2.53
   8   7   5   29.91    2.57
   9   7   5   47.53    4.00
  10   7   5    7.72    1.15
  11  -7   5    0.08    0.70
  11   7   5   -0.15    0.81
  12  -7   5    6.01    1.08
  12   7   5    8.01    1.26
  13   7   5    1.17    0.85
  14   8  -5    9.19    1.46
  13   8  -5   -0.11    0.84
  13   8  -5   -0.20    0.88
  12  -8  -5    2.21    0.97
  12   8  -5    4.58    1.01
  12   8  -5    6.14    1.07
  11  -8  -5    1.32    0.59
  11  -8  -5    0.44    0.82
  11   8  -5    1.15    0.85
  11   8  -5    1.64    0.80
  10  -8  -5    1.79    0.64
  10  -8  -5    1.00    0.77
  10   8  -5    2.08    0.79
  10   8  -5    1.66    0.83
   9  -8  -5   24.92    2.69
   9   8  -5   35.05    2.84
   9   8  -5   33.26    2.75
   9   8  -5   34.99    2.85
   8  -8  -5   -0.01    0.50
   8  -8  -5    0.33    0.67
  -8  -8   5    1.03    0.66
   8   8  -5    0.35    0.74
   8   8  -5    0.73    0.71
   8   8  -5    1.25    0.69
  -7  -8   5   17.73    1.84
  -7  -8   5   19.80    1.84
   7   8  -5   19.34    1.93
   7   8  -5   17.80    1.88
   7   8  -5   19.89    1.80
  -6  -8   5   39.73    3.71
  -6  -8   5   45.50    3.65
   6  -8  -5   47.98    3.67
   6  -8  -5   50.58    3.70
   6   8  -5   43.35    3.74
  -6   8   5   46.31    3.67
  -6   8   5   46.15    3.65
   6   8  -5   41.85    3.59
   6   8  -5   40.76    3.75
  -5  -8   5  199.41   13.66
   5  -8  -5  171.50   14.05
  -5  -8   5  190.32   14.11
   5  -8  -5  155.88   13.63
  -5   8   5  161.20   14.05
  -5   8   5  154.66   14.03
   5   8  -5  201.34   14.11
   5   8  -5  191.99   14.12
   5   8  -5  186.36   13.63
  -4  -8   5    2.74    0.62
  -4  -8   5    2.99    0.75
  -4  -8   5    2.12    0.68
   4  -8  -5    4.02    0.63
   4   8  -5    2.72    0.59
  -4   8   5    3.56    0.67
  -4   8   5    4.20    0.68
   4   8  -5    2.69    0.70
   4   8  -5    3.05    0.70
  -3  -8   5  267.19   19.36
  -3  -8   5  259.21   19.36
   3  -8  -5  224.69   18.69
  -3  -8   5  263.13   18.71
   3  -8  -5  230.00   19.32
   3   8  -5  262.79   19.36
  -3   8   5  218.89   19.32
  -3   8   5  232.64   19.34
   3   8  -5  257.93   19.36
   3   8  -5  253.04   18.70
  -2  -8   5   27.06    2.60
  -2  -8   5   29.18    2.61
  -2  -8   5   27.83    2.48
  -2   8   5   37.40    2.64
  -2   8   5   35.69    2.61
   2   8  -5   27.67    2.58
   2   8  -5   27.63    2.45
   2   8  -5   28.71    2.59
  -1  -8   5    5.70    0.80
  -1  -8   5    4.55    0.68
  -1  -8   5    4.67    0.79
   1   8  -5    5.04    0.78
   1   8  -5    5.48    0.76
   0  -8   5   18.84    1.86
   0  -8  -5   21.64    1.70
   0  -8   5   19.38    1.74
   0  -8  -5   19.45    1.84
   0  -8   5   19.05    1.86
   0   8  -5   20.28    1.86
   0   8  -5   19.74    1.86
   0   8   5   20.71    1.90
   0   8   5   21.23    1.94
   1  -8   5   22.11    2.02
   1  -8   5   21.08    2.01
   1  -8   5   22.90    1.91
  -1   8  -5   22.81    2.01
  -1   8  -5   22.61    2.02
   2  -8   5  113.05    8.91
  -2  -8  -5  108.20    8.50
   2  -8   5  115.46    8.89
  -2  -8  -5  117.20    8.92
   2   8   5  109.63    8.92
  -2   8  -5  105.58    8.88
   2   8   5  114.69    8.94
  -2   8  -5  116.28    8.89
   3  -8   5    7.32    1.09
   3  -8   5    7.24    1.05
  -3   8  -5    6.88    1.02
   3   8   5   10.94    1.22
  -3   8  -5    8.33    1.04
   4  -8   5   34.12    2.65
   4  -8   5   33.47    2.68
  -4   8  -5   35.86    2.63
  -4   8  -5   31.10    2.60
   4   8   5   26.65    2.72
   4   8   5   25.15    2.70
   5  -8   5   28.94    2.70
   5  -8   5   31.19    2.69
  -5   8  -5   31.43    2.64
  -5   8  -5   29.27    2.62
   5   8   5   35.25    2.81
   5   8   5   36.43    2.82
   6  -8   5    7.82    0.99
   6  -8   5    8.65    1.08
   6   8   5    6.03    1.03
   6   8   5    6.55    1.02
  -6   8  -5    7.64    0.90
  -6   8  -5    7.65    0.83
   7  -8   5    0.58    0.59
   7   8   5    2.09    0.79
   7   8   5    1.27    0.81
   8  -8   5    5.69    0.89
   8   8   5    4.74    0.93
   8   8   5    4.26    0.98
   9  -8   5    8.61    1.02
   9   8   5    7.02    1.16
  10   8   5    4.91    1.02
  11  -8   5    1.40    0.71
  11   8   5    0.56    0.87
  12  -8   5    1.54    0.80
  12   8   5    0.93    0.83
  13   8   5    1.54    0.89
  14   8   5    0.01    0.84
  14   9  -5    0.45    0.96
  13   9  -5    4.48    1.03
  13   9  -5    4.62    1.08
  12  -9  -5   14.87    1.78
  12   9  -5   14.20    1.69
  12   9  -5   15.12    1.77
  11  -9  -5   18.26    1.64
  11  -9  -5   15.20    1.87
  11   9  -5   17.13    1.82
  11   9  -5   19.23    1.93
  10  -9  -5   19.08    1.94
  10   9  -5   17.46    1.93
  10   9  -5   19.42    1.85
   9  -9  -5   19.12    1.91
   9   9  -5   18.87    1.83
   9   9  -5   17.95    1.90
   8  -9  -5   13.93    1.45
  -8  -9   5    9.92    1.39
   8  -9  -5   14.85    1.37
   8   9  -5    9.23    1.44
   8   9  -5   11.30    1.34
   8   9  -5   11.11    1.52
  -7  -9   5    2.26    0.67
   7  -9  -5    1.02    0.66
   7  -9  -5    1.12    0.55
  -7  -9   5    2.45    0.74
   7   9  -5    1.58    0.79
   7   9  -5    2.15    0.69
   7   9  -5    2.70    0.77
  -6  -9   5   41.24    3.41
   6  -9  -5   47.85    3.45
  -6  -9   5   39.61    3.51
   6   9  -5   40.06    3.37
   6   9  -5   39.78    3.52
  -6   9   5   43.54    3.40
   6   9  -5   38.25    3.52
   5  -9  -5   27.40    2.45
   5  -9  -5   26.50    2.39
  -5  -9   5   30.92    2.41
  -5  -9   5   27.99    2.48
   5   9  -5   30.37    2.53
   5   9  -5   28.33    2.36
  -5   9   5   23.04    2.40
   5   9  -5   28.95    2.50
   4  -9  -5   41.08    3.03
   4  -9  -5   41.59    2.94
  -4  -9   5   32.30    2.90
  -4  -9   5   32.78    3.03
  -4   9   5   36.40    2.98
   4   9  -5   31.85    2.89
  -4   9   5   38.24    3.02
   4   9  -5   32.98    3.03
   4   9  -5   31.89    3.03
   3  -9  -5   64.47    4.35
  -3  -9   5   50.27    4.51
  -3  -9   5   52.75    4.50
  -3  -9   5   48.52    4.31
  -3   9   5   63.57    4.51
   3   9  -5   49.41    4.30
   3   9  -5   51.89    4.50
   3   9  -5   51.49    4.50
  -3   9   5   62.00    4.49
   2  -9  -5   42.24    2.93
  -2  -9   5   32.17    2.92
   2  -9  -5   41.74    3.06
  -2  -9   5   33.95    3.08
  -2  -9   5   30.98    3.05
  -2   9   5   38.60    3.07
   2   9  -5   32.66    3.06
  -2   9   5   39.65    3.06
   2   9  -5   32.66    3.04
  -1  -9   5  156.36   12.87
  -1  -9   5  155.06   12.42
   1  -9  -5  168.29   12.87
   1  -9  -5  169.42   12.41
  -1  -9   5  164.87   12.88
   1   9  -5  158.08   12.87
  -1   9   5  165.31   12.87
  -1   9   5  168.16   12.88
   1   9  -5  165.74   12.87
   0  -9   5   21.01    2.07
   0  -9   5   21.56    1.96
   0  -9   5   20.80    2.06
   0  -9  -5   26.23    1.91
   0  -9  -5   26.07    2.10
   0   9  -5   20.35    2.06
   0   9   5   24.00    2.12
   0   9   5   23.92    2.09
   0   9  -5   21.50    2.04
   1  -9   5   26.90    2.19
   1  -9   5   26.39    2.29
   1  -9   5   23.94    2.27
  -1   9  -5   26.28    2.28
  -1   9  -5   25.40    2.28
   2  -9   5    2.68    0.67
   2  -9   5    2.72    0.64
  -2  -9  -5    2.67    0.62
  -2  -9  -5    2.62    0.38
   2   9   5    1.77    0.73
   2   9   5    1.95    0.71
  -2   9  -5    3.03    0.63
  -2   9  -5    2.86    0.59
   3  -9   5   13.56    1.46
   3  -9   5   13.65    1.43
  -3   9  -5   13.87    1.42
  -3   9  -5   16.00    1.46
   4  -9   5   13.20    1.35
   4  -9   5   13.30    1.39
  -4   9  -5   12.59    1.28
  -4   9  -5   13.14    1.31
   5  -9   5    1.87    0.58
   5  -9   5    1.34    0.63
   5   9   5    3.48    0.80
   5   9   5    3.65    0.81
  -5   9  -5    1.92    0.47
  -5   9  -5    1.39    0.48
   6  -9   5    3.83    0.73
   6  -9   5    4.65    0.73
  -6   9  -5    3.79    0.52
  -6   9  -5    3.68    0.52
   6   9   5    1.79    0.82
   6   9   5    2.78    0.83
   7  -9   5    2.08    0.65
   7   9   5    2.06    0.82
   7   9   5    1.88    0.83
   8  -9   5    3.37    0.67
   8   9   5    1.54    0.80
   8   9   5    1.26    0.85
   9  -9   5   14.51    1.45
   9   9   5   14.58    1.72
  10   9   5    1.59    0.91
  11   9   5    6.50    1.14
  12  -9   5    1.96    0.85
  12   9   5    3.05    0.98
  13   9   5    4.81    1.03
  14   9   5    7.10    1.18
  13  10  -5    3.59    1.06
  12  10  -5    1.64    0.83
  12  10  -5    0.58    0.96
  11 -10  -5   31.57    2.49
  11 -10  -5   27.89    2.67
  11  10  -5   25.67    2.54
  11  10  -5   28.48    2.71
  10 -10  -5    4.78    1.06
  10  10  -5    8.00    1.12
  10  10  -5    7.27    1.15
   9 -10  -5    7.18    1.13
   9  10  -5    7.85    1.14
   9  10  -5    8.19    1.31
  -8 -10   5   24.68    2.33
   8  10  -5   28.04    2.43
   8  10  -5   24.92    2.25
   8  10  -5   23.79    2.36
   7 -10  -5    4.23    0.81
  -7 -10   5    1.68    0.66
  -7 -10   5    1.68    0.75
   7  10  -5    0.81    0.80
   7  10  -5    2.08    0.67
   7  10  -5    1.56    0.78
  -6 -10   5    0.55    0.70
   6 -10  -5    0.92    0.62
   6 -10  -5    1.26    0.54
  -6 -10   5    0.41    0.57
   6  10  -5    0.61    0.56
   6  10  -5    0.23    0.71
   6  10  -5    0.18    0.71
  -6  10   5    0.41    0.54
  -5 -10   5   14.83    1.50
  -5 -10   5   14.32    1.56
   5  10  -5   15.33    1.63
   5  10  -5   13.33    1.55
   5  10  -5   14.04    1.44
   4 -10  -5    2.15    0.57
  -4 -10   5    2.61    0.75
  -4 -10   5    3.28    0.66
   4 -10  -5    2.89    0.62
   4  10  -5    3.10    0.63
   4  10  -5    3.22    0.75
  -4  10   5    1.31    0.65
   4  10  -5    2.83    0.74
   3 -10  -5    0.76    0.49
  -3 -10   5    0.34    0.66
   3 -10  -5    0.86    0.50
  -3 -10   5    0.08    0.49
  -3 -10   5    0.19    0.62
   3  10  -5   -0.11    0.59
  -3  10   5   -0.20    0.56
   3  10  -5    0.15    0.64
  -3  10   5    0.26    0.59
   2 -10  -5   16.34    1.48
  -2 -10   5   11.70    1.36
   2 -10  -5   16.21    1.32
  -2 -10   5   11.97    1.50
  -2 -10   5   12.39    1.50
   2  10  -5   11.44    1.45
  -2  10   5   14.91    1.50
  -2  10   5   16.22    1.48
   2  10  -5   11.39    1.48
  -1 -10   5   36.59    3.16
  -1 -10   5   38.45    3.17
  -1 -10   5   35.49    3.01
   1  10  -5   38.87    3.16
   1  10  -5   36.83    3.17
   0 -10  -5   36.06    3.03
   0 -10  -5   35.47    2.81
   0 -10  -5   35.67    3.00
   0  10   5   34.95    3.03
   0  10   5   34.39    3.02
  -1 -10  -5   27.69    2.63
  -1 -10  -5   30.06    2.64
  -1 -10  -5   27.54    2.38
   1 -10   5   36.58    2.63
   1 -10   5   32.94    2.61
   1  10   5   25.96    2.62
   1  10   5   25.34    2.63
  -1  10  -5   33.79    2.60
   2 -10   5   74.57    5.77
  -2 -10  -5   73.03    5.80
  -2 -10  -5   75.36    5.47
  -2 -10  -5   72.19    5.82
   2 -10   5   69.29    5.77
   2  10   5   69.62    5.80
  -2  10  -5   74.11    5.76
  -2  10  -5   67.62    5.74
   2  10   5   69.39    5.81
   3 -10   5   68.94    5.68
   3 -10   5   74.15    5.68
  -3  10  -5   67.36    5.64
  -3  10  -5   71.82    5.66
   4 -10   5   27.12    2.40
   4 -10   5   28.94    2.40
  -4  10  -5   25.21    2.32
  -4  10  -5   28.50    2.38
   5 -10   5    0.61    0.58
   5 -10   5    2.02    0.65
   5  10   5    1.52    0.76
   5  10   5    1.25    0.76
  -5  10  -5    1.53    0.50
   6 -10   5    2.50    0.65
   6 -10   5    2.67    0.67
  -6  10  -5    1.27    0.35
   6  10   5    0.85    0.79
   6  10   5    0.57    0.77
   7 -10   5   33.19    2.75
   7 -10   5   33.95    2.74
   7  10   5   29.35    2.86
   7  10   5   31.64    2.90
   8  10   5    3.36    0.94
   8  10   5    3.69    0.96
   9 -10   5   23.09    2.25
   9  10   5   30.73    2.53
  10  10   5    7.32    1.22
  11  10   5   11.74    1.61
  12 -10   5    0.62    0.79
  12  10   5    0.37    0.89
  13  10   5    3.26    1.04
  13  11  -5    0.79    1.00
  12  11  -5    3.01    1.05
  12  11  -5    3.10    0.92
  11 -11  -5    0.49    0.82
  11 -11  -5   -0.28    0.60
  11  11  -5    0.18    0.73
  11  11  -5    0.67    0.94
  10 -11  -5    1.12    0.84
  10  11  -5    2.45    0.80
  10  11  -5    3.19    0.99
   9 -11  -5   21.44    2.24
   9  11  -5   25.31    2.20
   9  11  -5   25.27    2.32
  -8 -11   5    2.79    0.78
   8 -11  -5    1.29    0.74
   8 -11  -5    2.02    0.61
   8  11  -5    3.00    0.86
   8  11  -5    2.25    0.73
   8  11  -5    2.47    0.86
  -7 -11   5    2.36    0.81
   7  11  -5    1.97    0.83
   7  11  -5    2.33    0.69
   7  11  -5    1.94    0.85
   6 -11  -5   11.48    1.27
   6 -11  -5   10.90    1.24
  -6 -11   5    9.07    1.33
  -6 -11   5    9.49    1.24
  -6  11   5    9.43    1.17
   6  11  -5   10.90    1.44
   6  11  -5    7.43    1.33
   6  11  -5   10.85    1.22
  -5 -11   5    6.45    0.90
  -5 -11   5    6.33    0.99
   5  11  -5    5.89    0.98
   5  11  -5    5.68    0.98
   5  11  -5    5.21    0.84
   4 -11  -5    1.52    0.54
   4 -11  -5    1.29    0.55
  -4 -11   5    1.17    0.56
  -4 -11   5    0.30    0.68
   4  11  -5    0.74    0.69
   4  11  -5    1.29    0.68
  -4  11   5    0.28    0.60
  -3 -11   5    0.50    0.49
  -3 -11   5    0.73    0.63
   3  11  -5   -0.02    0.65
   3  11  -5    0.48    0.64
  -3  11   5    1.83    0.66
   2 -11  -5   42.98    3.78
  -2 -11   5   49.56    3.84
  -2 -11   5   46.58    3.65
  -2 -11   5   48.09    3.84
   2 -11  -5   40.93    3.62
   2  11  -5   49.51    3.85
   2  11  -5   46.77    3.81
  -2  11   5   41.75    3.79
   1 -11  -5   10.14    1.10
  -1 -11   5   12.28    1.35
   1 -11  -5   10.22    1.31
  -1 -11   5   10.75    1.19
  -1 -11   5   13.71    1.36
   1 -11  -5    9.07    1.29
   1  11  -5   11.34    1.27
  -1  11   5    8.87    1.33
   1  11  -5   11.82    1.35
  -1  11   5    9.45    1.35
   0 -11   5   38.96    2.88
   0 -11   5   39.94    2.75
   0 -11  -5   29.06    2.86
   0 -11  -5   31.76    2.87
   0 -11  -5   29.58    2.65
   0  11   5   27.74    2.85
   0  11  -5   39.98    2.88
   0  11   5   28.56    2.87
  -1 -11  -5   19.01    1.85
   1 -11   5   16.75    1.79
  -1 -11  -5   19.85    1.85
   1 -11   5   17.72    1.80
  -1 -11  -5   20.34    1.58
   1  11   5   20.41    1.90
  -1  11  -5   16.60    1.80
   1  11   5   19.95    1.88
  -1  11  -5   18.28    1.79
  -2 -11  -5    2.02    0.67
  -2 -11  -5    2.18    0.58
   2  11   5    1.56    0.73
   2  11   5    1.15    0.72
   3 -11   5   31.01    2.62
  -3 -11  -5   29.03    2.67
   3 -11   5   32.98    2.62
   3  11   5   26.87    2.62
   3  11   5   29.89    2.71
  -3  11  -5   29.82    2.56
   4 -11   5    6.80    1.11
   4 -11   5    7.21    1.07
  -4  11  -5    7.44    0.98
   4  11   5    7.76    1.27
   4  11   5    7.81    1.22
   5 -11   5   56.78    4.56
   5 -11   5   52.15    4.55
   5  11   5   63.72    4.65
  -5  11  -5   51.90    4.50
   6 -11   5    1.26    0.68
   6 -11   5    1.19    0.63
   6  11   5    3.44    0.91
   6  11   5    3.21    0.87
   7 -11   5   55.16    4.41
   7 -11   5   52.86    4.41
   7  11   5   57.75    4.55
   7  11   5   50.24    4.50
   8 -11   5    4.98    0.79
   8  11   5    4.75    1.00
   8  11   5    4.55    1.02
   9 -11   5    1.16    0.60
   9  11   5    0.30    0.84
  10  11   5    0.98    0.92
  11  11   5    0.16    0.88
  12 -11   5    0.79    0.80
  12  11   5   -0.55    0.88
  13  11   5    2.57    1.05
  13  12  -5   -0.22    0.94
  12  12  -5    4.48    1.01
  12  12  -5    6.44    1.21
  11 -12  -5    9.40    1.57
  11  12  -5   11.91    1.45
  11  12  -5   14.39    1.70
  10  12  -5   22.12    2.09
  10  12  -5   22.18    2.26
   9 -12  -5    4.04    0.98
   9  12  -5    5.73    1.06
   9  12  -5    4.90    0.90
   8 -12  -5    2.46    0.78
  -8 -12   5    1.34    0.74
   8  12  -5    1.71    0.84
   8  12  -5    1.03    0.83
   8  12  -5    1.03    0.70
   7 -12  -5   61.04    5.45
  -7 -12   5   70.23    5.55
   7  12  -5   75.38    5.59
   7  12  -5   67.92    5.32
   7  12  -5   62.97    5.52
  -6 -12   5    0.02    0.73
   6 -12  -5    2.17    0.59
   6 -12  -5    1.63    0.67
  -6 -12   5    1.30    0.61
  -6  12   5    1.36    0.60
   6  12  -5    1.04    0.80
   6  12  -5    0.60    0.78
   6  12  -5    1.46    0.64
  -5 -12   5   30.84    2.49
   5 -12  -5   28.36    2.50
  -5 -12   5   30.97    2.63
   5 -12  -5   25.70    2.45
   5  12  -5   28.39    2.60
  -5  12   5   24.14    2.49
   5  12  -5   32.17    2.66
  -4 -12   5    6.62    0.98
   4 -12  -5    4.99    0.81
  -4 -12   5    7.71    1.04
   4 -12  -5    4.90    0.79
   4  12  -5    6.92    1.03
  -4  12   5    4.12    0.86
   4  12  -5    7.15    1.01
   3 -12  -5   62.64    4.52
  -3 -12   5   47.83    4.51
   3 -12  -5   59.45    4.36
  -3 -12   5   53.45    4.36
   3  12  -5   50.20    4.51
  -3  12   5   55.96    4.50
   3  12  -5   54.18    4.56
  -2 -12   5    2.76    0.78
  -2 -12   5    3.25    0.81
  -2 -12   5    3.80    0.68
   2 -12  -5    5.89    0.79
   2  12  -5    3.23    0.80
   2  12  -5    2.98    0.79
  -2  12   5    4.12    0.84
   1 -12  -5    2.86    0.54
  -1 -12   5    1.28    0.54
   1 -12  -5    2.34    0.62
  -1 -12   5    0.69    0.68
  -1 -12   5    1.04    0.65
   1 -12  -5    2.15    0.66
  -1  12   5    1.32    0.71
   1  12  -5    0.67    0.66
   0 -12  -5    6.19    0.89
   0 -12  -5    5.62    0.83
   0 -12  -5    5.63    0.78
   0  12   5    5.20    0.95
  -1 -12  -5   74.24    5.46
  -1 -12  -5   70.59    5.49
   1 -12   5   56.16    5.43
  -1 -12  -5   72.15    5.17
   1  12   5   70.17    5.48
   1  12   5   72.72    5.49
  -1  12  -5   54.41    5.41
  -2 -12  -5   32.15    2.76
  -2 -12  -5   32.74    2.45
   2 -12   5   29.74    2.69
   2 -12   5   29.21    2.69
   2  12   5   29.53    2.74
   2  12   5   31.60    2.78
  -2  12  -5   30.20    2.65
  -3 -12  -5    0.71    0.29
   3 -12   5    2.65    0.69
  -3 -12  -5    0.73    0.64
   3 -12   5    2.11    0.71
  -3  12  -5    2.06    0.62
   3  12   5    0.37    0.74
   3  12   5    0.42    0.74
   4 -12   5    9.79    1.28
   4 -12   5   11.11    1.31
  -4  12  -5    9.82    1.18
   5 -12   5    2.17    0.69
   5 -12   5    2.36    0.77
  -5  12  -5    2.34    0.61
   6 -12   5   30.51    2.39
   6 -12   5   29.30    2.39
   6  12   5   21.94    2.47
   6  12   5   23.65    2.55
   7 -12   5    3.65    0.74
   7 -12   5    3.14    0.70
   7  12   5    1.88    0.90
   7  12   5    1.96    0.88
   8 -12   5    9.05    1.20
   8  12   5   10.24    1.45
   9 -12   5    6.89    0.95
   9  12   5    1.70    0.95
  10  12   5    3.69    1.09
  11  12   5    0.01    0.92
  12 -12   5    0.79    0.80
  12  12   5    0.02    0.92
  12  13  -5    1.08    0.84
  12  13  -5    1.35    1.02
  11  13  -5    4.97    1.02
  11  13  -5    5.86    1.22
  10 -13  -5    7.46    1.26
  10  13  -5    8.96    1.27
  10  13  -5    9.20    1.36
   9 -13  -5    0.08    0.72
   9  13  -5    0.63    0.70
   9  13  -5    0.95    0.93
  -8 -13   5   13.46    1.59
   8  13  -5   13.89    1.51
   8  13  -5   14.18    1.65
  -7 -13   5    1.22    0.77
   7 -13  -5    1.15    0.64
   7 -13  -5    1.63    0.73
   7  13  -5    0.55    0.81
   7  13  -5    0.78    0.65
  -6 -13   5   18.32    2.01
   6 -13  -5   22.32    1.96
   6 -13  -5   19.55    1.89
   6  13  -5   17.38    1.97
  -6  13   5   19.69    1.85
  -5 -13   5    0.31    0.57
   5 -13  -5    0.38    0.58
  -5 -13   5   -0.24    0.72
   5 -13  -5   -0.14    0.58
  -5  13   5    0.03    0.65
   5  13  -5   -0.57    0.74
   4 -13  -5    0.89    0.59
  -4 -13   5    0.59    0.79
  -4 -13   5    2.09    0.63
   4 -13  -5    0.47    0.57
  -4  13   5    1.07    0.69
   4  13  -5    0.86    0.79
   3 -13  -5  121.66    9.78
   3 -13  -5  124.17   10.14
   3 -13  -5  139.96   10.15
  -3 -13   5  131.20    9.81
  -3 -13   5  121.58   10.15
  -3  13   5  127.11   10.13
   3  13  -5  127.47   10.16
   2 -13  -5    9.26    1.07
   2 -13  -5    9.19    1.26
   2 -13  -5    8.92    1.27
  -2  13   5    9.06    1.31
   1 -13  -5   54.87    4.20
   1 -13  -5   54.36    4.40
   1 -13  -5   49.91    4.40
  -1  13   5   53.58    4.43
   0 -13  -5   17.15    1.57
   0 -13  -5   15.91    1.60
   0 -13   5   12.83    1.45
   0 -13   5   12.31    1.56
   0 -13   5   12.96    1.56
   0 -13  -5   16.18    1.36
   0  13  -5   11.98    1.54
   0  13   5   15.75    1.67
   1 -13   5   25.38    2.38
   1 -13   5   27.51    2.39
  -1  13  -5   25.70    2.36
  -2 -13  -5   14.68    1.26
  -2 -13  -5   13.04    1.59
   2  13   5   13.22    1.62
  -3 -13  -5    7.93    0.77
   3 -13   5    7.18    1.14
  -3 -13  -5    7.67    1.07
   3 -13   5    8.72    1.19
  -3  13  -5    6.64    1.08
   3  13   5    6.97    1.10
   3  13   5    7.31    1.13
   4 -13   5   -0.94    0.66
  -4 -13  -5   -0.83    0.64
   4 -13   5   -1.12    0.62
   4  13   5   -0.06    0.83
  -4  13  -5   -0.35    0.58
   4  13   5   -0.79    0.75
  -5 -13  -5    9.06    1.33
   5 -13   5    7.30    1.17
   5 -13   5    7.25    1.18
   5  13   5    7.60    1.18
  -5  13  -5    6.33    0.99
   5  13   5    7.18    1.14
   6 -13   5    3.92    0.75
   6 -13   5    3.03    0.76
   6  13   5    1.16    0.86
  -6  13  -5    2.19    0.48
   6  13   5    1.42    0.89
   7 -13   5    2.27    0.70
   7 -13   5    1.96    0.68
   7  13   5    0.51    0.81
   7  13   5   -0.04    0.84
   8 -13   5    9.00    1.21
   9 -13   5    1.62    0.68
   9  13   5    3.92    1.05
  10  13   5    0.36    0.92
  11  13   5    3.47    1.17
  12  13   5    1.03    1.01
  12  14  -5    2.47    1.11
  11  14  -5    0.20    0.80
  11  14  -5    0.54    0.99
  10 -14  -5    1.00    0.84
  10  14  -5    2.01    1.03
  10  14  -5    2.61    0.85
   9 -14  -5    4.37    0.96
   9  14  -5    4.24    1.10
   9  14  -5    3.95    0.89
  -8 -14   5    7.76    1.26
   8 -14  -5    5.22    1.06
   8  14  -5    8.54    1.25
   7 -14  -5    1.57    0.72
   7 -14  -5    2.35    0.68
  -7 -14   5    3.38    0.89
   7  14  -5    2.37    0.91
   6 -14  -5    8.55    1.24
   6 -14  -5   12.32    1.37
  -6  14   5    8.81    1.25
   5 -14  -5    0.14    0.61
  -5 -14   5    0.62    0.78
   5 -14  -5    0.14    0.58
  -5  14   5    0.53    0.66
   5  14  -5    1.36    0.82
   4 -14  -5    5.51    0.85
   4 -14  -5    5.77    0.85
   4 -14  -5    5.30    0.95
  -4  14   5    5.05    0.94
   3 -14  -5   47.98    4.31
   3 -14  -5   50.69    4.14
   3 -14  -5   55.62    4.31
  -3  14   5   52.33    4.31
   2 -14  -5    5.83    0.86
  -2 -14   5    5.54    0.82
   2 -14  -5    5.20    0.88
  -2 -14   5    5.26    0.95
   2 -14  -5    5.80    0.90
  -2  14   5    4.59    0.99
   2  14  -5    6.40    1.00
   1 -14  -5   26.30    2.40
  -1 -14   5   32.35    2.63
  -1 -14   5   33.09    2.49
   1 -14  -5   28.28    2.59
   1 -14  -5   24.67    2.54
   1  14  -5   33.85    2.65
  -1  14   5   24.97    2.60
   0 -14   5    8.76    1.32
   0 -14  -5   11.65    1.31
   0 -14  -5   14.36    1.43
   0 -14   5    8.55    1.35
   0 -14   5    9.28    1.27
   0 -14  -5   12.46    1.12
   0  14  -5    8.80    1.34
   0  14   5   10.84    1.50
   1 -14   5   80.21    6.01
  -1 -14  -5   65.46    5.68
   1 -14   5   85.55    6.01
  -1 -14  -5   64.29    5.98
   1  14   5   65.14    5.99
  -1  14  -5   83.60    6.00
   2 -14   5   63.72    4.81
  -2 -14  -5   53.47    4.80
  -2 -14  -5   59.22    4.51
   2 -14   5   58.48    4.79
   2  14   5   52.92    4.83
  -2  14  -5   61.51    4.79
  -3 -14  -5   22.05    1.58
  -3 -14  -5   20.80    1.97
   3 -14   5   15.86    1.87
   3 -14   5   16.23    1.86
  -3  14  -5   16.88    1.84
   3  14   5   20.92    2.02
  -4 -14  -5   10.33    1.46
   4 -14   5    9.99    1.32
   4 -14   5   10.55    1.32
  -4  14  -5    9.59    1.25
   4  14   5    9.04    1.47
   5 -14   5    0.04    0.68
  -5 -14  -5    0.07    0.71
   5 -14   5    0.29    0.67
   5  14   5    0.76    0.91
  -5  14  -5    0.29    0.57
   6 -14   5   14.97    1.60
   6 -14   5   15.17    1.59
  -6 -14  -5   14.93    1.74
   6  14   5   12.88    1.77
   7 -14   5    3.74    0.84
   7  14   5    6.12    1.15
   8 -14   5   15.44    1.56
   8  14   5   12.35    1.76
   9 -14   5   14.91    1.58
   9  14   5   15.36    1.87
  10 -14   5    4.02    0.75
  10  14   5    3.89    1.17
  11  14   5    4.74    1.25
  12  14   5    6.42    1.34
  11  15  -5    0.37    1.01
  10 -15  -5    3.22    0.97
  10  15  -5    2.04    1.07
   9 -15  -5    1.80    0.83
   9  15  -5    0.33    0.96
   8 -15  -5    4.97    0.93
  -8 -15   5    1.76    0.88
   8  15  -5    2.13    0.98
   7 -15  -5    2.70    0.80
  -7 -15   5    1.51    0.83
   7  15  -5    1.25    0.92
   6 -15  -5   39.88    3.25
  -6  15   5   36.90    3.23
   5 -15  -5    3.37    0.74
   5 -15  -5    3.03    0.78
  -5  15   5    3.66    0.82
   4 -15  -5   32.62    2.82
   4 -15  -5   30.72    2.87
  -4 -15   5   33.74    2.92
   4 -15  -5   30.99    2.73
  -4  15   5   30.66    2.82
   4  15  -5   33.08    2.91
   3 -15  -5    6.64    1.02
   3 -15  -5    6.70    0.95
   3 -15  -5    6.71    0.95
  -3  15   5    6.04    1.06
  -2 -15   5   16.08    1.76
   2 -15  -5   18.80    1.83
   2 -15  -5   21.01    1.75
   2 -15  -5   21.20    1.91
  -2 -15   5   17.34    1.95
  -2  15   5   20.91    1.98
   2  15  -5   15.34    1.92
   1 -15  -5    1.42    0.69
   1 -15  -5    0.84    0.52
  -1 -15   5    2.33    0.81
   1 -15  -5    0.58    0.62
  -1 -15   5    1.99    0.62
   1  15  -5    2.02    0.80
  -1  15   5    0.35    0.85
   0 -15   5   23.93    2.21
   0 -15   5   21.94    2.18
   0  15  -5   22.11    2.17
   1 -15   5    8.40    1.37
   1 -15   5    9.27    1.36
  -1 -15  -5   12.46    1.37
  -1  15  -5    9.85    1.37
   1  15   5   12.72    1.50
   2 -15   5    7.02    1.04
  -2 -15  -5    8.86    1.25
   2 -15   5    5.91    1.03
   2  15   5    9.52    1.38
  -2  15  -5    6.79    1.05
  -3 -15  -5   10.36    1.47
   3 -15   5   13.28    1.51
  -3 -15  -5   11.58    1.13
   3 -15   5   13.41    1.53
  -3  15  -5   13.44    1.47
   3  15   5   11.94    1.64
  -4 -15  -5   28.53    2.64
   4 -15   5   28.38    2.56
   4 -15   5   29.90    2.56
  -4  15  -5   26.63    2.47
   4  15   5   26.83    2.65
  -5 -15  -5   46.88    3.77
   5 -15   5   46.71    3.65
   5 -15   5   41.70    3.62
   5  15   5   40.13    3.72
  -5  15  -5   39.24    3.53
   6 -15   5    3.64    0.81
  -6 -15  -5    1.99    0.84
   6 -15   5    2.77    0.81
   6  15   5    0.78    0.86
   7 -15   5   19.29    2.06
   7  15   5   25.51    2.33
   8 -15   5    0.43    0.71
   8  15   5    1.19    0.94
   9 -15   5    0.44    0.67
   9  15   5   -0.31    0.89
  10 -15   5   -0.39    0.64
  10  15   5   -0.15    0.93
  11  15   5    0.09    1.00
  11  16  -5    5.21    1.29
  10  16  -5    1.38    1.05
   9 -16  -5   13.17    1.70
   9  16  -5   16.14    1.89
   8 -16  -5    0.78    0.75
  -8 -16   5    3.11    0.92
   8  16  -5    3.06    1.03
   7 -16  -5   35.55    3.20
  -7 -16   5   38.38    3.33
   7  16  -5   38.45    3.38
   6 -16  -5    1.30    0.71
   6 -16  -5    1.26    0.70
  -6 -16   5    0.52    0.82
   6  16  -5    0.77    0.93
   5 -16  -5   27.99    2.56
   5 -16  -5   30.33    2.67
  -5 -16   5   30.49    2.79
   5  16  -5   29.61    2.72
  -5  16   5   28.16    2.63
   4 -16  -5    4.43    0.82
   4 -16  -5    3.09    0.78
   4 -16  -5    4.60    0.90
  -4  16   5    3.31    0.87
   4  16  -5    0.99    0.92
  -3 -16   5   16.56    1.77
   3 -16  -5   16.20    1.77
   3 -16  -5   14.58    1.71
   3 -16  -5   13.92    1.55
  -3  16   5   15.10    1.81
   3  16  -5   18.46    1.83
   2 -16  -5    0.82    0.55
   2 -16  -5    0.67    0.67
  -2 -16   5    0.85    0.80
   2 -16  -5    0.97    0.67
  -2  16   5    0.79    0.86
   2  16  -5    0.46    0.83
  -1 -16   5    2.45    0.86
   1 -16  -5    2.22    0.76
   1  16  -5    3.46    0.91
  -1  16   5    1.36    0.96
   0 -16   5    0.17    0.75
   0 -16  -5    2.56    0.77
   0  16  -5    0.76    0.81
   0  16   5    2.05    0.92
   1 -16   5    4.47    0.97
   1 -16   5    5.09    0.97
  -1  16  -5    5.24    1.00
   2 -16   5    4.96    0.92
   2 -16   5    3.97    0.91
   2  16   5    1.34    0.99
  -2  16  -5    4.55    0.92
   3 -16   5   16.92    1.86
   3 -16   5   16.03    1.83
  -3  16  -5   19.21    1.84
   4 -16   5   23.59    2.20
  -4 -16  -5   23.20    2.22
   4 -16   5   23.89    2.20
  -4  16  -5   21.06    2.12
   4  16   5   22.79    2.33
  -5 -16  -5    1.39    0.84
   5 -16   5    3.98    0.89
   5 -16   5    3.40    0.90
  -5  16  -5    3.82    0.77
   6 -16   5   17.96    1.94
  -6 -16  -5   21.63    2.11
   6  16   5   18.52    2.10
   7 -16   5    3.64    0.86
   7  16   5    2.22    1.08
   8 -16   5   27.39    2.50
   9 -16   5   -0.02    0.68
   9  16   5    0.29    0.93
  10 -16   5   13.44    1.39
  10  16   5    9.45    1.60
  11  16   5    0.56    1.06
  11  17  -5    1.77    1.12
  10  17  -5    0.91    1.07
   9 -17  -5    0.32    0.79
   9  17  -5    0.62    1.00
   8 -17  -5    0.21    0.72
   8  17  -5   -0.14    0.96
   7 -17  -5    4.11    0.90
  -7 -17   5    1.75    0.92
   7  17  -5    3.54    1.07
  -6 -17   5    1.92    0.89
   6 -17  -5    0.68    0.70
   6  17  -5    1.00    0.96
   5 -17  -5    0.90    0.69
   5 -17  -5    1.26    0.78
  -5 -17   5    2.53    0.91
   5 -17  -5    0.67    0.68
  -5  17   5    0.73    0.76
   5  17  -5    2.82    0.99
  -4 -17   5    1.36    0.88
   4 -17  -5    0.02    0.61
   4 -17  -5   -0.06    0.65
   4 -17  -5    0.63    0.72
  -4  17   5    0.44    0.80
   4  17  -5    1.57    0.94
   3 -17  -5   13.47    1.68
   3 -17  -5   12.93    1.49
   3 -17  -5   14.74    1.72
  -3 -17   5   18.30    1.78
  -3  17   5   12.42    1.75
   3  17  -5   17.63    1.80
   2 -17  -5    2.09    0.77
  -2 -17   5    2.53    0.89
  -2  17   5    2.44    0.95
   2  17  -5    2.51    0.96
  -1 -17   5   24.28    2.37
   1  17  -5   24.64    2.40
   0 -17  -5    0.89    0.75
   0 -17   5    0.47    0.79
   0  17  -5   -0.27    0.82
   0  17   5    0.66    0.93
   1 -17   5   15.30    1.81
  -1 -17  -5   18.98    1.85
   1  17   5   19.18    1.91
  -1  17  -5   13.99    1.80
   2 -17   5    9.51    1.43
   2 -17   5    9.09    1.40
  -2 -17  -5   11.57    1.44
  -2  17  -5    9.55    1.45
   2  17   5   11.03    1.60
   3 -17   5    5.79    0.99
   3 -17   5    4.77    1.01
  -3 -17  -5    6.93    1.09
   3  17   5    5.89    1.22
  -3  17  -5    5.62    0.98
   4 -17   5    0.98    0.77
  -4 -17  -5    0.48    0.36
  -4 -17  -5   -0.06    0.32
   4 -17   5    1.47    0.77
  -4 -17  -5   -0.22    0.71
   4  17   5    0.64    0.85
  -4  17  -5    1.10    0.70
   5 -17   5   -0.54    0.73
  -5 -17  -5    0.03    0.75
   5 -17   5   -0.25    0.75
   5  17   5   -0.02    0.87
  -6 -17  -5    1.66    0.87
   6  17   5    0.92    0.89
  -7 -17  -5   -0.49    0.82
   7 -17   5   -0.40    0.75
   7  17   5   -0.06    0.89
   8 -17   5    0.02    0.73
   8  17   5    1.24    0.99
   9 -17   5   -0.14    0.71
   9  17   5    0.21    0.97
  10 -17   5    0.46    0.71
  10  17   5    0.03    1.00
  10  18  -5    0.56    1.06
   9  18  -5    5.90    1.28
   8 -18  -5    1.43    0.82
   8  18  -5    3.87    1.12
  -7 -18   5    9.32    1.54
   7 -18  -5   11.07    1.38
   7  18  -5    9.00    1.46
  -6 -18   5    7.33    1.22
   6  18  -5    7.76    1.32
   5 -18  -5   17.32    1.89
  -5 -18   5   23.38    2.11
   5 -18  -5   19.37    2.04
  -5  18   5   16.87    1.97
   5  18  -5   19.76    2.10
   4 -18  -5   20.40    2.04
   4 -18  -5   19.31    1.90
   4 -18  -5   19.36    2.07
  -4  18   5   19.71    2.09
   3 -18  -5    1.01    0.71
   3 -18  -5    0.86    0.64
  -3 -18   5    3.47    0.94
   3  18  -5    4.01    1.02
  -3  18   5    0.46    0.92
   2 -18  -5    8.32    1.31
  -2  18   5    9.93    1.56
  -1  18   5   34.96    3.21
   0 -18  -5   46.18    3.57
   0 -18   5   33.39    3.51
   0  18  -5   36.97    3.55
   0  18   5   47.55    3.65
  -1 -18  -5   28.47    2.94
   1 -18   5   35.63    2.95
  -1  18  -5   39.25    3.00
   1  18   5   26.69    2.99
  -2 -18  -5   38.88    3.27
   2 -18   5   32.94    3.19
   2  18   5   39.64    3.35
  -2  18  -5   34.80    3.20
   3 -18   5    5.07    0.98
   3 -18   5    4.71    0.97
  -3  18  -5    5.39    1.00
   4 -18   5   25.41    2.29
  -4 -18  -5   22.23    2.31
   4 -18   5   23.86    2.25
   4  18   5   19.62    2.38
  -4  18  -5   24.23    2.20
   5 -18   5    2.07    0.85
  -5 -18  -5    0.85    0.78
   5  18   5    0.95    0.96
   6 -18   5   19.88    1.88
  -6 -18  -5   16.25    2.01
   6  18   5   14.27    2.01
  -7 -18  -5   12.65    1.78
   7  18   5   11.23    1.74
   8 -18   5   14.85    1.54
   8  18   5    8.95    1.65
   9 -18   5   18.07    2.02
   9  18   5   24.62    2.38
  10 -18   5    2.97    0.80
  10  18   5    0.50    1.03
  10  19  -5   -0.14    1.04
   9  19  -5   -0.16    1.08
   8 -19  -5    7.35    1.16
   8  19  -5    3.44    1.23
  -7 -19   5    1.57    0.96
   7 -19  -5    2.09    0.84
   7  19  -5    2.68    1.10
  -6 -19   5    3.61    1.01
   6 -19  -5    3.31    0.89
   6  19  -5    5.01    1.17
   5 -19  -5   -0.01    0.81
   5 -19  -5    0.91    0.72
  -5 -19   5   -0.06    0.83
   5  19  -5    0.96    1.00
  -4 -19   5    4.03    1.03
   4 -19  -5    3.21    0.83
   4 -19  -5    3.99    0.94
   4  19  -5    4.18    1.13
  -4  19   5    4.32    1.00
   3 -19  -5    1.62    0.77
   3 -19  -5    1.84    0.70
  -3 -19   5    4.37    1.00
   3  19  -5    4.67    1.10
  -3  19   5    1.59    0.97
  -2 -19   5    3.86    1.04
   2 -19  -5    4.16    0.95
  -2  19   5    3.97    1.09
   2  19  -5    4.93    1.10
  -1 -19   5    1.01    0.85
   1 -19  -5    1.01    0.78
  -1  19   5    1.14    1.01
   1  19  -5    1.37    0.96
   0 -19   5    8.88    1.31
   0 -19  -5    4.94    1.04
   0  19   5    4.93    1.19
  -1 -19  -5    1.34    0.85
   1 -19   5    2.45    0.89
  -1  19  -5    3.85    0.97
   1  19   5    0.80    0.92
   2 -19   5    5.01    1.07
  -2  19  -5    6.48    1.11
   2  19   5    9.00    1.36
   3 -19   5   -0.20    0.78
  -3 -19  -5    0.22    0.78
   3 -19   5    0.58    0.79
  -3  19  -5    0.05    0.75
   3  19   5   -0.58    0.86
   4 -19   5    0.63    0.80
  -4 -19  -5    0.76    0.86
   4  19   5    0.95    0.93
  -4  19  -5    0.67    0.75
  -5 -19  -5    2.98    0.90
   5 -19   5    0.54    0.82
   5  19   5    1.23    1.00
   6 -19   5    0.72    0.82
  -6 -19  -5    2.18    0.94
   6  19   5    1.44    1.03
  -7 -19  -5    0.53    0.90
   7 -19   5   -0.64    0.78
   7  19   5   -0.12    0.98
   8 -19   5    0.81    0.80
   8  19   5    1.76    1.06
   9 -19   5    0.98    0.79
   9  19   5    0.27    1.01
  10 -19   5    0.53    0.74
   9  20  -5    9.09    1.56
   8  20  -5    8.20    1.47
   7 -20  -5    9.93    1.46
  -7 -20   5   10.24    1.57
   7  20  -5   10.38    1.55
  -6 -20   5    2.06    0.98
   6 -20  -5    2.49    0.85
   6  20  -5    1.00    1.06
   5 -20  -5   13.50    1.74
   5 -20  -5   12.42    1.54
  -5 -20   5   12.42    1.65
   5  20  -5   13.56    1.75
   4 -20  -5   11.40    1.57
   4 -20  -5   10.51    1.35
  -4  20   5   10.12    1.57
  -3 -20   5   12.08    1.66
   3  20  -5   14.53    1.81
  -2 -20   5    0.94    0.89
   2 -20  -5    2.17    0.86
   2  20  -5    1.61    1.00
  -2  20   5    2.35    1.07
  -1 -20   5   36.68    2.97
  -1  20   5   26.02    2.98
   0 -20  -5   20.55    1.98
   0 -20   5   15.81    1.97
   0  20   5   18.01    2.11
   0  20  -5   18.52    2.03
   1 -20   5    8.70    1.43
  -1  20  -5    9.48    1.51
  -2 -20  -5   41.91    3.48
   2 -20   5   34.87    3.40
  -2  20  -5   37.90    3.40
   2  20   5   39.79    3.54
   3 -20   5    7.98    1.27
  -3  20  -5    8.23    1.23
  -4 -20  -5   27.22    2.47
   4 -20   5   21.24    2.35
   4  20   5   24.36    2.54
  -5 -20  -5    0.90    0.89
   5  20   5    1.29    1.02
  -6 -20  -5   33.60    3.15
   6 -20   5   33.14    2.96
   6  20   5   30.49    3.12
   7  20   5    1.37    1.03
   8 -20   5   28.39    2.49
   8  20   5   22.03    2.65
   9 -20   5   -0.28    0.80
   9  20   5   -0.46    1.02
  10 -20   5    4.42    0.96
   9  21  -5    2.17    1.22
   8  21  -5    7.44    1.48
   7 -21  -5    0.50    0.79
  -7 -21   5    0.19    0.90
   7  21  -5    0.67    1.12
  -6 -21   5    2.95    1.04
   6 -21  -5    0.80    0.74
   6  21  -5    3.62    1.18
   5 -21  -5   -0.04    0.73
   5 -21  -5    0.58    0.86
  -5 -21   5    0.16    0.88
   5  21  -5   -0.08    1.05
   4 -21  -5    0.52    0.81
   4 -21  -5    0.45    0.70
  -4 -21   5    0.51    0.85
   4  21  -5    0.97    1.05
  -3 -21   5    9.47    1.54
   3  21  -5   12.04    1.69
   2 -21  -5    2.72    0.92
  -2 -21   5    0.43    0.82
  -2  21   5    1.05    0.95
   2  21  -5    0.67    0.98
  -1 -21   5   10.06    1.50
   1 -21  -5    9.86    1.47
   1  21  -5   10.38    1.60
  -1  21   5    8.18    1.53
   0 -21  -5    6.61    1.16
   0 -21   5    3.36    1.01
   0  21  -5    3.73    1.11
   0  21   5    5.35    1.29
   1 -21   5   14.97    1.72
  -1 -21  -5   11.54    1.71
  -1  21  -5   17.56    1.83
   1  21   5   11.35    1.86
  -2 -21  -5    3.60    1.00
   2 -21   5    4.10    0.98
   2  21   5    1.90    1.22
  -2  21  -5    5.36    1.07
   3 -21   5    1.34    0.89
  -3 -21  -5    1.71    0.93
  -3  21  -5    1.61    0.89
   3  21   5    0.82    1.02
   4 -21   5   -0.16    0.80
  -4 -21  -5    0.77    0.88
   4  21   5   -0.26    0.97
   5 -21   5   -0.47    0.82
  -5 -21  -5   -0.28    0.82
   5  21   5    0.35    0.98
   6 -21   5   -0.13    0.80
  -6 -21  -5   -0.90    0.86
   6  21   5   -0.36    0.96
   7 -21   5    1.47    0.91
   7  21   5    0.38    1.02
   8 -21   5   -0.63    0.82
   8  21   5   -0.14    1.05
   9 -21   5    0.69    0.83
  10 -21   5   -1.12    0.80
   8  22  -5    0.78    1.10
  -7 -22   5   17.80    2.10
   7  22  -5   17.02    2.15
  -6 -22   5    0.90    0.97
   6 -22  -5    2.21    0.88
   6 -22  -5    2.09    0.99
   6  22  -5    0.41    1.14
   5 -22  -5   21.04    2.26
   5 -22  -5   22.04    2.41
  -5 -22   5   24.37    2.44
   5  22  -5   24.87    2.52
   4 -22  -5    6.36    1.13
   4 -22  -5    7.41    1.23
  -3 -22   5   24.69    2.29
   3 -22  -5   18.29    2.21
  -3  22   5   18.14    2.31
   3  22  -5   26.41    2.43
  -2 -22   5    5.09    1.13
   2  22  -5    5.92    1.27
   1 -22  -5   29.31    2.64
  -1 -22   5   24.34    2.59
   1  22  -5   25.60    2.69
  -1  22   5   27.77    2.77
   0 -22  -5   24.42    2.41
   0  22   5   22.06    2.51
  -1 -22  -5    1.81    0.94
   1  22   5    2.58    1.20
  -2 -22  -5   30.48    2.66
   2 -22   5   23.34    2.54
  -2  22  -5   24.28    2.56
   2  22   5   27.97    2.75
   3 -22   5    0.58    0.84
  -3 -22  -5    1.78    0.94
   3  22   5    0.83    0.99
   4 -22   5    7.53    1.28
  -4 -22  -5   10.76    1.55
   4  22   5    9.47    1.58
   5 -22   5    0.47    0.86
  -5 -22  -5    3.34    1.03
   5  22   5    3.09    1.31
   6 -22   5    5.23    1.13
  -6 -22  -5    6.88    1.28
   6  22   5    6.83    1.49
   7 -22   5    2.82    0.98
   7  22   5    3.62    1.39
   8 -22   5    7.59    1.15
   8  22   5    1.79    1.21
   9 -22   5    0.59    0.85
  10 -22   5    2.64    0.93
   7  23  -5    0.14    1.17
   6 -23  -5    0.34    0.96
   6 -23  -5    0.35    0.82
  -6 -23   5    1.60    1.05
   6  23  -5    2.57    1.20
   5 -23  -5    1.58    0.99
  -5 -23   5    0.66    0.98
   5 -23  -5    1.61    0.84
   5  23  -5    0.92    1.15
  -4 -23   5    7.93    1.42
   4  23  -5    9.70    1.52
  -3 -23   5   -0.17    0.90
   3 -23  -5   -0.45    0.82
   3  23  -5   -0.39    1.04
  -2 -23   5    2.10    0.93
   2 -23  -5    1.09    0.87
   2  23  -5    1.72    1.12
  -2  23   5    0.02    0.95
   1 -23  -5    1.04    0.91
  -1 -23   5    0.97    0.88
   1  23  -5    1.44    1.07
  -1  23   5    1.40    1.19
   0 -23  -5    0.90    0.88
   0 -23   5    1.86    0.92
   0  23  -5    2.26    1.11
   0  23   5   -0.09    1.00
   1 -23   5    1.28    0.93
  -1 -23  -5    2.90    1.00
   1  23   5    3.04    1.25
  -1  23  -5    1.65    1.05
   2 -23   5    0.89    0.87
  -2 -23  -5    0.18    0.92
   2  23   5    1.32    1.23
  -2  23  -5   -0.05    0.93
  -3 -23  -5    2.03    1.00
   3  23   5    1.17    1.08
  -4 -23  -5    2.06    1.02
   4 -23   5   -0.01    0.83
   4  23   5    2.48    1.30
   5 -23   5    3.89    1.04
  -5 -23  -5    2.76    1.05
   5  23   5    3.08    1.34
   6 -23   5   -0.18    0.89
  -6 -23  -5    0.53    0.96
   6  23   5    0.34    1.06
   7 -23   5    4.29    1.08
   7  23   5    4.61    1.45
   8 -23   5    0.63    0.89
   9 -23   5   -0.32    0.87
   7  24  -5    3.96    1.37
   6 -24  -5    2.54    1.10
  -6 -24   5    1.68    1.08
   6  24  -5    2.06    1.29
   5 -24  -5    2.53    0.90
   5 -24  -5    2.43    1.05
  -5 -24   5    3.71    1.14
   5  24  -5    3.90    1.29
  -4 -24   5    0.33    0.98
   4 -24  -5    1.96    0.97
   4 -24  -5    1.64    0.85
   4  24  -5    0.13    1.15
   3 -24  -5   -0.16    0.85
  -3 -24   5   -0.11    0.92
   3  24  -5   -0.24    1.11
  -2 -24   5    3.71    1.12
   2  24  -5    3.12    1.25
  -2  24   5    7.11    1.36
  -1 -24   5    8.61    1.43
   1  24  -5   10.76    1.59
   0 -24  -5    5.99    1.18
   0 -24   5    3.25    1.03
   0  24   5    1.98    1.11
   0  24  -5    3.96    1.19
   1 -24   5   15.05    1.69
  -1 -24  -5   10.12    1.68
  -1  24  -5   16.20    1.80
   1  24   5    8.59    1.73
  -2 -24  -5   13.34    1.83
   2 -24   5   14.42    1.73
   2  24   5   13.00    2.01
  -3 -24  -5   10.22    1.60
   3  24   5    8.25    1.63
   4 -24   5    1.86    0.99
  -4 -24  -5    2.10    1.05
   4  24   5    0.85    1.08
  -5 -24  -5    1.74    1.02
   5 -24   5    2.73    1.03
   5  24   5    0.61    1.12
   6 -24   5    2.52    1.01
   6  24   5    3.86    1.43
   7 -24   5    0.21    0.91
  -6 -25   5   -0.77    0.96
   6 -25  -5    0.46    1.03
   6  25  -5   -0.91    1.20
  -5 -25   5    0.02    1.00
   5 -25  -5    0.14    1.00
   5  25  -5    0.32    1.23
   4 -25  -5    2.74    0.92
  -4 -25   5    1.48    1.06
   4 -25  -5    2.91    1.08
   4  25  -5    2.26    1.26
  -3 -25   5    3.42    1.13
   3 -25  -5    2.28    1.01
   3  25  -5    4.15    1.30
  -2 -25   5    0.78    0.98
   2 -25  -5    0.24    0.92
   2  25  -5    2.25    1.22
  -1 -25   5    4.05    1.16
   1 -25  -5    4.92    1.17
  -1  25   5    4.85    1.44
   1  25  -5    4.78    1.33
   0 -25  -5   -0.06    0.91
   0 -25   5    0.43    0.95
   0  25  -5    0.51    1.09
   0  25   5   -1.11    1.05
   1 -25   5    4.77    1.18
  -1  25  -5    4.75    1.25
   1  25   5    9.11    1.57
   2 -25   5    0.69    0.95
  -2 -25  -5    0.07    0.92
   2  25   5    0.11    1.05
   3 -25   5    0.44    0.96
  -3 -25  -5    3.73    1.12
   3  25   5    1.17    1.11
   4 -25   5    2.47    1.02
  -4 -25  -5    0.12    0.98
   4  25   5   -0.15    1.09
  -5 -25  -5   -0.18    0.97
   5 -25   5    0.20    0.91
   5  25   5   -0.57    1.15
   6 -25   5    0.71    0.96
   6  25   5   -1.13    1.12
  -6 -26   5    1.96    1.09
   5 -26  -5    8.78    1.45
  -5 -26   5    6.12    1.38
   5  26  -5    6.87    1.55
  -4 -26   5    6.42    1.37
   4 -26  -5    9.50    1.45
   4  26  -5    6.23    1.55
   3 -26  -5   12.43    1.71
  -3 -26   5   10.47    1.73
   3 -26  -5   12.80    1.57
   3  26  -5   11.30    1.81
  -2 -26   5    1.93    1.03
   2  26  -5    1.56    1.26
   1 -26  -5    1.68    1.00
  -1 -26   5    2.72    1.11
  -1  26   5    2.50    1.38
   1  26  -5    1.96    1.23
   0 -26   5    1.28    1.02
   0 -26  -5    4.49    1.16
   0  26  -5    1.35    1.17
   0  26   5    3.68    1.43
   1 -26   5   -0.07    0.94
  -1 -26  -5    0.64    0.97
   1  26   5   -0.16    1.06
  -2 -26  -5    1.99    1.06
   2 -26   5    3.71    1.09
   2  26   5    1.00    1.15
  -3 -26  -5    7.42    1.42
   3  26   5    7.76    1.68
  -4 -26  -5    2.61    1.14
   4 -26   5    0.45    0.95
   4  26   5    0.63    1.16
  -5 -26  -5    4.13    1.15
   5 -26   5    1.26    0.99
   5  26   5    1.95    1.26
  -5 -27   5    0.92    1.05
   5  27  -5    1.42    1.31
  -4 -27   5   15.38    2.07
   4  27  -5   16.71    2.21
   3 -27  -5    5.01    1.04
   3 -27  -5    4.25    1.15
  -3 -27   5    4.48    1.25
   3  27  -5    4.27    1.42
  -2 -27   5    8.49    1.50
   2  27  -5   10.01    1.65
  -1 -27   5    3.67    1.14
   1 -27  -5    3.16    1.13
   1  27  -5    4.37    1.33
   0 -27  -5    1.18    1.01
   0 -27   5    2.24    1.05
   0  27   5    1.34    1.17
  -1 -27  -5    2.47    1.09
   1 -27   5    0.86    0.96
   1  27   5    2.23    1.20
  -2 -27  -5   -0.25    1.02
   2 -27   5    0.28    0.96
   2  27   5    0.74    1.21
  -3 -27  -5    1.43    1.11
   3 -27   5    2.81    1.06
   3  27   5    2.50    1.44
  -4 -27  -5    1.31    1.08
   4  27   5    1.95    1.23
  -5 -27  -5    3.53    1.17
  -5 -28   5    0.73    1.09
  -4 -28   5    4.99    1.30
   4  28  -5    5.10    1.46
  -3 -28   5    0.76    1.07
   3  28  -5    0.05    1.17
  -2 -28   5    4.07    1.28
   2  28  -5    4.40    1.42
  -1 -28   5    5.44    1.28
   1 -28  -5    1.90    1.11
   1  28  -5    5.28    1.44
   0 -28   5    7.74    1.43
   0 -28  -5    6.13    1.36
  -1 -28  -5   15.55    2.06
   1  28   5   15.36    2.35
  -2 -28  -5    3.43    1.22
   2  28   5    3.47    1.53
  -3 -28  -5    0.52    1.09
   3  28   5    0.64    1.18
  -4 -28  -5    3.73    1.23
   3  29  -5    0.50    1.25
   2  29  -5    0.71    1.24
   1  29   5    1.54    1.26
   2  29   5    1.08    1.24
  13   0  -6    0.00    0.84
  13   0  -6    0.37    0.73
  12   0  -6    0.32    0.81
  12   0  -6   -0.11    0.71
  11   0  -6    0.21    0.74
  11   0  -6   -0.09    0.68
  10   0  -6    6.01    0.91
  10   0  -6    5.71    1.02
   9   0  -6    6.93    1.08
   9   0  -6    7.61    1.09
   9   0  -6    8.06    1.14
  -8   0   6   43.65    3.85
   8   0  -6   45.15    3.87
   8   0  -6   51.99    3.94
   8   0  -6   48.10    3.91
   7   0  -6   28.76    2.30
   7   0  -6   26.90    2.29
  -7   0   6   23.58    2.23
   7   0  -6   25.31    2.29
  -7   0   6   24.22    2.34
   6   0  -6   51.52    4.31
   6   0  -6   53.90    4.31
   6   0  -6   53.07    4.23
  -6   0   6   54.92    4.26
  -6   0   6   51.02    4.29
  -5   0   6    4.83    0.77
  -5   0   6    5.36    0.82
   5   0  -6    5.44    0.79
   5   0  -6    5.43    0.78
   5   0  -6    6.07    0.77
   4   0  -6  113.39    8.41
  -4   0   6  105.49    8.16
   4   0  -6  102.37    8.14
   4   0  -6  108.84    8.41
  -4   0   6  100.11    8.39
   3   0  -6   11.49    1.19
  -3   0   6   10.37    1.17
   3   0  -6   11.42    1.22
  -3   0   6   10.22    1.23
   3   0  -6   10.36    1.12
   2   0  -6   24.31    2.27
  -2   0   6   28.42    2.35
  -2   0   6   27.13    2.24
   2   0  -6   26.29    2.21
   2   0  -6   27.30    2.30
  -1   0   6  133.51   10.47
   1   0  -6  135.42   10.46
  -1   0   6  131.47   10.10
   1   0  -6  130.49   10.09
   0   0   6   31.53    2.49
   0   0   6   30.12    2.62
   0   0  -6   29.80    2.46
   0   0  -6   31.59    2.60
  -1   0  -6   46.33    3.78
   1   0   6   47.20    3.98
  -1   0  -6   52.59    3.99
   1   0   6   49.44    3.80
  -2   0  -6   60.34    4.71
   2   0   6   58.49    4.50
   2   0   6   56.57    4.72
   3   0   6  162.84   11.98
   3   0   6  151.07   12.45
  -3   0  -6  161.24   12.44
   4   0   6    6.21    0.86
  -4   0  -6    6.77    0.87
   4   0   6    7.19    0.79
  -4   0  -6    7.20    1.01
  -5   0  -6   60.56    5.00
   5   0   6   63.67    4.81
   5   0   6   59.64    5.04
  -5   0  -6   66.37    5.03
  -6   0  -6    1.68    0.48
  -6   0  -6    1.88    0.46
   6   0   6    1.36    0.63
   7   0   6    6.04    0.89
   7   0   6    6.02    0.91
   8   0   6    1.34    0.69
   8   0   6    0.82    0.66
   9   0   6   -0.91    0.63
   9   0   6   -0.74    0.60
   9   0   6   -0.29    0.48
  10   0   6   39.77    3.23
  10   0   6   37.19    3.09
  11   0   6   -0.05    0.60
  13  -1  -6    0.51    0.88
  13  -1  -6    0.99    0.73
  13   1  -6    1.23    0.94
  13   1  -6    1.74    0.77
  12  -1  -6    0.59    0.84
  12  -1  -6    0.63    0.72
  12   1  -6   -0.07    0.73
  12   1  -6    0.08    0.84
  11  -1  -6    0.45    0.67
  11  -1  -6    0.29    0.80
  11   1  -6    1.40    0.80
  11   1  -6    0.92    0.71
  10  -1  -6    9.67    1.34
  10  -1  -6    9.55    1.22
  10   1  -6    9.29    1.27
  10   1  -6   10.93    1.37
   9  -1  -6    3.96    0.74
   9  -1  -6    3.52    0.83
   9  -1  -6    4.21    0.78
   8  -1  -6   24.03    2.29
   8  -1  -6   22.84    2.30
   8  -1  -6   24.28    2.30
  -8  -1   6   26.04    2.25
   8   1  -6   25.34    2.30
   8   1  -6   29.05    2.33
   8   1  -6   28.32    2.32
   7  -1  -6    6.71    0.83
  -7  -1   6    4.84    0.90
   7  -1  -6    6.37    0.91
   7  -1  -6    5.95    0.98
  -7  -1   6    5.07    0.80
   7   1  -6    6.04    0.87
   7   1  -6    6.60    0.92
  -7   1   6    5.06    0.78
   7   1  -6    6.25    1.01
   6  -1  -6   10.79    1.26
   6  -1  -6   12.81    1.33
   6  -1  -6   12.96    1.30
  -6   1   6   11.90    1.36
  -6   1   6   10.26    1.28
   5  -1  -6   23.36    2.12
   5  -1  -6   22.58    2.12
  -5  -1   6   24.73    2.14
   5  -1  -6   21.83    2.07
  -5  -1   6   25.64    2.15
   5   1  -6   25.71    2.13
  -5   1   6   21.21    2.11
  -5   1   6   22.90    2.13
   5   1  -6   25.85    2.13
   5   1  -6   26.06    2.10
   4  -1  -6   13.21    1.35
   4  -1  -6   13.42    1.30
  -4  -1   6   12.16    1.30
   4  -1  -6   12.55    1.28
  -4  -1   6   12.17    1.35
   4   1  -6   11.68    1.30
  -4   1   6   12.00    1.33
   4   1  -6   12.80    1.28
   4   1  -6   13.33    1.35
  -4   1   6   12.51    1.35
  -3  -1   6   39.92    2.98
  -3  -1   6   35.88    3.05
   3  -1  -6   33.76    2.93
   3  -1  -6   35.67    3.05
  -3   1   6   32.06    3.04
   3   1  -6   38.34    2.95
   3   1  -6   37.98    3.05
   3   1  -6   39.39    3.06
  -3   1   6   35.49    2.97
  -2  -1   6   13.44    1.30
  -2  -1   6   12.18    1.35
   2   1  -6   13.50    1.26
   2   1  -6   12.58    1.36
   2   1  -6   13.61    1.37
   1  -1  -6  159.13   12.03
  -1  -1   6  152.25   11.62
  -1  -1   6  150.46   12.03
   1  -1  -6  155.21   11.61
  -1   1   6  155.84   11.62
   1   1  -6  155.10   12.02
  -1   1   6  147.29   12.02
   1   1  -6  148.47   12.03
   1   1  -6  152.59   11.62
   0  -1   6    3.91    0.68
   0  -1  -6    3.44    0.59
   0  -1  -6    3.16    0.52
   0  -1   6    4.42    0.58
   0   1  -6    4.01    0.62
   0   1  -6    4.86    0.64
   0   1   6    2.50    0.64
   0   1   6    3.36    0.56
   0   1  -6    3.76    0.53
   1  -1   6    8.14    1.05
   1  -1   6    9.58    0.95
  -1   1  -6    7.51    1.06
  -1   1  -6    9.08    0.90
  -1   1  -6    8.09    1.02
   2  -1   6   14.88    1.51
   2  -1   6   16.82    1.40
  -2   1  -6   15.17    1.48
  -2   1  -6   16.10    1.52
   3  -1   6    1.02    0.58
   3  -1   6    2.78    0.46
  -3   1  -6    1.82    0.47
  -3   1  -6    1.99    0.51
   4  -1   6    2.89    0.48
  -4  -1  -6    2.11    0.50
   4  -1   6    1.83    0.61
  -4   1  -6    2.40    0.53
   4   1   6    1.72    0.60
   4   1   6    2.53    0.43
  -4   1  -6    2.52    0.51
   5  -1   6   27.14    2.34
  -5  -1  -6   26.01    2.29
   5   1   6   25.43    2.12
  -5   1  -6   26.50    2.25
   5   1   6   25.02    2.33
  -5   1  -6   29.30    2.29
  -6  -1  -6   24.81    2.12
  -6  -1  -6   22.59    2.07
   6   1   6   24.80    2.19
   6   1   6   24.78    1.96
   7  -1   6   75.85    5.94
   7   1   6   79.32    5.95
  -7   1  -6   71.90    5.86
   7   1   6   76.17    5.94
  -7   1  -6   67.18    5.84
   8  -1   6   24.91    1.94
   8  -1   6   23.11    1.93
   8   1   6   18.31    1.76
   8   1   6   19.61    1.98
   8   1   6   18.92    1.98
   9  -1   6    9.77    1.19
   9  -1   6    8.80    1.27
   9  -1   6    8.81    1.26
   9   1   6   13.59    1.36
   9   1   6   13.84    1.30
   9   1   6   12.23    1.11
  10  -1   6    0.64    0.59
  10  -1   6   -0.23    0.63
  10   1   6    0.27    0.48
  10   1   6   -0.38    0.68
  11  -1   6    0.12    0.60
  11   1   6   -0.20    0.68
  12   1   6    2.20    0.70
  14   2  -6   11.73    1.45
  13  -2  -6    0.67    0.70
  13  -2  -6   -0.08    0.85
  13   2  -6    0.86    0.90
  13   2  -6    1.43    0.79
  12  -2  -6   17.84    1.66
  12  -2  -6   16.20    1.85
  12   2  -6   15.85    1.73
  12   2  -6   14.74    1.83
  11  -2  -6   -0.06    0.63
  11  -2  -6   -0.52    0.70
  11   2  -6   -0.10    0.73
  11   2  -6   -1.04    0.71
  10  -2  -6   28.52    2.59
  10  -2  -6   29.53    2.53
  10   2  -6   28.47    2.60
  10   2  -6   28.94    2.57
   9  -2  -6    0.20    0.64
   9  -2  -6    0.45    0.54
   9  -2  -6    0.03    0.62
   9   2  -6   -0.20    0.65
   9   2  -6    0.19    0.67
   9   2  -6    0.87    0.62
   8  -2  -6    6.22    0.92
  -8  -2   6    8.56    1.08
   8  -2  -6    6.09    0.96
   8  -2  -6    6.37    1.04
   8   2  -6    7.85    1.15
   8   2  -6    9.96    1.19
   8   2  -6   10.10    1.16
   7  -2  -6   32.66    2.75
  -7  -2   6   33.20    2.73
   7  -2  -6   29.35    2.73
   7  -2  -6   29.32    2.71
  -7  -2   6   33.41    2.79
   7   2  -6   36.67    2.79
   7   2  -6   33.71    2.77
  -7   2   6   27.30    2.68
   7   2  -6   32.29    2.72
   6  -2  -6    0.71    0.56
  -6  -2   6    0.40    0.57
   6  -2  -6    1.28    0.60
  -6  -2   6    0.34    0.59
   6  -2  -6    0.68    0.52
   6   2  -6    0.39    0.56
   6   2  -6    0.36    0.58
   6   2  -6    0.53    0.55
  -6   2   6    0.35    0.54
  -6   2   6    1.14    0.62
  -5  -2   6   11.08    1.31
  -5  -2   6   12.21    1.30
   5   2  -6   12.58    1.35
   5   2  -6   10.82    1.29
   5   2  -6   12.23    1.26
  -4  -2   6    2.48    0.66
  -4  -2   6    2.63    0.60
   4   2  -6    2.06    0.62
   4   2  -6    2.48    0.61
  -4   2   6    4.23    0.67
   4   2  -6    3.08    0.61
   3  -2  -6  168.57   11.80
  -3  -2   6  143.57   11.79
   3  -2  -6  173.27   12.18
  -3  -2   6  141.23   12.18
   3   2  -6  140.28   11.78
  -3   2   6  166.39   12.19
   3   2  -6  138.90   12.18
   3   2  -6  145.90   12.18
  -3   2   6  176.54   11.82
  -2  -2   6   25.45    2.38
  -2  -2   6   26.44    2.28
   2   2  -6   25.55    2.35
   2   2  -6   26.02    2.36
  -2   2   6   34.40    2.40
   2   2  -6   27.01    2.28
  -1  -2   6    8.73    1.10
  -1  -2   6    8.46    1.01
   1   2  -6    9.50    1.06
   1   2  -6    8.92    0.98
   1   2  -6    9.46    1.12
   0  -2   6    2.80    0.52
   0  -2  -6    1.65    0.42
   0  -2   6    2.84    0.63
   0  -2  -6    1.52    0.50
   0   2  -6    3.21    0.56
   0   2  -6    2.66    0.48
   0   2  -6    2.92    0.58
   0   2   6    1.73    0.62
   0   2   6    1.70    0.48
   1  -2   6    4.32    0.69
  -1  -2  -6    3.88    0.62
   1  -2   6    5.38    0.74
  -1  -2  -6    3.68    0.61
   1   2   6    3.36    0.70
   1   2   6    3.15    0.55
  -1   2  -6    4.61    0.66
  -1   2  -6    5.35    0.65
   2  -2   6    1.03    0.57
  -2  -2  -6    0.45    0.42
   2  -2   6    1.54    0.43
  -2  -2  -6    0.35    0.30
  -2   2  -6    0.99    0.45
   2   2   6    0.00    0.52
  -2   2  -6    1.36    0.48
   2   2   6    0.69    0.38
   3  -2   6   98.74    7.52
   3  -2   6  102.80    7.23
  -3  -2  -6   85.43    7.52
  -3   2  -6  104.99    7.52
   3   2   6   82.53    7.18
  -3   2  -6   94.58    7.50
   4  -2   6   26.31    2.26
  -4  -2  -6   26.66    2.29
   4   2   6   25.20    2.06
  -4   2  -6   26.86    2.22
  -4   2  -6   28.04    2.26
   4   2   6   23.54    2.27
   5  -2   6    2.39    0.60
  -5  -2  -6    1.20    0.50
  -5   2  -6    2.72    0.52
  -5   2  -6    3.46    0.53
   5   2   6    0.97    0.65
   6  -2   6   18.36    1.78
  -6   2  -6   20.89    1.75
  -6   2  -6   18.78    1.69
   7  -2   6   41.99    3.24
   7   2   6   31.79    3.27
  -7   2  -6   40.52    3.14
   7   2   6   34.89    3.29
  -7   2  -6   43.62    3.17
   8  -2   6   41.12    3.04
  -8  -2  -6   33.90    2.94
   8   2   6   34.38    2.82
   8   2   6   36.48    3.08
   8   2   6   34.84    3.08
   9  -2   6   30.50    2.43
   9  -2   6   27.04    2.39
   9   2   6   26.42    2.44
   9   2   6   26.16    2.43
  10  -2   6   44.69    3.62
  10  -2   6   46.53    3.70
  10   2   6   43.56    3.75
  11   2   6    2.72    0.76
  12   2   6    5.57    0.94
  14   3  -6    1.35    0.84
  13   3  -6   -0.07    0.87
  13   3  -6   -0.31    0.78
  12  -3  -6    0.93    0.68
  12  -3  -6    0.19    0.78
  12   3  -6   -0.17    0.77
  12   3  -6    0.16    0.82
  11  -3  -6    3.65    0.93
  11  -3  -6    3.72    0.76
  11   3  -6    2.72    0.88
  11   3  -6    1.62    0.81
  10  -3  -6    1.24    0.79
  10  -3  -6    1.42    0.67
  10   3  -6    0.85    0.73
  10   3  -6    1.87    0.79
   9  -3  -6    4.27    0.74
   9  -3  -6    4.01    0.92
   9  -3  -6    5.23    0.80
   9   3  -6    5.50    0.87
   9   3  -6    4.85    0.90
   9   3  -6    5.09    0.89
   8  -3  -6    7.01    0.84
  -8  -3   6    4.80    0.81
   8  -3  -6    6.87    1.01
   8  -3  -6    5.93    0.86
   8   3  -6    5.22    0.86
   8   3  -6    4.51    0.90
   8   3  -6    5.22    0.91
  -7  -3   6    2.74    0.76
  -7  -3   6    2.86    0.72
   7   3  -6    3.31    0.75
   7   3  -6    3.22    0.75
  -7   3   6    5.16    0.69
   7   3  -6    3.60    0.71
   6  -3  -6   25.16    2.54
   6  -3  -6   28.79    2.59
  -6  -3   6   35.08    2.63
  -6  -3   6   33.30    2.62
   6  -3  -6   27.37    2.56
   6   3  -6   32.88    2.57
   6   3  -6   35.35    2.64
  -6   3   6   25.60    2.55
  -6   3   6   25.27    2.57
   6   3  -6   33.57    2.63
  -5  -3   6   12.59    1.33
  -5  -3   6   11.25    1.32
   5   3  -6   11.17    1.34
   5   3  -6   12.89    1.28
   5   3  -6   12.25    1.37
  -4  -3   6   80.71    5.72
  -4  -3   6   74.51    5.87
   4  -3  -6   71.39    5.86
   4  -3  -6   68.62    5.69
   4   3  -6   77.77    5.88
   4   3  -6   77.22    5.87
  -4   3   6   68.12    5.71
  -4   3   6   63.87    5.84
   4   3  -6   76.43    5.69
   3  -3  -6   19.31    1.95
  -3  -3   6   23.62    1.89
  -3  -3   6   23.82    2.00
   3  -3  -6   19.07    1.88
   3   3  -6   24.05    1.97
  -3   3   6   17.57    1.94
  -3   3   6   19.43    1.91
   3   3  -6   24.01    1.97
   3   3  -6   24.60    1.89
   2  -3  -6   92.24    7.74
  -2  -3   6  110.10    7.76
  -2  -3   6  106.70    8.04
   2  -3  -6   94.36    8.02
  -2   3   6   88.06    8.01
   2   3  -6  107.27    8.03
   2   3  -6  106.13    7.76
   2   3  -6  110.92    8.04
  -2   3   6   95.47    7.76
  -1  -3   6    2.47    0.53
   1  -3  -6    1.18    0.42
  -1  -3   6    1.89    0.58
   1  -3  -6    0.61    0.46
   1   3  -6    2.02    0.51
   1   3  -6    2.76    0.48
   1   3  -6    1.88    0.54
  -1   3   6    0.49    0.60
   0  -3   6   17.29    1.70
   0  -3   6   17.59    1.55
   0   3  -6   17.85    1.66
   0   3  -6   17.88    1.55
   0   3  -6   18.42    1.68
   1  -3   6   44.22    4.11
  -1  -3  -6   57.85    3.91
   1  -3   6   48.73    3.94
  -1   3  -6   48.02    4.10
   1   3   6   56.93    3.92
  -1   3  -6   42.92    4.08
   1   3   6   54.43    4.13
   2  -3   6   12.04    1.11
   2  -3   6   11.11    1.27
  -2   3  -6   10.17    1.15
  -2   3  -6   10.60    1.21
  -3  -3  -6   24.19    2.19
   3  -3   6   26.34    2.19
   3  -3   6   28.09    2.07
   3   3   6   22.94    1.97
  -3   3  -6   27.16    2.19
  -3   3  -6   24.15    2.15
   3   3   6   22.06    2.20
   4  -3   6    2.94    0.64
  -4   3  -6    2.19    0.53
  -4   3  -6    2.51    0.52
   5  -3   6   37.73    2.80
  -5  -3  -6   29.39    2.78
   5   3   6   29.74    2.84
   5   3   6   28.85    2.82
  -5   3  -6   38.39    2.75
   6  -3   6    4.67    0.70
  -6   3  -6    1.87    0.43
   6   3   6    3.10    0.76
  -6   3  -6    4.01    0.52
   6   3   6    2.32    0.74
   7  -3   6    6.67    1.01
  -7   3  -6    6.37    0.78
   7   3   6    5.67    0.93
  -7   3  -6    6.98    0.82
   7   3   6    5.35    0.96
   8  -3   6   14.82    1.65
   8   3   6   19.34    1.75
   8   3   6   17.20    1.76
   9  -3   6    1.33    0.63
   9  -3   6    2.56    0.66
   9   3   6    2.32    0.79
  10  -3   6   -0.04    0.59
  10  -3   6    0.30    0.63
  10   3   6   -0.85    0.72
  11  -3   6    0.65    0.67
  11   3   6    0.33    0.73
  12   3   6   -0.11    0.72
  14   4  -6    3.58    0.96
  13   4  -6    1.84    0.85
  13   4  -6    1.05    0.90
  12  -4  -6    6.97    1.17
  12  -4  -6    8.77    1.09
  12   4  -6    5.62    1.08
  12   4  -6    5.13    1.14
  11  -4  -6    4.22    1.01
  11  -4  -6    4.17    0.76
  11   4  -6    2.19    0.85
  11   4  -6    2.12    0.90
  10  -4  -6   22.35    1.97
  10  -4  -6   23.18    2.14
  10   4  -6   19.70    2.05
  10   4  -6   19.47    2.06
   9   4  -6    3.56    0.84
   9   4  -6    3.22    0.77
   9   4  -6    4.26    0.86
   8  -4  -6   59.53    4.71
   8  -4  -6   54.02    4.65
   8  -4  -6   60.43    4.71
  -8  -4   6   53.89    4.69
   8   4  -6   57.76    4.75
   8   4  -6   56.63    4.65
   8   4  -6   61.98    4.76
  -7  -4   6   18.83    1.78
   7  -4  -6   17.74    1.72
   7  -4  -6   18.64    1.79
  -7  -4   6   17.83    1.84
   7  -4  -6   20.03    1.79
   7   4  -6   19.39    1.84
  -7   4   6   16.14    1.68
   7   4  -6   18.27    1.77
   7   4  -6   18.33    1.77
   6  -4  -6   33.60    2.99
  -6  -4   6   37.08    2.96
  -6  -4   6   39.08    3.02
   6  -4  -6   30.48    2.93
   6   4  -6   41.49    3.06
  -6   4   6   30.02    2.93
   6   4  -6   37.81    3.01
  -6   4   6   31.15    2.98
   6   4  -6   38.14    2.95
   5  -4  -6   37.75    2.89
  -5  -4   6   32.93    2.89
  -5  -4   6   34.66    2.83
   5  -4  -6   32.81    2.82
  -5   4   6   32.23    2.85
   5   4  -6   33.22    2.79
  -5   4   6   32.22    2.85
   5   4  -6   34.13    2.91
   5   4  -6   34.85    2.91
   4  -4  -6   79.63    6.18
   4  -4  -6   76.40    6.01
  -4  -4   6   79.43    6.02
  -4  -4   6   76.33    6.21
   4   4  -6   77.25    6.20
   4   4  -6   76.65    6.00
   4   4  -6   74.63    6.20
  -4   4   6   75.15    6.18
  -4   4   6   80.32    6.04
  -3  -4   6   27.57    2.54
   3  -4  -6   32.55    2.44
  -3  -4   6   27.41    2.43
   3  -4  -6   31.73    2.51
   3   4  -6   27.95    2.42
  -3   4   6   31.99    2.47
   3   4  -6   26.97    2.53
   3   4  -6   27.13    2.52
  -3   4   6   29.12    2.49
  -2  -4   6    1.42    0.61
   2  -4  -6    0.44    0.43
   2  -4  -6    0.69    0.46
  -2  -4   6    1.34    0.50
  -2   4   6    0.18    0.49
  -2   4   6    0.88    0.58
   2   4  -6    1.32    0.53
   2   4  -6    1.26    0.46
   2   4  -6    1.23    0.53
   1  -4  -6   50.70    4.21
  -1  -4   6   52.97    4.22
   1  -4  -6   48.01    4.01
  -1  -4   6   54.83    4.06
   1   4  -6   51.82    4.04
   1   4  -6   56.00    4.22
  -1   4   6   47.90    4.21
  -1   4   6   51.32    4.04
   1   4  -6   50.99    4.20
   0  -4   6   26.77    2.13
   0  -4   6   23.25    2.21
   0   4  -6   25.18    2.20
   0   4  -6   25.35    2.10
   0   4  -6   26.21    2.23
   1  -4   6   90.72    7.09
  -1  -4  -6   91.71    7.10
  -1  -4  -6   82.76    6.78
   1  -4   6   95.09    6.83
   1   4   6   88.45    6.79
  -1   4  -6   87.68    7.07
   1   4   6   83.70    7.09
  -1   4  -6   92.85    7.08
  -2  -4  -6  119.56    9.53
   2  -4   6  122.06    9.94
   2  -4   6  127.59    9.59
  -2  -4  -6  130.09    9.96
  -2   4  -6  131.11    9.94
   2   4   6  123.70    9.96
   2   4   6  131.21    9.54
  -2   4  -6  123.21    9.94
   3  -4   6  300.79   23.44
   3  -4   6  282.05   24.26
  -3  -4  -6  342.48   24.29
  -3   4  -6  305.75   24.25
  -3   4  -6  277.36   24.25
   3   4   6  348.05   24.31
   3   4   6  318.20   24.29
   4  -4   6  184.82   16.15
  -4  -4  -6  228.55   16.19
  -4   4  -6  187.65   16.14
   4   4   6  221.78   16.20
  -4   4  -6  210.30   16.15
   4   4   6  204.84   16.18
   5  -4   6   18.34    1.72
   5   4   6   14.23    1.73
   5   4   6   15.92    1.78
  -5   4  -6   18.81    1.63
  -5   4  -6   21.53    1.66
   6  -4   6   28.44    2.61
   6   4   6   33.58    2.70
   6   4   6   30.92    2.66
  -6   4  -6   29.45    2.54
   7  -4   6    1.22    0.62
   7   4   6    0.79    0.70
   7   4   6    1.75    0.72
  -7   4  -6    1.07    0.36
   8  -4   6   45.17    3.60
   8   4   6   43.62    3.67
   8   4   6   41.90    3.67
   9  -4   6   -0.46    0.59
   9   4   6   -0.26    0.74
  10  -4   6    8.95    1.12
  10   4   6    8.66    1.30
  11  -4   6    6.01    0.96
  11   4   6    6.62    1.03
  12   4   6    7.77    1.26
  13   4   6    1.07    0.76
  14   5  -6    1.43    0.91
  13   5  -6    3.09    1.01
  13   5  -6    3.03    0.94
  12  -5  -6    6.74    1.03
  12  -5  -6    6.24    1.20
  12   5  -6    6.50    1.07
  12   5  -6    4.76    1.08
  11  -5  -6    3.72    1.04
  11  -5  -6    4.48    0.83
  11   5  -6    7.54    1.07
  10  -5  -6    1.71    0.83
  10  -5  -6    2.08    0.69
  10   5  -6    2.05    0.80
  10   5  -6    3.50    0.86
   9  -5  -6   20.01    2.19
   9  -5  -6   21.17    2.10
   9  -5  -6   22.27    2.15
   9   5  -6   25.74    2.20
   9   5  -6   27.71    2.30
   9   5  -6   25.84    2.23
   8  -5  -6   21.52    2.26
  -8  -5   6   28.38    2.30
   8  -5  -6   21.15    2.24
   8   5  -6   29.38    2.35
   8   5  -6   27.93    2.30
  -7  -5   6   23.95    2.17
   7   5  -6   23.85    2.18
   7   5  -6   21.92    2.10
   7   5  -6   24.31    2.21
  -6  -5   6    3.85    0.77
  -6  -5   6    3.54    0.77
   6  -5  -6    7.15    0.97
   6   5  -6    3.97    0.79
   6   5  -6    4.42    0.78
   6   5  -6    4.08    0.77
  -5  -5   6    0.75    0.56
   5  -5  -6    0.78    0.49
  -5  -5   6    0.60    0.63
   5  -5  -6    0.41    0.54
  -5   5   6    0.88    0.56
   5   5  -6    0.48    0.59
  -5   5   6    0.75    0.60
   5   5  -6    0.87    0.61
   5   5  -6    0.77    0.54
  -5   5   6   -0.52    0.53
  -4  -5   6   29.59    2.63
  -4  -5   6   29.72    2.63
  -4  -5   6   30.35    2.54
   4   5  -6   30.19    2.62
   4   5  -6   30.18    2.52
   4   5  -6   31.31    2.65
  -3  -5   6    6.04    0.91
   3  -5  -6    9.55    1.08
   3  -5  -6    8.12    0.94
  -3  -5   6    7.08    1.08
  -3  -5   6    6.56    0.95
   3   5  -6    6.28    1.06
   3   5  -6    6.37    1.09
   3   5  -6    6.68    0.93
  -3   5   6    9.54    1.12
  -3   5   6    8.65    1.21
  -3   5   6    9.16    1.06
  -2  -5   6   35.40    2.70
  -2  -5   6   32.42    2.57
   2  -5  -6   26.07    2.66
   2  -5  -6   24.93    2.53
  -2  -5   6   34.46    2.72
   2   5  -6   33.75    2.56
   2   5  -6   33.85    2.69
   2   5  -6   35.08    2.69
  -2   5   6   26.06    2.56
  -1  -5   6    7.12    1.04
  -1  -5   6    6.61    1.02
  -1  -5   6    6.78    0.89
   1   5  -6    6.48    0.99
   1   5  -6    6.67    1.01
   1   5  -6    7.24    0.87
   0  -5  -6    5.70    0.69
   0  -5  -6    6.65    1.03
   0  -5   6    4.46    0.78
   0  -5   6    4.78    0.77
   0  -5   6    4.50    0.67
   0   5   6    5.61    0.81
   0   5   6    5.76    0.85
   0   5  -6    4.57    0.73
   0   5  -6    4.51    0.73
   0   5   6    6.11    0.79
  -1  -5  -6   21.21    2.11
  -1  -5  -6   18.83    1.85
   1  -5   6   27.07    2.09
   1  -5   6   26.87    2.09
   1   5   6   18.64    1.87
  -1   5  -6   26.66    2.06
   1   5   6   20.19    2.10
  -1   5  -6   27.24    2.06
  -2  -5  -6    5.23    0.71
   2  -5   6    4.81    0.75
   2  -5   6    6.18    0.83
  -2  -5  -6    4.32    0.57
  -2   5  -6    4.61    0.71
   2   5   6    4.24    0.64
  -2   5  -6    5.34    0.70
   2   5   6    3.67    0.80
   2   5   6    4.32    0.78
   3  -5   6   26.60    2.44
   3  -5   6   30.09    2.33
  -3   5  -6   28.93    2.43
  -3   5  -6   26.90    2.41
  -4  -5  -6   24.80    2.16
   4   5   6   22.47    2.17
   4   5   6   25.25    2.26
   5  -5   6    5.60    0.82
  -5   5  -6    4.96    0.83
  -5   5  -6    5.93    0.89
   6  -5   6    2.21    0.64
   6   5   6    0.59    0.67
   6   5   6    1.14    0.71
  -6   5  -6    2.02    0.44
   7  -5   6    6.02    0.86
  -7   5  -6    5.86    0.79
   7   5   6    7.13    1.14
   7   5   6    6.95    0.98
   8  -5   6    1.77    0.63
   8   5   6    1.04    0.76
   8   5   6    1.00    0.73
   9  -5   6    1.79    0.65
   9   5   6    0.74    0.76
  10   5   6    1.18    0.81
  11  -5   6    5.72    0.92
  11   5   6    4.09    0.95
  12   5   6    0.08    0.81
  13   5   6    2.35    0.87
  14   6  -6   11.28    1.57
  13   6  -6    0.29    0.90
  13   6  -6    0.87    0.91
  12  -6  -6    5.42    1.13
  12   6  -6    4.26    1.00
  12   6  -6    3.71    1.00
  11  -6  -6    0.53    0.78
  11  -6  -6    0.98    0.66
  11   6  -6    0.38    0.84
  11   6  -6    0.67    0.80
  10  -6  -6   19.84    1.80
  10  -6  -6   18.68    1.96
  10   6  -6   18.51    1.94
  10   6  -6   18.89    1.91
   9  -6  -6   14.12    1.65
   9  -6  -6   16.23    1.58
   9  -6  -6   15.93    1.62
   9   6  -6   15.28    1.70
   9   6  -6   15.75    1.67
   8  -6  -6   18.30    1.93
   8  -6  -6   19.43    1.94
  -8  -6   6   19.89    1.91
   8   6  -6   21.56    2.02
   8   6  -6   20.66    1.97
   8   6  -6   21.16    1.94
   7  -6  -6   20.21    1.72
  -7  -6   6   14.23    1.66
   7  -6  -6   20.48    1.73
   7   6  -6   15.56    1.77
   7   6  -6   14.35    1.66
  -7   6   6   18.38    1.58
   7   6  -6   14.37    1.72
  -6  -6   6    0.90    0.58
   6  -6  -6    0.45    0.57
  -6  -6   6    0.28    0.67
   6  -6  -6    0.06    0.50
   6   6  -6    0.75    0.61
   6   6  -6    0.71    0.64
   6   6  -6    0.87    0.67
  -6   6   6    0.53    0.56
   5  -6  -6  251.54   17.65
  -5  -6   6  221.53   18.22
  -5  -6   6  229.50   17.64
   5   6  -6  211.52   18.21
   5   6  -6  220.01   17.61
   5   6  -6  225.65   18.21
  -5   6   6  265.11   18.20
   4  -6  -6   31.76    2.47
  -4  -6   6   28.40    2.57
  -4  -6   6   26.66    2.47
  -4  -6   6   28.23    2.58
   4  -6  -6   34.40    2.56
  -4   6   6   28.79    2.52
   4   6  -6   27.09    2.55
  -4   6   6   31.42    2.58
   4   6  -6   27.02    2.45
   4   6  -6   28.51    2.58
  -3  -6   6   92.31    7.92
  -3  -6   6  102.07    7.95
  -3  -6   6   95.92    7.65
   3   6  -6   92.32    7.64
   3   6  -6   95.43    7.92
  -3   6   6  124.08    7.94
   3   6  -6   94.74    7.92
  -2  -6   6    8.53    1.19
  -2  -6   6    8.72    1.18
  -2  -6   6    9.56    1.04
   2   6  -6    7.86    0.94
   2   6  -6    7.69    1.12
   2   6  -6    7.68    1.17
  -1  -6   6   66.46    5.75
  -1  -6   6   70.81    5.76
  -1  -6   6   68.09    5.52
   1   6  -6   67.03    5.72
   1   6  -6   67.86    5.52
  -1   6   6   90.91    5.78
   1   6  -6   68.73    5.73
   0  -6   6    4.83    0.72
   0  -6  -6    2.50    0.60
   0  -6  -6    2.77    0.48
   0   6   6    3.17    0.56
   0   6   6    2.25    0.66
   0   6   6    2.47    0.69
  -1  -6  -6  184.97   13.86
  -1  -6  -6  172.77   13.32
   1  -6   6  184.28   13.86
   1  -6   6  169.72   13.85
   1  -6   6  177.61   13.37
   1   6   6  170.20   13.86
  -1   6  -6  178.44   13.85
   1   6   6  170.47   13.86
  -1   6  -6  176.76   13.85
   1   6   6  177.13   13.32
   2  -6   6   28.73    2.39
   2  -6   6   27.25    2.38
   2  -6   6   27.56    2.26
  -2   6  -6   25.60    2.33
  -2   6  -6   26.92    2.35
   3  -6   6    0.21    0.57
   3  -6   6    0.14    0.53
  -3  -6  -6    1.06    0.49
  -3   6  -6    0.60    0.44
   3   6   6    0.15    0.57
   3   6   6    0.64    0.68
  -3   6  -6    0.34    0.49
   4  -6   6    9.55    1.21
  -4   6  -6   11.08    1.18
  -4   6  -6   10.39    1.16
   5  -6   6   67.05    5.13
  -5   6  -6   69.64    5.10
  -5   6  -6   65.73    5.08
   5   6   6   51.00    5.16
   6  -6   6   17.63    1.75
   6   6   6   22.67    1.88
  -6   6  -6   16.24    1.65
   6   6   6   18.04    1.83
   7  -6   6    4.21    0.73
   7   6   6    2.11    0.79
   7   6   6    1.07    0.79
   8  -6   6   46.82    3.80
   8   6   6   47.13    3.89
   8   6   6   44.31    3.87
   9  -6   6   17.06    1.64
   9   6   6   15.99    1.75
  10   6   6   21.39    2.10
  11  -6   6    0.07    0.72
  11   6   6    0.04    0.82
  12   6   6    9.43    1.40
  13   6   6    1.47    0.86
  14   7  -6    3.84    1.05
  13   7  -6    0.18    0.93
  13   7  -6   -0.79    0.88
  12  -7  -6    1.21    0.89
  12  -7  -6    1.28    0.68
  12   7  -6    0.87    0.86
  12   7  -6    0.77    0.88
  11  -7  -6    0.12    0.62
  11  -7  -6   -0.04    0.79
  11   7  -6    0.12    0.79
  11   7  -6    0.15    0.82
  10  -7  -6    1.33    0.64
  10  -7  -6   -0.02    0.71
  10   7  -6    0.14    0.73
  10   7  -6    0.84    0.83
   9  -7  -6   10.72    1.37
   9  -7  -6   10.50    1.22
   8  -7  -6    3.23    0.69
  -8  -7   6    3.62    0.80
   8  -7  -6    3.77    0.85
   8   7  -6    4.24    0.86
   8   7  -6    4.24    0.85
   8   7  -6    3.65    0.88
  -7  -7   6    8.81    1.23
   7   7  -6    8.87    1.20
   7   7  -6    7.87    1.21
   7   7  -6    8.69    1.25
  -6  -7   6   44.17    3.61
   6  -7  -6   43.81    3.59
  -6  -7   6   43.35    3.69
   6  -7  -6   45.35    3.65
   6   7  -6   42.93    3.68
   6   7  -6   45.11    3.70
  -6   7   6   40.62    3.59
   6   7  -6   45.24    3.57
  -5  -7   6   38.79    3.23
  -5  -7   6   37.07    3.12
   5   7  -6   39.01    3.25
   5   7  -6   37.81    3.23
   5   7  -6   36.32    3.10
   4  -7  -6   52.71    4.77
  -4  -7   6   65.88    4.82
   4  -7  -6   52.62    4.63
  -4  -7   6   64.45    4.66
   4   7  -6   62.63    4.64
  -4   7   6   52.78    4.79
  -4   7   6   49.81    4.75
   4   7  -6   65.47    4.81
   4   7  -6   63.81    4.81
  -3  -7   6  105.19    8.19
  -3  -7   6  102.29    7.91
  -3  -7   6  104.64    8.19
   3   7  -6  101.39    8.18
   3   7  -6  104.22    8.18
   3   7  -6   98.89    7.89
  -2  -7   6  104.94    8.08
  -2  -7   6  106.03    8.37
  -2  -7   6  106.61    8.38
   2   7  -6  106.96    8.37
   2   7  -6  105.93    8.37
   2   7  -6  101.42    8.07
   1  -7  -6   57.22    4.01
  -1  -7   6   47.20    4.19
  -1  -7   6   48.87    4.02
  -1  -7   6   46.16    4.19
   1  -7  -6   55.81    4.20
  -1   7   6   55.91    4.23
   1   7  -6   48.40    4.18
   1   7  -6   46.71    4.17
  -1   7   6   52.75    4.20
   0  -7   6   74.53    5.78
   0  -7   6   72.54    6.00
   0  -7   6   75.75    6.01
   0   7  -6   76.06    6.00
  -1  -7  -6    3.77    0.68
  -1  -7  -6    3.13    0.49
   1  -7   6    5.16    0.79
   1  -7   6    5.39    0.76
   1  -7   6    5.39    0.80
   1   7   6    2.97    0.77
   1   7   6    3.35    0.73
   2  -7   6   20.44    1.96
   2  -7   6   21.87    1.99
   2  -7   6   22.88    1.89
  -2   7  -6   22.95    1.97
  -2   7  -6   19.48    1.93
   3  -7   6    0.04    0.58
  -3  -7  -6    0.46    0.47
   3  -7   6    0.13    0.57
  -3   7  -6   -0.06    0.44
   3   7   6    0.48    0.64
  -3   7  -6   -0.07    0.49
   3   7   6    0.16    0.66
   4  -7   6   47.06    4.02
   4  -7   6   49.98    4.01
  -4   7  -6   51.17    3.99
  -4   7  -6   48.00    3.99
   5  -7   6   21.98    1.92
   5   7   6   16.46    1.98
  -5   7  -6   22.13    1.85
  -5   7  -6   21.61    1.82
   5   7   6   18.09    2.00
   6  -7   6    2.26    0.67
   6   7   6    0.31    0.76
   6   7   6    0.89    0.73
   7  -7   6   11.79    1.28
   7   7   6    9.17    1.39
   7   7   6    9.44    1.37
   8  -7   6    0.71    0.65
   8   7   6    0.38    0.80
   8   7   6    0.74    0.78
   9  -7   6    0.35    0.64
   9   7   6    2.07    0.87
  10   7   6    0.59    0.83
  11   7   6    2.89    0.92
  12   7   6    1.93    0.92
  13   7   6    0.04    0.88
  14   8  -6    1.06    0.97
  13   8  -6    0.78    0.92
  13   8  -6   -0.40    0.90
  12  -8  -6    7.83    1.07
  12   8  -6    7.12    1.18
  12   8  -6    6.64    1.20
  11  -8  -6    0.96    0.82
  11  -8  -6    0.93    0.64
  11   8  -6    0.45    0.88
  11   8  -6    0.97    0.81
  10  -8  -6   16.12    1.46
  10  -8  -6   12.94    1.57
  10   8  -6   11.50    1.52
  10   8  -6   10.78    1.59
   9  -8  -6    6.11    0.94
   9   8  -6    3.25    0.92
   9   8  -6    2.62    0.86
  -8  -8   6   12.41    1.46
   8   8  -6   12.57    1.58
   8   8  -6   12.45    1.52
   8   8  -6   13.82    1.47
  -7  -8   6    2.88    0.81
  -7   8   6    5.71    0.86
   7   8  -6    3.12    0.80
   7   8  -6    3.54    0.80
   7   8  -6    3.71    0.88
   6  -8  -6   17.14    1.90
  -6  -8   6   21.97    2.00
   6  -8  -6   19.19    1.99
  -6  -8   6   22.87    1.99
   6   8  -6   23.56    2.05
   6   8  -6   22.57    1.92
  -6   8   6   17.04    1.89
   6   8  -6   22.73    2.03
  -5  -8   6    4.25    0.88
  -5  -8   6    4.53    0.77
   5   8  -6    4.67    0.87
   5   8  -6    4.68    0.84
   5   8  -6    4.30    0.77
  -5   8   6    6.53    0.98
   4  -8  -6   -0.31    0.51
   4  -8  -6    0.12    0.51
  -4  -8   6    0.01    0.53
  -4  -8   6    0.30    0.65
   4   8  -6    0.55    0.63
  -4   8   6   -0.20    0.59
   4   8  -6   -0.23    0.48
   4   8  -6    0.08    0.58
  -3  -8   6   64.73    5.58
   3  -8  -6   76.86    5.40
   3  -8  -6   77.64    5.58
  -3  -8   6   63.80    5.38
  -3  -8   6   66.47    5.57
   3   8  -6   64.14    5.36
   3   8  -6   65.99    5.58
  -3   8   6   71.55    5.58
  -3   8   6   75.01    5.58
   3   8  -6   62.57    5.55
  -2  -8   6   10.10    1.27
  -2  -8   6    9.39    1.14
  -2  -8   6   10.07    1.26
   2   8  -6   10.44    1.26
   2   8  -6    9.19    1.08
   2   8  -6    9.21    1.25
  -1  -8   6   43.41    3.54
  -1  -8   6   45.10    3.57
  -1  -8   6   43.85    3.40
   1  -8  -6   40.19    3.36
   1  -8  -6   39.84    3.55
  -1   8   6   39.08    3.54
   1   8  -6   45.60    3.56
  -1   8   6   39.64    3.55
   1   8  -6   44.97    3.54
   0  -8   6    8.68    1.16
   0  -8   6    7.33    1.02
   0  -8   6    7.91    1.16
   0   8  -6    7.15    1.07
   0   8  -6    8.25    1.14
  -1  -8  -6  233.80   16.26
   1  -8   6  207.96   16.31
   1  -8   6  197.07   16.88
   1  -8   6  201.35   16.88
  -1  -8  -6  230.53   16.90
  -1   8  -6  206.13   16.88
  -1   8  -6  208.91   16.88
   1   8   6  231.01   16.93
   1   8   6  219.94   16.90
   2  -8   6    6.06    0.92
   2  -8   6    4.28    0.80
   2  -8   6    4.72    0.76
  -2   8  -6    4.53    0.74
  -2   8  -6    4.85    0.73
   3  -8   6   26.17    2.35
   3  -8   6   27.52    2.35
   3   8   6   27.24    2.44
  -3   8  -6   26.28    2.30
  -3   8  -6   25.72    2.28
   3   8   6   24.98    2.39
   4  -8   6    0.93    0.61
   4  -8   6    0.31    0.63
   4   8   6    0.51    0.71
   4   8   6    0.16    0.71
  -4   8  -6    0.21    0.51
   5  -8   6   38.81    3.27
   5  -8   6   40.96    3.32
   5   8   6   40.72    3.39
  -5   8  -6   37.09    3.23
   5   8   6   39.66    3.37
   6  -8   6   21.68    1.90
   6   8   6   19.51    1.98
   6   8   6   17.09    1.95
   7  -8   6   -0.57    0.64
   7   8   6    0.94    0.81
   7   8   6    0.35    0.78
   8  -8   6    3.56    0.76
   8   8   6    3.23    0.94
   8   8   6    4.53    0.95
   9  -8   6   -0.66    0.61
   9   8   6   -0.09    0.84
  10  -8   6    1.51    0.62
  10   8   6    1.22    0.91
  11   8   6    0.12    0.83
  12   8   6    2.08    0.94
  13   8   6    3.67    1.04
  14   8   6    2.89    0.97
  13   9  -6    1.51    0.92
  13   9  -6    1.62    0.99
  12  -9  -6    0.82    0.65
  12   9  -6    0.36    0.83
  12   9  -6   -0.02    0.95
  11  -9  -6   12.05    1.60
  11  -9  -6   13.35    1.39
  10  -9  -6    2.08    0.67
  10  -9  -6    1.83    0.83
  10   9  -6    0.86    0.85
  10   9  -6    1.78    0.79
   9   9  -6   33.60    2.98
   9   9  -6   32.71    2.86
   8  -9  -6    7.86    1.22
   8  -9  -6    8.33    1.26
  -8  -9   6    8.71    1.25
   8   9  -6    8.59    1.31
   8   9  -6    9.05    1.21
   8   9  -6   10.38    1.40
   7  -9  -6    0.28    0.55
  -7  -9   6    0.40    0.71
   7  -9  -6   -0.02    0.64
   7   9  -6    0.79    0.63
   7   9  -6    1.06    0.73
   7   9  -6    0.73    0.77
  -7   9   6   -0.70    0.53
  -6  -9   6   10.79    1.32
  -6  -9   6   11.03    1.37
   6   9  -6   10.24    1.25
   6   9  -6   10.93    1.42
   6   9  -6    9.77    1.37
   5  -9  -6    8.16    1.20
   5  -9  -6    8.97    1.12
  -5  -9   6    9.80    1.27
  -5  -9   6    9.06    1.20
   5   9  -6    9.36    1.29
  -5   9   6    7.48    1.17
   5   9  -6    8.32    1.10
   5   9  -6    8.22    1.23
  -4  -9   6    6.48    0.97
  -4  -9   6    5.54    0.84
   4   9  -6    6.81    0.93
   4   9  -6    5.30    0.83
   4   9  -6    6.33    0.95
  -3  -9   6   40.63    3.30
  -3  -9   6   41.98    3.17
   3  -9  -6   33.99    3.11
   3  -9  -6   33.32    3.25
  -3   9   6   31.75    3.25
   3   9  -6   43.37    3.30
   3   9  -6   42.48    3.30
   3   9  -6   40.84    3.14
  -2  -9   6  109.19    8.55
  -2  -9   6  110.59    8.86
   2   9  -6  112.28    8.86
   2   9  -6  113.24    8.86
   1  -9  -6    1.20    0.46
  -1  -9   6    0.68    0.49
  -1  -9   6    0.71    0.61
   1  -9  -6    0.74    0.53
  -1  -9   6    0.78    0.64
   1   9  -6    0.95    0.62
  -1   9   6    0.64    0.66
   1   9  -6    0.74    0.54
  -1   9   6    0.06    0.65
   0  -9  -6    4.32    0.56
   0  -9  -6    3.24    0.63
   0  -9   6    2.37    0.70
   0  -9   6    3.00    0.75
   0  -9   6    2.97    0.59
   0   9  -6    3.07    0.65
   0   9  -6    2.73    0.70
   0   9   6    3.24    0.79
   0   9   6    3.19    0.74
   1  -9   6    1.16    0.52
  -1  -9  -6    1.79    0.38
  -1  -9  -6    1.03    0.53
   1  -9   6    0.58    0.61
   1  -9   6    1.04    0.65
  -1   9  -6    1.29    0.60
   1   9   6    0.79    0.68
  -1   9  -6    1.40    0.58
   1   9   6    1.13    0.71
  -2  -9  -6  106.68    8.31
   2  -9   6  101.22    8.30
   2  -9   6  108.97    8.03
   2  -9   6  105.60    8.29
  -2  -9  -6  104.07    7.91
   2   9   6   98.20    8.31
   2   9   6  104.75    8.35
  -2   9  -6  103.93    8.28
  -2   9  -6  104.87    8.28
   3  -9   6   14.74    1.46
   3  -9   6   13.58    1.48
   3   9   6   13.08    1.53
  -3   9  -6   13.32    1.41
   3   9   6   12.46    1.52
   4  -9   6   53.34    4.73
   4  -9   6   56.72    4.73
   4   9   6   65.95    4.83
   4   9   6   63.87    4.80
  -4   9  -6   51.67    4.67
   5  -9   6    7.44    1.18
   5  -9   6    7.39    1.15
   5   9   6   10.37    1.32
  -5   9  -6    6.97    0.99
   5   9   6    9.37    1.28
   6  -9   6    3.38    0.74
   6   9   6    1.10    0.82
   6   9   6    1.25    0.79
  -6   9  -6    0.46    0.30
   7  -9   6   62.65    4.76
   7   9   6   58.89    4.86
   7   9   6   53.37    4.83
   8   9   6    6.22    1.12
   8   9   6    8.30    1.33
   9  -9   6   17.89    1.75
   9   9   6   19.04    2.00
  10   9   6    7.09    1.20
  11   9   6    6.37    1.18
  12   9   6    0.39    0.84
  13   9   6    0.60    0.91
  13  10  -6    0.46    0.89
  13  10  -6    0.28    0.98
  12  10  -6   10.80    1.49
  12  10  -6   11.87    1.66
  11 -10  -6    0.04    0.81
  11 -10  -6    0.85    0.69
  11  10  -6    1.23    0.93
  11  10  -6    0.28    0.76
  10 -10  -6    0.18    0.74
  10  10  -6    0.38    0.88
  10  10  -6    0.29    0.70
   9  10  -6   14.03    1.69
   9  10  -6   13.66    1.54
   8 -10  -6    5.71    0.95
   8 -10  -6    5.24    0.76
  -8 -10   6    2.90    0.84
   8  10  -6    2.50    0.78
   8  10  -6    3.13    0.92
   8  10  -6    3.28    0.89
  -7 -10   6   19.70    2.03
   7  10  -6   19.34    2.08
  -7  10   6   24.95    1.88
   7  10  -6   17.65    2.02
   7  10  -6   19.25    1.91
   6 -10  -6    2.18    0.66
   6 -10  -6    3.12    0.76
  -6 -10   6    3.47    0.86
   6  10  -6    3.42    0.75
   6  10  -6    4.18    0.88
   6  10  -6    4.59    0.88
  -6  10   6    1.81    0.67
  -5 -10   6   16.94    1.73
  -5 -10   6   16.31    1.80
   5  10  -6   16.42    1.82
   5  10  -6   16.43    1.68
  -5  10   6   21.94    1.77
   5  10  -6   17.93    1.87
  -4 -10   6   -0.09    0.68
   4 -10  -6    0.70    0.55
   4 -10  -6    0.62    0.55
  -4 -10   6   -0.27    0.50
  -4  10   6   -0.29    0.65
   4  10  -6    0.05    0.67
   4  10  -6   -0.03    0.65
   4  10  -6   -0.30    0.49
  -3 -10   6   12.99    1.45
   3 -10  -6   16.65    1.44
  -3 -10   6   12.21    1.56
   3 -10  -6   15.39    1.58
   3  10  -6   12.97    1.55
   3  10  -6   12.89    1.55
  -3  10   6   15.57    1.56
   2 -10  -6   18.35    1.76
  -2 -10   6   17.49    1.79
  -2 -10   6   16.97    1.76
   2 -10  -6   18.57    1.63
  -2 -10   6   16.53    1.67
   2  10  -6   16.65    1.76
   2  10  -6   17.06    1.80
  -2  10   6   17.58    1.78
  -1 -10   6   16.19    1.64
  -1 -10   6   15.64    1.65
  -1 -10   6   14.89    1.53
   1  10  -6   16.90    1.66
   1  10  -6   15.52    1.61
   0 -10   6    0.03    0.61
   0 -10  -6    0.42    0.50
   0 -10   6    0.63    0.49
   0 -10   6    0.44    0.62
   0 -10  -6    0.45    0.40
   0  10  -6    0.67    0.61
   0  10   6   -0.26    0.67
   0  10  -6    0.16    0.56
   0  10   6    0.18    0.65
   1 -10   6   18.92    1.99
   1 -10   6   21.85    1.90
  -1 -10  -6   21.81    2.03
   1 -10   6   20.92    2.00
  -1 -10  -6   23.06    1.78
  -1  10  -6   20.79    2.01
   1  10   6   20.27    2.05
   1  10   6   21.83    2.05
   2 -10   6   19.89    2.08
   2 -10   6   20.10    2.08
   2  10   6   26.34    2.18
  -2  10  -6   19.74    2.06
   2  10   6   28.66    2.23
   3 -10   6    8.12    1.06
   3 -10   6    7.92    1.12
  -3  10  -6    7.28    1.02
   3  10   6    5.66    1.02
   3  10   6    5.01    0.98
   4 -10   6    0.17    0.65
   4 -10   6    0.80    0.61
   4  10   6    0.47    0.78
  -4  10  -6    0.78    0.55
   4  10   6    1.24    0.77
   5 -10   6   30.39    2.47
   5 -10   6   26.97    2.45
  -5  10  -6   25.29    2.35
   5  10   6   27.14    2.54
   5  10   6   27.69    2.56
   6 -10   6    9.85    1.20
   6 -10   6   10.08    1.20
  -6  10  -6    6.71    0.88
   7 -10   6    1.28    0.70
   7  10   6    0.82    0.85
   7  10   6    0.30    0.85
   8 -10   6    1.55    0.72
   8  10   6    5.48    1.02
   9 -10   6    2.50    0.74
   9  10   6    4.25    1.04
  10 -10   6    0.51    0.59
  10  10   6    0.04    0.89
  11  10   6   -0.08    0.86
  12 -10   6    2.42    0.87
  12  10   6    2.33    0.99
  13  10   6    1.52    0.96
  13  11  -6    4.20    1.13
  12 -11  -6    1.15    0.66
  12  11  -6    0.92    0.85
  12  11  -6    0.70    0.99
  11 -11  -6    9.98    1.50
  11 -11  -6   10.90    1.34
  11  11  -6   12.13    1.50
  11  11  -6   15.65    1.70
  10 -11  -6   -0.54    0.70
  10  11  -6    0.60    0.73
  10  11  -6   -0.44    0.87
   9 -11  -6    9.87    1.33
   9  11  -6    8.85    1.27
   9  11  -6    8.43    1.38
   8 -11  -6    0.45    0.69
  -8 -11   6    0.21    0.72
   8  11  -6    0.16    0.65
   8  11  -6    0.51    0.79
   8  11  -6    0.23    0.82
  -7 -11   6   15.58    1.63
   7 -11  -6    9.74    1.50
   7  11  -6   14.83    1.47
   7  11  -6   14.02    1.63
   7  11  -6   14.74    1.70
   6 -11  -6   17.22    1.70
  -6 -11   6   16.41    1.77
   6 -11  -6   16.90    1.70
   6  11  -6   16.60    1.78
   6  11  -6   17.41    1.85
   6  11  -6   16.07    1.64
  -6  11   6   15.28    1.64
  -5 -11   6    7.25    1.09
  -5 -11   6    7.60    1.17
   5  11  -6    7.44    1.10
   5  11  -6    8.44    1.12
   5  11  -6    6.21    1.03
  -4 -11   6    9.75    1.39
  -4 -11   6   11.02    1.27
   4  11  -6    9.79    1.19
   4  11  -6   10.73    1.46
   4  11  -6   10.64    1.36
  -3 -11   6   16.70    1.47
   3 -11  -6   11.35    1.52
   3 -11  -6   11.07    1.39
  -3 -11   6   14.95    1.61
  -3  11   6   11.26    1.55
   3  11  -6   16.91    1.67
   3  11  -6   16.92    1.59
   2 -11  -6   92.60    7.08
   2 -11  -6   93.60    6.83
  -2 -11   6   82.84    7.10
  -2 -11   6   83.03    6.84
  -2  11   6   92.76    7.10
   2  11  -6   84.32    7.09
  -1 -11   6   21.08    1.94
  -1 -11   6   19.34    1.92
  -1 -11   6   19.32    1.82
   1  11  -6   19.97    1.93
   0 -11   6    7.76    1.21
   0 -11   6    8.96    1.18
   0 -11   6    7.46    1.04
   0  11  -6    8.61    1.18
   1 -11   6   33.83    2.94
   1 -11   6   34.74    2.82
  -1 -11  -6   35.21    2.71
   1 -11   6   32.74    2.93
  -1  11  -6   34.26    2.93
   1  11   6   32.24    2.98
   1  11   6   33.53    3.01
  -2 -11  -6   33.31    2.58
   2  11   6   33.53    2.93
   2  11   6   31.26    2.90
   3 -11   6    1.84    0.68
   3 -11   6    1.31    0.69
   3  11   6    1.88    0.83
   3  11   6    2.10    0.78
  -3  11  -6    1.51    0.63
   4 -11   6   25.01    2.22
   4 -11   6   24.27    2.25
  -4  11  -6   23.91    2.18
   5 -11   6    0.49    0.65
   5 -11   6    1.22    0.71
  -5  11  -6    0.86    0.54
   5  11   6    0.35    0.89
   5  11   6    0.28    0.80
   6 -11   6    2.56    0.75
   6 -11   6    1.39    0.72
  -6  11  -6    2.10    0.52
   6  11   6    0.88    0.92
   6  11   6    1.35    0.89
   7 -11   6    1.61    0.72
   7 -11   6    2.08    0.67
   7  11   6    3.27    0.95
   7  11   6    3.16    0.98
   8 -11   6    9.67    1.25
   8  11   6    9.41    1.52
   9 -11   6   18.32    1.77
   9  11   6   17.61    2.02
  10 -11   6    0.54    0.61
  10  11   6    0.13    0.89
  11  11   6    1.00    0.95
  12  11   6   -0.34    0.92
  12  12  -6    1.24    1.02
  12  12  -6    0.35    0.80
  11  12  -6    2.09    0.85
  11  12  -6    2.20    1.06
  10 -12  -6    6.86    1.14
  10  12  -6    3.99    0.93
  10  12  -6    4.46    1.10
   9 -12  -6    6.41    1.08
   9  12  -6    4.78    0.95
   9  12  -6    5.59    1.11
  -8 -12   6    0.26    0.77
   8 -12  -6    0.74    0.70
   8  12  -6    1.40    0.85
   8  12  -6    1.20    0.74
  -7 -12   6    6.10    1.04
   7  12  -6    7.32    1.09
   7  12  -6    6.36    1.11
  -6 -12   6   -0.35    0.76
   6 -12  -6    0.55    0.58
   6 -12  -6    0.85    0.64
   6  12  -6    0.15    0.60
   6  12  -6    0.09    0.77
  -6  12   6    0.18    0.62
  -5 -12   6    1.13    0.83
  -5  12   6    4.96    0.83
   5  12  -6    1.67    0.85
   5  12  -6    2.79    0.71
  -4 -12   6    6.62    1.09
  -4 -12   6    7.22    1.14
  -4  12   6   10.79    1.29
   4  12  -6    6.87    1.10
  -3 -12   6   73.91    5.55
   3 -12  -6   64.82    5.52
  -3 -12   6   73.51    5.79
   3 -12  -6   68.24    5.72
   3  12  -6   76.88    5.79
  -3  12   6   66.37    5.73
   2 -12  -6    7.07    0.88
  -2 -12   6    5.24    0.81
  -2 -12   6    4.62    0.96
   2 -12  -6    6.04    0.87
  -2  12   6    5.00    0.93
   2  12  -6    4.85    0.95
  -1 -12   6   74.11    6.11
  -1 -12   6   70.26    6.09
  -1 -12   6   69.00    5.86
   1  12  -6   72.35    6.10
  -1  12   6   90.66    6.14
   0 -12   6   16.86    1.80
   0 -12   6   16.34    1.66
   0 -12   6   19.99    1.87
   0  12  -6   18.34    1.81
  -1 -12  -6   18.68    1.68
   1 -12   6   18.69    1.93
   1 -12   6   21.94    1.88
   1 -12   6   20.88    1.97
   1  12   6   16.47    1.97
  -1  12  -6   21.20    1.93
  -2 -12  -6    0.42    0.35
   2 -12   6    0.44    0.67
   2 -12   6    0.25    0.70
   2  12   6    0.41    0.82
  -2  12  -6    0.48    0.64
   3 -12   6    0.59    0.72
   3 -12   6    0.83    0.67
   3  12   6   -0.23    0.83
  -3  12  -6    1.00    0.66
   4 -12   6    1.63    0.71
   4 -12   6    1.22    0.73
   4  12   6    0.25    0.80
  -4  12  -6    1.29    0.62
   4  12   6    0.82    0.86
   5 -12   6    4.23    0.80
   5 -12   6    3.88    0.83
  -5  12  -6    3.47    0.66
   5  12   6    1.13    0.89
   5  12   6    1.01    0.92
   6 -12   6    0.54    0.66
   6 -12   6   -0.14    0.68
  -6  12  -6    0.38    0.50
   6  12   6    0.47    0.85
   6  12   6   -0.36    0.86
   7 -12   6    7.22    1.13
   7 -12   6    7.65    1.12
   7  12   6    4.23    1.04
   7  12   6    4.68    1.13
   8 -12   6    7.17    0.99
   8  12   6    4.72    1.18
   9 -12   6    6.49    1.08
   9  12   6    6.72    1.26
  10 -12   6    2.91    0.75
  10  12   6    4.29    1.12
  11  12   6   -0.30    0.95
  12  12   6    0.12    0.97
  12 -13  -6    0.74    0.72
  12  13  -6    1.44    0.90
  12  13  -6    2.71    1.11
  11  13  -6    0.05    1.00
  11  13  -6   -0.08    0.80
  10 -13  -6   -0.41    0.76
  10  13  -6    0.23    0.94
  10  13  -6    0.92    0.79
   9  13  -6    6.83    1.06
   9  13  -6    5.80    1.16
   8 -13  -6    4.66    0.94
  -8 -13   6    3.65    0.94
   8  13  -6    3.19    0.84
   8  13  -6    3.72    1.00
  -7 -13   6    4.89    1.00
   7 -13  -6    4.17    0.89
   7  13  -6    4.96    1.03
   7  13  -6    4.64    0.88
   6 -13  -6    1.39    0.62
   6 -13  -6    1.50    0.70
  -6 -13   6    1.70    0.83
   6  13  -6    1.54    0.87
  -6  13   6    0.66    0.64
   5 -13  -6    1.61    0.63
   5 -13  -6    1.58    0.66
  -5  13   6    1.38    0.71
  -4 -13   6   16.96    1.77
   4 -13  -6   14.05    1.56
   4 -13  -6   14.96    1.68
   4  13  -6   17.39    1.77
  -4  13   6   14.75    1.71
   3 -13  -6   45.78    4.05
   3 -13  -6   43.70    3.89
  -3 -13   6   50.92    4.11
  -3 -13   6   54.10    3.97
   3  13  -6   53.73    4.12
  -3  13   6   43.91    4.06
   2 -13  -6    4.66    0.82
   2 -13  -6    4.47    0.75
  -2 -13   6    7.41    1.04
  -2  13   6    4.02    0.92
   1 -13  -6   12.48    1.51
   1 -13  -6   11.24    1.19
  -1  13   6   10.54    1.53
   0 -13   6   52.18    4.14
   0 -13   6   53.99    4.33
   0 -13   6   55.98    4.32
   0 -13  -6   46.25    4.04
   0  13  -6   54.58    4.29
   0  13   6   46.72    4.32
   1 -13   6   14.60    1.64
   1 -13   6   13.70    1.62
   1 -13   6   16.78    1.58
  -1  13  -6   13.01    1.59
   2 -13   6   30.73    2.66
   2 -13   6   27.31    2.63
  -2 -13  -6   30.61    2.37
   2  13   6   28.70    2.72
  -2  13  -6   28.64    2.60
   3 -13   6    0.23    0.69
   3 -13   6    0.24    0.72
   3  13   6    2.01    0.93
  -3  13  -6    0.07    0.65
   4 -13   6   27.36    2.37
   4 -13   6   24.43    2.38
   4  13   6   27.04    2.48
  -4  13  -6   24.09    2.28
   5 -13   6   29.87    2.60
   5 -13   6   30.51    2.59
  -5  13  -6   28.13    2.48
   5  13   6   25.95    2.68
   6 -13   6    3.05    0.77
   6 -13   6    2.84    0.84
   6  13   6    2.89    1.01
   7 -13   6   11.27    1.34
   7  13   6    8.12    1.39
   8 -13   6    5.62    0.91
   8  13   6    2.68    1.12
   9 -13   6   22.41    2.10
   9  13   6   22.78    2.38
  10 -13   6    0.69    0.66
  10  13   6    0.93    0.98
  11  13   6    0.55    0.97
  12  13   6   -0.78    0.98
  12 -14  -6    0.41    0.68
  12  14  -6    0.77    0.88
  11  14  -6   -0.18    0.82
  11  14  -6    0.23    1.05
  10 -14  -6    0.14    0.82
  10  14  -6    2.07    0.85
  10  14  -6    1.84    1.05
   9 -14  -6    1.69    0.81
   9  14  -6    0.47    0.75
   9  14  -6   -0.76    0.89
   8 -14  -6    1.24    0.78
  -8 -14   6    2.93    0.91
   8  14  -6    2.60    0.95
   8  14  -6    2.52    0.80
  -7 -14   6    0.76    0.84
   7 -14  -6    0.25    0.68
   7  14  -6   -0.22    0.83
   6 -14  -6   46.90    4.23
   6 -14  -6   53.29    4.34
  -6  14   6   46.52    4.27
   6  14  -6   61.98    4.44
   5 -14  -6    2.26    0.71
   5 -14  -6    2.47    0.72
  -5 -14   6    2.26    0.90
  -5  14   6    2.28    0.78
   5  14  -6    1.92    0.90
   4 -14  -6   16.94    1.65
   4 -14  -6   13.53    1.46
  -4 -14   6   11.85    1.65
   4  14  -6   13.02    1.70
  -4  14   6   14.29    1.67
   3 -14  -6    0.44    0.63
   3 -14  -6   -0.34    0.53
  -3 -14   6    1.21    0.83
  -3  14   6    0.26    0.79
   3  14  -6    0.74    0.85
   2 -14  -6   14.12    1.31
  -2 -14   6    9.56    1.50
   2 -14  -6   14.89    1.57
   2  14  -6    9.31    1.48
  -2  14   6   13.19    1.62
  -1 -14   6   23.49    2.65
   1 -14  -6   33.70    2.49
   1  14  -6   26.98    2.69
  -1  14   6   33.89    2.77
   0 -14   6   -0.29    0.74
   0 -14  -6    0.41    0.46
   0 -14  -6    0.48    0.69
   0  14   6    0.41    0.84
   0  14  -6   -0.10    0.73
  -1 -14  -6    0.42    0.73
   1 -14   6    0.61    0.75
  -1 -14  -6    0.72    0.44
   1 -14   6    1.11    0.77
   1  14   6    0.42    0.86
  -1  14  -6    1.51    0.77
   2 -14   6   44.63    3.38
   2 -14   6   43.94    3.37
  -2 -14  -6   33.86    3.38
  -2 -14  -6   33.81    3.06
  -2  14  -6   44.33    3.35
   2  14   6   33.15    3.41
  -3 -14  -6   16.45    1.34
   3 -14   6   15.98    1.76
   3 -14   6   14.47    1.68
   3  14   6   16.35    1.80
  -3  14  -6   13.80    1.62
   4 -14   6    2.13    0.78
   4 -14   6    2.32    0.82
  -4  14  -6    2.06    0.72
   4  14   6    3.37    1.01
   5 -14   6    7.07    1.05
   5 -14   6    7.60    1.24
  -5  14  -6    6.68    1.08
   5  14   6    8.15    1.28
   6 -14   6   13.78    1.60
   6 -14   6   13.55    1.58
   7 -14   6    7.83    1.20
   7  14   6    6.43    1.29
   8 -14   6    2.95    0.85
   8  14   6    6.34    1.26
   9 -14   6    0.91    0.73
   9  14   6    0.98    0.98
  10 -14   6    0.58    0.70
  10  14   6    1.54    1.01
  11  14   6   -0.18    0.96
  11  15  -6   10.79    1.72
  10  15  -6    1.33    1.05
   9 -15  -6   10.47    1.46
   8 -15  -6    8.84    1.23
  -8 -15   6    5.67    1.12
   8  15  -6    6.00    1.20
  -7 -15   6   33.16    2.83
   7 -15  -6   24.39    2.64
   7  15  -6   32.02    2.80
   6 -15  -6   10.38    1.47
  -6 -15   6   10.40    1.55
   6 -15  -6   11.71    1.35
   6  15  -6    8.63    1.48
   5 -15  -6    3.05    0.73
   5 -15  -6    2.77    0.73
  -5  15   6    2.02    0.81
   4 -15  -6   17.32    1.68
   4 -15  -6   16.69    1.84
  -4  15   6   17.08    1.86
   3 -15  -6    7.20    0.97
   3 -15  -6    6.65    1.01
  -3  15   6    5.64    1.07
   2 -15  -6    1.27    0.66
   2 -15  -6    2.06    0.60
  -2 -15   6    1.89    0.84
   2  15  -6    1.67    0.85
  -2  15   6    1.35    0.91
   1 -15  -6    2.90    0.81
  -1 -15   6    0.45    0.78
   1 -15  -6    3.43    0.64
   1  15  -6    0.89    0.78
  -1  15   6    2.13    0.96
   0 -15  -6    1.07    0.77
   0 -15  -6    1.55    0.52
   0 -15   6    1.05    0.76
   0  15   6    1.25    0.89
   0  15  -6    1.12    0.79
   1 -15   6   12.46    1.58
   1 -15   6   11.29    1.51
  -1  15  -6   13.02    1.52
   2 -15   6    6.55    1.08
   2 -15   6    7.26    1.10
  -2  15  -6    7.10    1.06
   3 -15   6   11.58    1.61
   3 -15   6   12.13    1.62
  -3 -15  -6   15.18    1.77
  -3 -15  -6   15.80    1.26
  -3  15  -6   12.90    1.56
   3  15   6   14.51    1.79
   4 -15   6   27.36    2.40
   4 -15   6   24.92    2.35
  -4  15  -6   23.64    2.28
   5 -15   6    0.69    0.75
   5 -15   6    0.41    0.76
   5  15   6    3.80    1.06
  -5  15  -6    1.30    0.64
   6 -15   6   27.02    2.49
   7 -15   6   -0.35    0.75
   7  15   6    0.46    0.91
   8 -15   6    1.44    0.82
   8  15   6    0.80    0.94
   9 -15   6    1.21    0.74
   9  15   6    0.50    0.98
  10 -15   6    6.77    0.99
  10  15   6    5.51    1.33
  11  15   6    8.08    1.46
  11  16  -6    1.32    1.08
  10  16  -6    1.38    1.10
   9 -16  -6    0.10    0.79
   9  16  -6    0.56    1.00
   8 -16  -6    4.83    1.00
   8  16  -6    4.06    1.15
  -7 -16   6    2.52    0.94
   7  16  -6    2.75    1.02
  -6 -16   6    3.62    1.02
   6 -16  -6    2.14    0.78
   6  16  -6    3.61    1.03
   5 -16  -6   26.66    2.38
   5 -16  -6   23.50    2.26
  -5  16   6   24.61    2.37
   4 -16  -6   -0.24    0.57
  -4 -16   6   -0.25    0.80
   4 -16  -6    0.21    0.63
   4  16  -6   -0.59    0.85
  -4  16   6    0.69    0.81
  -3 -16   6    1.25    0.88
   3 -16  -6    1.05    0.67
   3 -16  -6    1.09    0.62
   3  16  -6    1.77    0.90
  -3  16   6    0.71    0.83
   2 -16  -6    1.77    0.62
  -2 -16   6    4.52    0.95
   2 -16  -6    1.52    0.80
  -2  16   6    1.63    0.96
   1 -16  -6   13.73    1.34
  -1 -16   6   12.70    1.60
   1 -16  -6   11.75    1.61
  -1  16   6   12.14    1.65
   1  16  -6   11.53    1.59
   0 -16  -6    3.54    0.88
   0  16   6    4.47    1.10
  -1 -16  -6    2.99    0.92
   1 -16   6    3.48    0.92
  -1 -16  -6    3.03    0.62
  -1  16  -6    4.90    0.94
   1  16   6    2.17    1.06
   2 -16   6   15.45    1.77
   2 -16   6   17.04    1.83
  -2  16  -6   16.57    1.80
   3 -16   6   -0.30    0.74
  -3 -16  -6    1.52    0.85
   3 -16   6    0.51    0.78
  -3 -16  -6    1.31    0.40
  -3  16  -6    0.75    0.74
   3  16   6    0.01    0.99
   4 -16   6   -0.22    0.73
   4 -16   6   -0.58    0.73
  -4 -16  -6    0.06    0.79
  -4  16  -6   -0.25    0.67
   4  16   6    0.11    0.82
   5 -16   6    2.80    0.85
   5 -16   6    1.66    0.84
   5  16   6    3.66    1.10
   6 -16   6    1.74    0.83
   6  16   6    3.71    1.13
   7 -16   6    4.23    0.96
   7  16   6    2.11    1.12
   8 -16   6    2.80    0.84
   8  16   6    3.51    1.17
   9 -16   6    5.09    0.95
   9  16   6    1.99    1.22
  10 -16   6    0.44    0.73
  10  16   6    0.45    1.06
  10  17  -6    1.67    1.11
   9  17  -6    3.90    1.19
   8 -17  -6   -0.04    0.72
   8  17  -6   -0.01    0.97
  -7 -17   6   15.66    1.88
   7  17  -6   15.36    1.91
  -6 -17   6    5.50    1.14
   6 -17  -6    8.42    1.14
   6  17  -6    4.35    1.14
   5 -17  -6    5.88    0.99
  -5  17   6    8.15    1.29
   4 -17  -6   20.05    1.99
   4 -17  -6   22.34    2.16
  -4  17   6   22.05    2.17
   3 -17  -6    0.47    0.61
  -3 -17   6    2.04    0.87
   3 -17  -6    0.36    0.76
  -3  17   6   -0.03    0.89
   3  17  -6    2.55    0.93
   2 -17  -6   62.76    5.47
  -2 -17   6   72.80    5.52
   2 -17  -6   58.70    5.19
   2  17  -6   71.89    5.49
  -2  17   6   64.02    5.48
  -1 -17   6   11.88    1.50
   1 -17  -6    9.83    1.18
   1 -17  -6    9.27    1.52
   1  17  -6   12.00    1.52
  -1  17   6    8.39    1.40
   0 -17   6   31.76    2.82
   0 -17  -6   28.08    2.56
   0 -17  -6   29.73    2.88
   0  17   6   29.96    2.90
   0  17  -6   34.60    2.87
  -1 -17  -6    5.51    0.85
  -1 -17  -6    5.73    1.06
  -1  17  -6    2.58    0.96
   1  17   6    5.50    1.22
  -2 -17  -6   19.64    2.19
  -2 -17  -6   18.00    1.76
   2 -17   6   23.68    2.12
  -2  17  -6   24.48    2.11
   2  17   6   17.25    2.17
  -3 -17  -6   34.26    2.49
   3 -17   6   29.23    2.81
  -3 -17  -6   36.01    2.96
   3 -17   6   26.62    2.80
  -3  17  -6   26.71    2.76
   3  17   6   32.51    2.94
  -4 -17  -6    1.25    0.86
   4 -17   6    0.97    0.81
   4 -17   6    0.18    0.77
  -4  17  -6    0.69    0.72
   4  17   6    1.03    0.88
   5 -17   6   27.37    2.81
   5  17   6   36.15    2.99
   6 -17   6    3.70    0.95
   6  17   6    0.71    0.92
   7 -17   6   41.52    3.55
   7  17   6   40.13    3.69
   8 -17   6    0.15    0.82
   8  17   6    1.33    1.01
   9 -17   6   27.25    2.47
   9  17   6   25.21    2.73
  10 -17   6    2.87    0.82
  10  17   6    0.41    1.11
  10  18  -6   -0.08    1.08
   9  18  -6    1.44    1.12
   8 -18  -6    2.58    0.91
   8  18  -6    4.52    1.20
  -7 -18   6    5.29    1.10
   7 -18  -6    3.73    0.95
   7  18  -6    5.40    1.21
   6 -18  -6    1.69    0.79
  -6 -18   6    3.81    1.01
   6  18  -6    4.25    1.13
   5 -18  -6    0.88    0.69
  -5 -18   6    2.26    0.99
   5  18  -6    2.39    1.04
  -4 -18   6    2.06    0.93
   4 -18  -6    1.19    0.69
   4  18  -6    2.44    1.05
  -4  18   6    1.56    0.88
   3 -18  -6    1.35    0.66
  -3 -18   6    1.34    0.85
   3 -18  -6    0.69    0.80
  -3  18   6    0.35    0.93
   3  18  -6    0.65    0.92
  -2 -18   6    8.68    1.47
   2  18  -6   10.67    1.49
   1 -18  -6    6.86    1.07
   1 -18  -6    8.22    1.24
  -1  18   6    7.98    1.31
   0 -18   6   19.43    1.86
   0 -18  -6   15.15    1.84
   0 -18  -6   12.88    1.47
   0  18   6   14.55    1.90
  -1 -18  -6   71.71    5.34
   1 -18   6   58.51    5.63
  -1 -18  -6   73.26    5.71
   1  18   6   76.34    5.76
  -1  18  -6   62.28    5.63
   2 -18   6    0.36    0.81
  -2 -18  -6    1.66    0.53
  -2 -18  -6    1.87    0.90
   2  18   6    2.16    1.11
  -2  18  -6    0.62    0.84
  -3 -18  -6    8.71    1.30
  -3 -18  -6    7.53    0.89
   3  18   6    7.47    1.34
  -4 -18  -6    9.35    1.27
   4 -18   6    4.82    1.08
  -4  18  -6    5.76    1.01
   4  18   6    6.48    1.31
  -5 -18  -6    6.17    1.18
   5 -18   6    3.75    0.99
   5  18   6    4.36    1.21
   6 -18   6    0.40    0.83
   6  18   6    1.19    0.98
   7 -18   6   -0.15    0.83
   7  18   6    0.94    0.95
   8 -18   6   -0.02    0.82
   8  18   6    1.62    1.17
   9 -18   6    5.33    1.01
   9  18   6    4.85    1.36
  10 -18   6   -0.13    0.75
   9  19  -6   15.60    2.02
   8 -19  -6   14.21    1.66
   8  19  -6   11.34    1.83
   7 -19  -6    9.32    1.46
  -7 -19   6   12.05    1.65
   7  19  -6   12.75    1.73
  -6 -19   6    7.46    1.29
   6  19  -6    8.21    1.37
  -5 -19   6    8.44    1.36
   5  19  -6    9.63    1.44
   4 -19  -6   19.12    1.81
  -4 -19   6   15.51    2.02
   4  19  -6   15.51    2.03
  -4  19   6   18.86    1.96
   3 -19  -6    4.67    1.02
   3 -19  -6    4.25    0.83
  -3 -19   6    3.41    1.02
  -3  19   6    4.08    1.09
   3  19  -6    2.21    1.05
   2 -19  -6   12.91    1.69
   2 -19  -6   12.14    1.38
  -2  19   6   12.87    1.77
   1 -19  -6   27.37    2.70
   1 -19  -6   28.26    2.42
  -1  19   6   27.42    2.73
   0 -19  -6   23.35    2.51
   0 -19   6   27.13    2.49
   0 -19  -6   24.88    2.23
   0  19   6   24.33    2.60
   0  19  -6   26.77    2.51
  -1 -19  -6   11.57    1.61
  -1 -19  -6   11.60    1.24
   1  19   6   10.50    1.77
   2 -19   6   39.64    3.30
  -2 -19  -6   34.99    3.34
  -2 -19  -6   33.47    2.95
  -2  19  -6   41.27    3.28
   2  19   6   33.75    3.37
  -3 -19  -6   16.03    1.97
  -3 -19  -6   15.96    1.42
   3  19   6   14.08    1.97
   4 -19   6   22.50    2.26
   5 -19   6    0.12    0.81
  -5 -19  -6    0.22    0.93
   5  19   6   -0.44    0.91
   6 -19   6   27.66    2.64
   7 -19   6   -0.46    0.83
   7  19   6    0.13    0.96
   8  19   6    4.83    1.33
   9 -19   6    6.47    1.06
   9  19   6    3.58    1.39
  10 -19   6    0.08    0.77
   9  20  -6    1.24    1.17
   8  20  -6    4.70    1.30
   7 -20  -6    4.10    0.97
  -7 -20   6    2.03    1.02
   7  20  -6    1.19    1.12
  -6 -20   6    8.12    1.36
   6  20  -6    8.38    1.49
   5 -20  -6   14.93    1.68
  -4 -20   6    2.70    1.00
   4 -20  -6    1.20    0.73
  -4  20   6    0.88    0.93
   4  20  -6    1.39    1.04
  -3 -20   6    1.89    0.98
   3 -20  -6    1.67    0.89
   3 -20  -6    2.04    0.73
   3  20  -6    1.69    1.05
  -3  20   6    2.31    1.04
   2 -20  -6    3.93    1.06
   2 -20  -6    4.17    0.86
  -2 -20   6    6.28    1.16
  -2  20   6    2.77    1.19
   2  20  -6    6.85    1.23
  -1 -20   6   24.68    2.57
   1  20  -6   27.66    2.63
   0 -20  -6    6.72    1.23
   0 -20  -6    7.25    0.99
   0  20   6    6.86    1.40
   1 -20   6   11.31    1.46
  -1 -20  -6    7.86    1.09
  -1 -20  -6    7.19    1.28
  -1  20  -6   10.46    1.58
   1  20   6    8.89    1.51
  -2 -20  -6    0.60    0.50
   2 -20   6    1.81    0.89
  -2 -20  -6    0.87    0.87
   2  20   6    0.15    0.97
  -2  20  -6    2.85    0.95
   3 -20   6   32.16    3.05
  -3 -20  -6   35.18    3.17
   3  20   6   32.39    3.17
  -3  20  -6   33.54    3.03
   4 -20   6    0.55    0.85
  -4 -20  -6    1.48    0.95
   4  20   6    0.79    0.97
   5 -20   6    0.72    0.89
  -5 -20  -6    4.21    1.11
   5  20   6    2.88    1.23
   6 -20   6    0.76    0.89
   6  20   6    0.83    0.98
   7 -20   6    1.01    0.89
   7  20   6    0.17    1.00
   8 -20   6    4.42    1.01
   8  20   6    0.76    1.08
   9 -20   6    6.16    1.11
  10 -20   6   -0.13    0.83
   8  21  -6   -0.21    1.12
  -7 -21   6    5.68    1.27
   7  21  -6    5.98    1.38
  -6 -21   6   10.46    1.57
   6  21  -6    8.23    1.52
  -5 -21   6   15.94    1.93
   5  21  -6   15.45    2.04
  -4 -21   6   32.78    3.04
   4 -21  -6   28.29    2.80
   4 -21  -6   32.35    3.05
   4  21  -6   35.04    3.12
   3 -21  -6    1.43    0.72
   3 -21  -6    2.06    0.97
  -3  21   6    2.70    1.09
   2 -21  -6   15.77    1.99
   2 -21  -6   15.81    1.69
  -2 -21   6   17.24    1.98
  -2  21   6   14.63    2.06
   2  21  -6   17.67    2.04
   1 -21  -6   14.30    1.86
  -1  21   6   14.35    1.99
   0 -21  -6   47.33    4.33
   0 -21  -6   50.48    4.65
   0 -21   6   64.95    4.71
   0  21   6   54.98    4.73
   1 -21   6    0.72    0.88
  -1 -21  -6    1.95    0.92
  -1 -21  -6    2.56    0.66
   1  21   6    2.17    1.20
  -1  21  -6    0.78    0.96
  -2 -21  -6   16.93    1.69
   2 -21   6   19.88    2.08
  -2 -21  -6   17.56    2.14
  -2  21  -6   20.87    2.08
   2  21   6   18.00    2.22
  -3 -21  -6    5.69    1.19
   3  21   6    4.70    1.36
   4 -21   6    1.96    0.96
  -4 -21  -6    3.68    1.09
   4  21   6    2.38    1.22
   5 -21   6   15.21    1.92
   5  21   6   19.35    2.15
   6 -21   6    1.75    0.94
  -6 -21  -6    2.76    1.10
   6  21   6    1.28    1.06
   7 -21   6    7.08    1.22
   8 -21   6    1.05    0.87
   8  21   6    0.90    1.11
   9 -21   6    1.39    0.90
  10 -21   6    1.66    0.88
   8  22  -6    1.54    1.23
   7  22  -6    2.41    1.22
   6 -22  -6    2.26    0.86
  -6 -22   6    0.44    1.03
   6  22  -6    1.50    1.16
  -5 -22   6   16.03    1.91
   5 -22  -6   15.43    1.78
   5  22  -6   14.97    2.03
  -4 -22   6    0.67    0.92
   4 -22  -6    0.08    0.70
   4 -22  -6    0.21    0.92
   4  22  -6    0.43    1.09
  -3 -22   6    5.04    1.13
   3 -22  -6    4.58    1.12
   3 -22  -6    3.37    0.88
  -3  22   6    3.21    1.16
   3  22  -6    5.76    1.30
  -2 -22   6    0.30    0.91
   2 -22  -6    1.84    0.75
   2 -22  -6    1.91    0.95
  -2  22   6    0.48    0.98
   2  22  -6    0.45    1.04
   1 -22  -6    2.14    0.73
   1 -22  -6    1.30    0.93
  -1 -22   6    0.86    0.92
   1  22  -6    0.73    1.06
  -1  22   6    1.05    1.02
   0 -22   6    4.44    1.07
   0 -22  -6    1.28    0.91
   0 -22  -6    0.58    0.64
   0  22  -6    4.93    1.15
   0  22   6    1.52    1.08
  -1 -22  -6    3.00    1.01
   1 -22   6    0.59    0.92
  -1 -22  -6    3.22    0.71
  -1  22  -6    0.56    1.01
   1  22   6    2.93    1.28
   2 -22   6    2.42    0.99
  -2 -22  -6    0.62    0.92
   2  22   6    1.70    1.26
  -2  22  -6    2.75    1.01
  -3 -22  -6    5.55    1.22
   3  22   6    5.64    1.42
  -4 -22  -6    1.07    0.97
   4 -22   6    1.57    0.94
   4  22   6    0.53    1.02
   5 -22   6    1.42    0.93
  -5 -22  -6    0.88    1.02
   5  22   6    0.64    1.01
  -6 -22  -6    0.52    1.03
   6 -22   6    0.47    0.91
   6  22   6    0.33    1.03
   7 -22   6    1.40    0.92
   7  22   6   -0.37    1.05
   8 -22   6    3.89    1.04
   9 -22   6   -1.00    0.86
   7  23  -6   11.13    1.81
  -6 -23   6    0.52    1.04
   6  23  -6    1.66    1.24
   5 -23  -6    3.86    1.00
  -5 -23   6    5.28    1.24
   5  23  -6    5.38    1.36
   4 -23  -6    2.10    0.83
   4 -23  -6    1.77    1.01
  -4 -23   6    0.15    0.95
   4  23  -6    1.60    1.16
  -3 -23   6    0.83    0.97
   3 -23  -6    4.21    0.90
   3 -23  -6    3.60    1.08
   3  23  -6    0.88    1.13
   2 -23  -6    1.34    0.97
   2 -23  -6    1.44    0.73
  -2 -23   6   -0.11    0.88
   2  23  -6   -0.78    1.05
  -2  23   6    0.45    1.00
  -1 -23   6    1.27    0.92
   1 -23  -6    3.72    1.06
   1  23  -6    0.85    1.09
  -1  23   6    1.71    1.07
   0 -23  -6   13.74    1.51
   0 -23   6   12.87    1.78
   0 -23  -6   16.05    1.92
   0  23   6   13.19    2.05
   0  23  -6   13.66    1.90
   1 -23   6    4.02    1.08
  -1 -23  -6    4.60    1.15
  -1 -23  -6    4.27    0.82
  -1  23  -6    4.73    1.18
   1  23   6    4.63    1.43
  -2 -23  -6   13.70    2.03
   2 -23   6   18.11    1.93
   2  23   6   15.86    2.16
  -3 -23  -6    0.84    0.95
   3 -23   6    0.85    0.91
   3  23   6    0.20    1.02
  -4 -23  -6    8.28    1.46
   4 -23   6   12.59    1.56
   4  23   6    7.45    1.59
   5 -23   6    0.03    0.91
  -5 -23  -6   -0.03    1.02
   5  23   6    0.43    1.06
   6 -23   6    5.74    1.11
   6  23   6    1.17    1.14
   7 -23   6    7.67    1.30
   8 -23   6    6.30    1.19
  -6 -24   6    2.15    1.13
   6  24  -6    1.97    1.29
  -5 -24   6   -0.07    1.04
   5 -24  -6    0.10    0.79
   5  24  -6   -0.29    1.20
  -4 -24   6    6.35    1.35
   4  24  -6    7.32    1.52
  -3 -24   6    4.04    1.11
   3 -24  -6    1.18    1.04
   3  24  -6    4.65    1.31
   2 -24  -6    0.40    0.97
  -2 -24   6    0.40    0.95
   2 -24  -6    1.84    0.78
   2  24  -6    0.46    1.18
  -2  24   6    0.35    1.04
  -1 -24   6    1.51    0.99
   1 -24  -6    2.80    1.05
   1 -24  -6    1.47    0.75
   1  24  -6    1.42    1.16
  -1  24   6    1.39    1.11
   0 -24   6    4.27    1.20
   0 -24  -6    8.27    1.33
   0 -24  -6    7.88    1.13
   0  24   6    6.95    1.54
   0  24  -6    4.65    1.29
  -1 -24  -6   11.51    1.86
   1 -24   6   14.19    1.74
  -1  24  -6   13.74    1.85
   1  24   6   10.27    1.85
   2 -24   6    1.47    0.96
  -2 -24  -6    1.74    1.02
   2  24   6    0.30    1.09
   3 -24   6    5.75    1.27
  -3 -24  -6    9.73    1.46
   3  24   6    9.42    1.65
   4 -24   6    1.45    0.96
  -4 -24  -6    3.63    1.19
   4  24   6    3.40    1.39
   5 -24   6    1.77    0.99
  -5 -24  -6    3.77    1.23
   5  24   6    3.92    1.44
   6 -24   6    0.73    0.96
   6  24   6   -0.58    1.09
  -6 -25   6   15.74    2.03
   6  25  -6   15.03    2.16
  -5 -25   6    6.36    1.38
   5  25  -6    6.49    1.50
  -4 -25   6   15.97    2.14
   4 -25  -6   20.34    2.27
   4 -25  -6   17.81    1.96
   4  25  -6   16.26    2.24
   3 -25  -6    3.15    0.93
  -3 -25   6    3.71    1.19
   3 -25  -6    3.11    1.16
   3  25  -6    5.97    1.41
   2 -25  -6   22.63    2.37
  -2 -25   6   18.00    2.20
   2 -25  -6   19.56    2.03
   2  25  -6   19.94    2.35
   1 -25  -6   -0.63    0.92
  -1 -25   6    0.16    0.94
   1 -25  -6   -0.09    0.68
  -1  25   6    0.15    1.08
   1  25  -6    0.67    1.15
   0 -25   6    8.75    1.51
   0 -25  -6   13.95    1.85
   0  25   6   12.34    1.98
   0  25  -6   10.16    1.65
  -1 -25  -6    0.38    0.97
   1 -25   6    0.72    0.93
   1  25   6    0.85    1.15
   2 -25   6    0.15    0.89
  -2 -25  -6    0.19    1.00
   2  25   6   -0.36    1.11
   3 -25   6    3.03    1.09
  -3 -25  -6    5.39    1.30
   3  25   6    5.49    1.52
   4 -25   6   -0.59    0.88
  -4 -25  -6    0.33    1.04
   4  25   6   -0.01    1.13
  -5 -25  -6    9.33    1.60
   5  25   6    7.20    1.70
  -5 -26   6    2.36    1.14
   5  26  -6    2.08    1.37
   4 -26  -6   -1.15    1.02
  -4 -26   6    1.97    1.13
   4  26  -6    0.81    1.28
   3 -26  -6    0.63    1.07
  -3 -26   6    0.02    1.04
   3 -26  -6    0.44    0.79
   3  26  -6   -0.25    1.25
   2 -26  -6    4.41    1.26
   2 -26  -6    4.51    0.99
  -2 -26   6    7.42    1.38
   2  26  -6    6.85    1.50
   1 -26  -6   -0.29    0.68
   1 -26  -6   -0.35    0.98
  -1 -26   6   -0.24    0.95
   1  26  -6   -0.27    1.17
   0 -26   6   -0.67    0.92
   0 -26  -6   -0.22    0.99
   0  26  -6    0.39    1.16
   0  26   6   -0.21    1.09
   1 -26   6    0.40    0.96
  -1 -26  -6    0.49    1.01
   1  26   6    0.31    1.17
   2 -26   6    7.71    1.33
  -2 -26  -6    5.18    1.35
   2  26   6    5.83    1.65
   3 -26   6    0.45    0.96
  -3 -26  -6    0.99    1.12
   3  26   6    0.41    1.19
  -4 -26  -6    0.30    1.11
   4  26   6    0.64    1.21
  -5 -26  -6    0.28    1.12
  -5 -27   6    1.51    1.17
  -4 -27   6    1.16    1.11
   4  27  -6    1.02    1.32
  -3 -27   6    0.00    1.03
   3  27  -6    0.18    1.26
   2 -27  -6    1.32    0.81
  -2 -27   6    2.15    1.12
   2 -27  -6    2.07    1.17
   2  27  -6    0.59    1.30
  -1 -27   6    0.31    1.05
   1 -27  -6    0.55    1.06
   1  27  -6    0.67    1.24
   0 -27  -6    2.78    1.16
   0 -27   6    0.90    1.08
   0  27   6    0.61    1.20
  -1 -27  -6    1.26    1.11
   1 -27   6    1.54    1.10
   1  27   6    1.20    1.31
  -2 -27  -6    5.99    1.36
   2  27   6    5.46    1.64
  -3 -27  -6    0.19    1.09
   3  27   6    0.74    1.23
  -4 -27  -6    8.54    1.60
  -4 -28   6    1.46    1.16
  -3 -28   6   -0.82    0.99
   3  28  -6   -0.74    1.32
   2  28  -6   -0.37    1.26
  -1 -28  -6    0.11    1.13
   1  28   6    0.03    1.26
  -2 -28  -6    3.96    1.31
   2  28   6    3.19    1.61
  -3 -28  -6    0.02    1.11
   3  28   6    1.16    1.28
  -4 -28  -6   -0.56    1.13
   2  29   6   -0.19    1.25
  13   0  -7   -0.16    0.77
  12   0  -7   -0.32    0.79
  12   0  -7   -0.89    0.72
  11   0  -7    0.67    0.82
  11   0  -7    0.90    0.75
  10   0  -7    0.46    0.72
  10   0  -7    0.81    0.74
   9   0  -7    2.05    0.75
   9   0  -7    1.78    0.77
   8   0  -7    0.02    0.68
   8   0  -7    0.59    0.63
  -8   0   7    0.39    0.59
   8   0  -7    0.52    0.62
   7   0  -7    0.11    0.58
   7   0  -7    0.02    0.64
  -7   0   7    0.03    0.60
   7   0  -7    0.22    0.61
  -6   0   7    4.32    0.82
  -6   0   7    3.31    0.77
   6   0  -7    4.05    0.77
   6   0  -7    4.11    0.73
   6   0  -7    4.30    0.79
  -5   0   7   -0.66    0.53
  -5   0   7   -0.26    0.61
   5   0  -7   -0.35    0.54
   5   0  -7    0.03    0.50
   5   0  -7   -0.45    0.50
   4   0  -7   10.36    1.26
   4   0  -7   10.42    1.15
  -4   0   7   10.72    1.28
   4   0  -7   10.23    1.26
  -4   0   7   10.76    1.24
   3   0  -7    4.66    0.69
   3   0  -7    3.93    0.69
  -3   0   7    3.92    0.77
  -3   0   7    3.98    0.70
   3   0  -7    4.54    0.74
   2   0  -7    4.83    0.73
   2   0  -7    5.49    0.79
   2   0  -7    4.67    0.74
  -2   0   7    4.80    0.70
  -2   0   7    4.49    0.82
  -1   0   7    3.13    0.60
  -1   0   7    2.20    0.70
   1   0  -7    2.87    0.60
   1   0  -7    3.81    0.63
   1   0  -7    3.44    0.57
   0   0   7   10.14    1.09
   0   0   7   10.83    1.27
   0   0  -7   10.00    1.04
   0   0  -7   10.53    1.25
   1   0   7    7.85    0.93
   1   0   7    7.26    1.05
  -1   0  -7    8.27    0.87
  -1   0  -7    8.50    1.11
  -2   0  -7   -0.19    0.42
   2   0   7   -0.13    0.41
   2   0   7   -0.77    0.57
  -3   0  -7    0.22    0.45
   3   0   7    0.48    0.41
   3   0   7   -0.43    0.60
  -3   0  -7    0.18    0.45
  -4   0  -7   -0.54    0.45
  -4   0  -7   -0.48    0.45
   4   0   7   -1.14    0.61
   4   0   7   -0.10    0.41
   5   0   7    0.21    0.43
  -5   0  -7    0.52    0.50
   5   0   7    0.40    0.64
   6   0   7    0.48    0.44
  -6   0  -7    0.14    0.47
   6   0   7   -0.65    0.66
   7   0   7   -0.26    0.69
  -7   0  -7    0.29    0.46
   7   0   7   -1.11    0.45
   8   0   7   -0.95    0.64
   8   0   7    0.54    0.74
   9   0   7    0.02    0.48
   9   0   7   -0.22    0.67
  10   0   7    0.06    0.69
  11   0   7   -0.57    0.71
  12   0   7   -0.57    0.68
  14   1  -7    4.55    0.96
  13  -1  -7    0.00    0.76
  13   1  -7   -0.01    0.81
  12  -1  -7    0.47    0.83
  12  -1  -7   -0.14    0.74
  12   1  -7    0.39    0.83
  12   1  -7   -0.33    0.78
  11  -1  -7    9.05    1.16
  11  -1  -7    7.65    1.15
  11   1  -7    5.87    1.02
  11   1  -7    5.30    1.08
  10  -1  -7    2.45    0.84
  10  -1  -7    2.20    0.78
  10   1  -7    4.48    0.86
  10   1  -7    4.03    0.94
   9  -1  -7   24.14    2.18
   9  -1  -7   24.30    2.11
   9   1  -7   20.62    2.13
   9   1  -7   21.23    2.10
   8  -1  -7    0.48    0.61
   8  -1  -7    0.33    0.65
   8  -1  -7   -0.24    0.64
  -8  -1   7    0.08    0.60
   8   1  -7   -0.34    0.68
  -8   1   7   -0.15    0.56
   8   1  -7    0.40    0.66
   8   1  -7    0.33    0.61
  -7  -1   7    2.79    0.73
  -7   1   7    4.29    0.76
   7   1  -7    3.55    0.73
   7   1  -7    2.18    0.76
   7   1  -7    3.05    0.76
   6  -1  -7    4.52    0.72
  -6  -1   7    2.82    0.75
   6  -1  -7    3.58    0.74
  -6  -1   7    3.06    0.77
   6  -1  -7    3.78    0.77
   6   1  -7    3.06    0.70
  -6   1   7    3.36    0.77
   6   1  -7    3.13    0.75
  -6   1   7    3.28    0.73
   6   1  -7    3.99    0.77
  -5  -1   7   26.29    2.39
   5  -1  -7   26.52    2.39
   5  -1  -7   28.70    2.40
   5  -1  -7   24.17    2.31
  -5  -1   7   28.69    2.37
   5   1  -7   29.86    2.40
   5   1  -7   28.49    2.33
  -5   1   7   25.03    2.37
   5   1  -7   26.92    2.38
  -5   1   7   24.73    2.35
  -4  -1   7   12.68    1.42
  -4  -1   7   11.53    1.33
   4   1  -7   12.92    1.39
   4   1  -7   12.75    1.28
   4   1  -7   12.17    1.33
  -3  -1   7   19.94    1.76
  -3  -1   7   18.35    1.81
   3   1  -7   18.93    1.80
   3   1  -7   19.28    1.80
   3   1  -7   18.92    1.71
  -2  -1   7   27.04    2.23
   2  -1  -7   25.82    2.18
   2  -1  -7   25.93    2.29
  -2  -1   7   25.38    2.33
  -2   1   7   26.16    2.21
   2   1  -7   25.12    2.18
   2   1  -7   27.17    2.32
   2   1  -7   25.22    2.31
  -2   1   7   26.61    2.32
   1  -1  -7   33.99    2.59
  -1  -1   7   26.76    2.58
   1  -1  -7   29.62    2.40
  -1  -1   7   28.62    2.44
   1   1  -7   27.71    2.42
  -1   1   7   32.07    2.57
   1   1  -7   27.56    2.54
   1   1  -7   27.80    2.53
  -1   1   7   32.23    2.45
   0  -1   7    7.62    1.07
   0  -1  -7    5.85    1.00
   0  -1   7    7.42    0.91
   0  -1  -7    5.32    0.83
   0   1  -7    8.24    1.08
   0   1   7    5.63    0.90
   0   1   7    5.75    0.99
   0   1  -7    7.66    0.84
   0   1  -7    7.83    1.00
   1  -1   7    8.78    1.22
  -1  -1  -7   11.45    1.20
  -1  -1  -7   11.53    1.01
   1  -1   7    9.21    1.08
  -1   1  -7    9.36    1.18
   1   1   7   12.01    1.25
  -1   1  -7    9.68    1.03
   1   1   7   12.77    1.10
  -1   1  -7    8.77    1.24
   2  -1   7   50.69    4.08
  -2  -1  -7   40.01    4.05
   2  -1   7   56.35    3.90
  -2   1  -7   54.03    4.07
  -2   1  -7   55.54    4.09
   2   1   7   42.87    3.86
   3  -1   7    4.15    0.79
   3  -1   7    6.10    0.79
  -3   1  -7    5.43    0.73
  -3   1  -7    5.04    0.76
   3   1   7    7.24    1.00
   4  -1   7   96.58    7.93
   4  -1   7  106.55    7.61
   4   1   7   88.83    7.58
  -4   1  -7  107.21    7.93
  -4   1  -7   99.86    7.91
   5  -1   7   11.24    1.09
   5  -1   7    8.99    1.26
   5   1   7   11.48    1.31
   5   1   7   11.02    1.05
  -5   1  -7    9.89    1.15
  -6  -1  -7   11.64    1.28
   6   1   7   12.63    1.44
   6   1   7   12.35    1.14
  -7  -1  -7   10.82    1.17
   7  -1   7    9.61    1.31
   7   1   7   10.54    1.05
   7   1   7   10.50    1.35
   7   1   7   10.24    1.36
   8  -1   7   24.56    2.33
   8  -1   7   23.84    2.31
   8   1   7   28.79    2.41
   8   1   7   26.40    2.12
   8   1   7   26.44    2.36
   9  -1   7    0.43    0.68
   9   1   7    1.05    0.47
   9   1   7    1.63    0.76
  10  -1   7   16.23    1.66
  10  -1   7   18.84    1.82
  10   1   7   20.32    1.88
  11  -1   7    6.72    0.97
  12   1   7    3.55    0.84
  14   2  -7    1.03    0.84
  13  -2  -7    0.27    0.75
  13   2  -7    0.51    0.86
  12  -2  -7    0.50    0.86
  12  -2  -7    2.66    0.79
  12   2  -7    0.91    0.84
  12   2  -7    0.46    0.83
  11  -2  -7    0.16    0.79
  11  -2  -7    1.39    0.74
  11   2  -7    1.04    0.80
  11   2  -7    1.25    0.79
  10  -2  -7    2.40    0.76
  10  -2  -7    2.01    0.85
  10   2  -7    3.40    0.91
  10   2  -7    2.91    0.84
   9  -2  -7    1.30    0.74
   9  -2  -7    1.46    0.70
   9   2  -7    1.96    0.78
   9   2  -7    1.22    0.75
   8  -2  -7    8.75    1.27
   8  -2  -7   11.07    1.33
   8  -2  -7   10.80    1.26
  -8   2   7    8.97    1.17
   7  -2  -7   14.88    1.60
   7  -2  -7   18.06    1.68
   7  -2  -7   15.35    1.59
  -7   2   7   13.93    1.55
  -6  -2   7   65.18    4.83
  -6  -2   7   62.24    4.90
   6  -2  -7   59.10    4.89
   6  -2  -7   54.35    4.75
   6  -2  -7   60.97    4.89
  -6   2   7   56.74    4.79
   6   2  -7   62.39    4.89
  -6   2   7   55.44    4.86
   6   2  -7   61.15    4.78
   6   2  -7   62.06    4.90
  -5  -2   7    6.42    0.94
   5  -2  -7    5.47    0.95
   5  -2  -7    7.42    1.10
   5  -2  -7    6.94    0.99
  -5  -2   7    5.43    0.86
  -5   2   7    6.44    0.94
  -5   2   7    6.43    1.01
   5   2  -7    6.34    1.02
   5   2  -7    6.72    0.86
   5   2  -7    7.54    0.98
   4  -2  -7    7.43    1.18
  -4  -2   7   11.25    1.18
   4  -2  -7    7.55    1.10
  -4  -2   7   10.35    1.22
  -4   2   7    8.57    1.23
   4   2  -7    9.57    1.17
  -4   2   7    7.91    1.22
   4   2  -7   10.38    1.20
   4   2  -7   11.74    1.12
  -3  -2   7   12.18    1.29
  -3  -2   7   10.73    1.32
   3   2  -7   11.26    1.18
   3   2  -7   11.33    1.28
   3   2  -7   11.13    1.27
  -2  -2   7   28.98    2.32
   2  -2  -7   26.37    2.41
   2  -2  -7   23.87    2.26
  -2  -2   7   28.66    2.43
   2   2  -7   29.94    2.29
   2   2  -7   31.09    2.42
   2   2  -7   28.12    2.39
  -2   2   7   23.72    2.30
  -2   2   7   25.48    2.41
  -1  -2   7    3.22    0.72
  -1  -2   7    3.71    0.62
   1  -2  -7    2.80    0.61
   1  -2  -7    3.03    0.55
   1   2  -7    3.63    0.66
   1   2  -7    4.55    0.66
   1   2  -7    3.54    0.57
  -1   2   7    2.17    0.69
  -1   2   7    2.42    0.58
   0  -2  -7   -0.16    0.36
   0  -2   7    0.02    0.59
   0  -2  -7    0.09    0.44
   0  -2   7    0.21    0.46
   0   2  -7    0.14    0.38
   0   2   7    0.15    0.63
   0   2   7    0.16    0.43
   0   2  -7    0.04    0.50
   0   2  -7    0.62    0.46
  -1  -2  -7   28.61    1.93
   1  -2   7   22.07    1.96
   1  -2   7   20.81    2.10
  -1   2  -7   20.15    2.06
  -1   2  -7   21.58    2.07
   1   2   7   29.09    2.16
  -1   2  -7   20.95    1.93
   2  -2   7   10.87    1.38
   2  -2   7   12.39    1.24
  -2  -2  -7   13.57    1.15
  -2  -2  -7   14.11    1.41
   2   2   7   15.04    1.20
  -2   2  -7   10.94    1.31
   2   2   7   12.44    1.40
  -2   2  -7   11.22    1.36
   3  -2   7    9.31    0.98
   3  -2   7    7.90    1.15
  -3   2  -7    7.87    1.12
  -3   2  -7    7.61    1.02
   4  -2   7    0.74    0.64
   4  -2   7    2.26    0.51
   4   2   7    0.75    0.41
   4   2   7    0.32    0.65
  -4   2  -7    1.68    0.53
  -4   2  -7    1.20    0.49
   5  -2   7    4.41    0.64
   5  -2   7    3.77    0.76
  -5   2  -7    3.18    0.62
   6  -2   7    3.58    0.65
   6  -2   7    3.83    0.78
  -6   2  -7    3.60    0.62
   6   2   7    5.91    0.90
  -7  -2  -7   32.94    2.92
   7   2   7   36.91    3.06
   7   2   7   35.72    3.05
   8  -2   7    6.77    0.99
   8   2   7    7.23    1.06
   8   2   7    7.80    1.24
   9  -2   7   -0.24    0.66
   9   2   7    1.37    0.78
  10  -2   7    2.51    0.77
  10  -2   7    3.11    0.70
  10   2   7    3.39    0.86
  11  -2   7    1.90    0.74
  11   2   7    1.72    0.82
  12   2   7   -0.76    0.75
  13   2   7    0.33    0.75
  14   3  -7    6.75    1.12
  13  -3  -7    2.91    0.81
  13   3  -7    1.98    0.92
  12  -3  -7    5.89    0.98
  12  -3  -7    5.48    1.17
  12   3  -7    8.22    1.26
  12   3  -7    7.16    1.22
  11  -3  -7    1.87    0.74
  11  -3  -7    0.51    0.80
  11   3  -7    2.84    0.91
  11   3  -7    2.83    0.88
  10  -3  -7   11.20    1.37
  10  -3  -7    9.97    1.44
  10   3  -7   12.11    1.49
  10   3  -7   12.70    1.44
   9  -3  -7   20.68    2.17
   9  -3  -7   23.86    2.17
   9   3  -7   24.68    2.22
   9   3  -7   24.93    2.22
  -8  -3   7   33.83    2.84
   8  -3  -7   34.30    2.87
   8  -3  -7   30.02    2.81
   8  -3  -7   28.59    2.80
  -8   3   7   28.39    2.75
   8   3  -7   33.79    2.87
   8   3  -7   38.41    2.91
   8   3  -7   35.09    2.84
  -7  -3   7    9.50    1.33
   7   3  -7   10.91    1.33
   7   3  -7   11.05    1.37
   7   3  -7   11.50    1.41
   6  -3  -7    1.52    0.63
  -6  -3   7    1.05    0.65
   6  -3  -7    1.30    0.59
   6  -3  -7    1.85    0.62
  -6  -3   7    0.40    0.66
   6   3  -7    1.23    0.67
   6   3  -7    0.84    0.63
  -6   3   7    1.81    0.64
   6   3  -7    0.69    0.58
  -5  -3   7   16.74    1.83
  -5  -3   7   15.20    1.73
   5  -3  -7   20.69    1.74
  -5   3   7   22.56    1.80
   5   3  -7   15.38    1.77
   5   3  -7   16.78    1.79
  -5   3   7   22.81    1.85
   5   3  -7   16.95    1.71
  -4  -3   7    8.10    1.06
  -4  -3   7    7.30    1.19
   4   3  -7    8.84    1.02
   4   3  -7    7.41    1.15
   4   3  -7    7.68    1.09
   3  -3  -7  148.48   10.64
  -3  -3   7  126.62   10.28
   3  -3  -7  143.04   10.30
  -3  -3   7  124.24   10.63
  -3   3   7  147.39   10.65
  -3   3   7  145.28   10.30
   3   3  -7  124.18   10.28
   3   3  -7  121.38   10.63
   3   3  -7  130.62   10.63
  -2  -3   7  130.33   10.31
   2  -3  -7  152.23   10.68
   2  -3  -7  140.96   10.30
  -2  -3   7  121.75   10.66
   2   3  -7  123.02   10.66
   2   3  -7  127.71   10.30
   2   3  -7  125.98   10.65
  -2   3   7  151.13   10.33
  -2   3   7  142.53   10.67
  -1  -3   7   11.65    1.23
   1  -3  -7    7.55    1.20
   1  -3  -7    7.59    1.01
  -1  -3   7   12.62    1.15
   1   3  -7   11.76    1.08
   1   3  -7   11.22    1.23
   1   3  -7   10.65    1.18
  -1   3   7    8.66    1.12
  -1   3   7    8.67    1.27
   0  -3   7   40.01    3.74
   0  -3   7   41.27    3.57
   0  -3  -7   49.67    3.55
   0  -3  -7   51.85    3.76
   0   3   7   51.82    3.57
   0   3  -7   38.75    3.55
   0   3  -7   39.75    3.71
   0   3  -7   43.05    3.73
   0   3   7   51.61    3.77
  -1  -3  -7    5.10    0.69
  -1  -3  -7    5.05    0.72
   1   3   7    4.66    0.81
   1   3   7    4.79    0.77
   2  -3   7   96.13    8.07
  -2  -3  -7   99.70    7.72
   2  -3   7   99.25    7.77
  -2  -3  -7  110.02    8.09
   2   3   7  108.71    7.74
  -2   3  -7   95.19    8.05
   2   3   7  100.54    8.09
  -2   3  -7  103.12    8.06
   3  -3   7  101.68    7.98
  -3  -3  -7   92.44    7.99
   3  -3   7  107.56    7.69
  -3   3  -7  109.96    7.98
   3   3   7   89.38    7.62
  -3   3  -7  102.01    7.97
   4  -3   7  171.75   14.81
   4  -3   7  187.11   14.30
   4   3   7  196.06   14.85
   4   3   7  216.04   14.24
  -4   3  -7  187.13   14.81
  -4   3  -7  173.89   14.80
   5  -3   7    6.13    0.78
   5  -3   7    4.58    0.83
  -5   3  -7    4.97    0.74
   5   3   7    8.53    1.14
   6  -3   7   52.56    3.98
   6   3   7   41.99    4.00
  -6   3  -7   50.67    3.91
   6   3   7   46.95    4.01
   7  -3   7    0.72    0.65
   7   3   7    0.11    0.76
   7   3   7    0.57    0.77
  -7   3  -7    0.07    0.18
   8  -3   7   30.26    2.51
   8   3   7   28.58    2.59
   8   3   7   26.20    2.56
   9  -3   7   17.24    1.63
   9   3   7   13.41    1.68
  10  -3   7   16.21    1.61
  10  -3   7   15.28    1.54
  10   3   7   15.05    1.71
  11  -3   7   11.87    1.34
  11   3   7   11.51    1.47
  12   3   7    2.98    0.88
  13   3   7    1.70    0.80
  14   4  -7    3.01    0.98
  13  -4  -7    0.60    0.72
  13   4  -7    0.20    0.86
  12  -4  -7    8.63    1.21
  12  -4  -7    7.04    1.28
  12   4  -7    9.74    1.43
  12   4  -7   11.32    1.42
  11  -4  -7    0.76    0.79
  11  -4  -7    1.78    0.74
  11   4  -7    0.93    0.86
  11   4  -7    2.26    0.88
  10  -4  -7    5.55    0.88
  10  -4  -7    4.43    0.98
   9  -4  -7    2.39    0.82
   9  -4  -7    2.99    0.74
   8  -4  -7    3.48    0.87
   8  -4  -7    3.86    0.75
  -8  -4   7    5.94    0.86
   8  -4  -7    3.79    0.82
  -8   4   7    2.44    0.69
   8   4  -7    6.50    0.94
  -7  -4   7   18.50    1.84
   7   4  -7   19.58    1.92
   7   4  -7   18.96    1.87
   7   4  -7   18.05    1.83
  -6  -4   7   24.76    2.37
   6   4  -7   25.37    2.37
   6   4  -7   22.99    2.26
  -6   4   7   32.06    2.34
   6   4  -7   24.67    2.35
  -5  -4   7   43.14    3.58
   5  -4  -7   43.32    3.57
  -5  -4   7   42.88    3.49
   5  -4  -7   40.78    3.47
  -5   4   7   40.82    3.54
   5   4  -7   44.10    3.58
   5   4  -7   43.67    3.47
  -5   4   7   40.22    3.50
   5   4  -7   43.55    3.59
   4  -4  -7    3.22    0.70
  -4  -4   7    5.50    0.79
  -4  -4   7    5.44    0.87
   4   4  -7    6.10    0.80
   4   4  -7    5.21    0.84
  -4   4   7    3.30    0.78
   4   4  -7    6.41    0.84
   3  -4  -7    0.77    0.52
   3  -4  -7    0.66    0.51
  -3  -4   7    1.79    0.71
  -3  -4   7    2.27    0.57
   3   4  -7    2.60    0.65
  -3   4   7    0.32    0.62
   3   4  -7    1.51    0.63
  -3   4   7    0.73    0.60
   3   4  -7    3.21    0.59
  -2  -4   7   30.35    2.70
  -2  -4   7   32.51    2.58
   2   4  -7   32.09    2.69
   2   4  -7   30.33    2.64
   2   4  -7   28.56    2.52
  -1  -4   7   12.86    1.41
  -1  -4   7   12.08    1.27
   1   4  -7   12.18    1.31
   1   4  -7   12.46    1.21
   1   4  -7   11.87    1.32
   0  -4   7    9.38    1.05
   0  -4   7    9.31    1.20
   0   4  -7    9.43    1.02
   0   4  -7    9.87    1.14
   0   4  -7    8.83    1.12
  -1  -4  -7   13.10    1.23
  -1  -4  -7   14.18    1.50
   1   4   7   13.02    1.50
   1   4   7   15.18    1.31
  -2  -4  -7   10.17    1.29
  -2  -4  -7    9.78    0.91
   2   4   7    9.54    0.99
   2   4   7    9.30    1.26
   3  -4   7    8.30    0.91
  -3  -4  -7    5.00    0.76
   3   4   7    3.72    0.85
   3   4   7    5.40    0.70
  -3   4  -7    8.68    1.02
   4  -4   7   16.41    1.38
   4  -4   7   12.94    1.52
   4   4   7   12.53    1.56
  -4   4  -7   13.06    1.40
   4   4   7   13.42    1.66
   5  -4   7    1.14    0.67
   5   4   7    2.99    0.73
  -5   4  -7    0.98    0.52
   5   4   7    2.09    0.76
   6  -4   7   -0.17    0.65
  -6   4  -7    0.57    0.48
   6   4   7    0.56    0.76
   6   4   7    0.71    0.76
   7  -4   7    0.88    0.67
   7   4   7    0.51    0.73
  -7   4  -7    0.04    0.30
   7   4   7   -0.03    0.75
   8  -4   7    4.31    0.77
   8   4   7    1.88    0.84
   8   4   7    1.81    0.87
   9  -4   7    1.98    0.71
   9   4   7    3.12    0.89
  10  -4   7    0.68    0.66
  10   4   7    0.57    0.79
  11   4   7   -0.19    0.82
  12   4   7    0.25    0.81
  13   4   7    0.37    0.83
  14   5  -7    4.61    1.11
  13  -5  -7    3.93    0.84
  13   5  -7    3.90    1.01
  12  -5  -7    2.24    0.93
  12  -5  -7    3.21    0.79
  12   5  -7    2.16    0.95
  12   5  -7    1.53    0.93
  11  -5  -7   27.59    2.36
  11   5  -7   22.50    2.28
  11   5  -7   20.72    2.24
  10  -5  -7   -0.48    0.74
  10  -5  -7    0.57    0.68
  10   5  -7   -0.18    0.71
  10   5  -7    0.15    0.81
   9  -5  -7   31.21    2.65
   9  -5  -7   31.86    2.57
   9   5  -7   26.18    2.56
   9   5  -7   26.55    2.63
   8  -5  -7    1.76    0.75
  -8  -5   7    2.84    0.74
   8  -5  -7    2.40    0.73
   8  -5  -7    2.78    0.65
   8   5  -7    2.90    0.77
   8   5  -7    2.97    0.77
  -8   5   7    1.41    0.62
   8   5  -7    2.94    0.83
   7  -5  -7  160.78   11.06
  -7  -5   7  127.36   11.05
   7  -5  -7  149.88   10.78
  -7   5   7  144.30   11.01
   7   5  -7  127.78   10.72
   7   5  -7  128.88   11.06
   7   5  -7  138.28   11.07
  -6  -5   7    7.28    1.20
   6   5  -7    7.76    1.20
   6   5  -7    8.01    1.26
   6   5  -7    7.79    1.12
   5  -5  -7   35.49    3.55
  -5  -5   7   46.91    3.52
  -5  -5   7   46.83    3.63
   5   5  -7   45.38    3.61
   5   5  -7   45.94    3.50
  -5   5   7   33.98    3.49
   5   5  -7   45.13    3.62
  -4  -5   7    5.79    0.97
  -4  -5   7    6.98    1.00
   4   5  -7    7.49    1.10
   4   5  -7    6.37    0.90
   4   5  -7    7.36    0.99
  -3  -5   7  102.45    8.07
  -3  -5   7   99.99    7.79
   3  -5  -7  100.75    8.04
   3  -5  -7  105.90    7.81
   3   5  -7   97.58    7.78
  -3   5   7  103.47    7.81
  -3   5   7   97.28    8.04
   3   5  -7   99.62    8.07
   3   5  -7  103.29    8.06
   2  -5  -7    8.53    1.03
  -2  -5   7    9.31    1.21
   2  -5  -7    7.99    1.22
  -2  -5   7   10.84    1.15
   2   5  -7    9.40    1.19
   2   5  -7    9.84    1.25
  -2   5   7    8.02    1.10
   2   5  -7    9.95    1.04
  -2   5   7    7.92    1.22
  -1  -5   7    9.09    1.06
  -1  -5   7    8.34    1.16
   1   5  -7    8.48    1.00
   1   5  -7    7.37    1.09
   1   5  -7    8.69    1.14
   0  -5   7   32.00    2.98
   0  -5  -7   43.16    2.95
   0   5   7   41.37    3.15
   0   5  -7   31.39    3.10
  -1  -5  -7    1.32    0.39
   1  -5   7    2.56    0.54
  -1  -5  -7    1.64    0.56
   1  -5   7    1.48    0.64
   1   5   7    1.06    0.67
  -1   5  -7    1.72    0.61
   1   5   7    0.92    0.47
  -1   5  -7    1.29    0.52
  -2  -5  -7   52.04    4.34
   2  -5   7   54.77    4.60
   2  -5   7   61.19    4.44
  -2  -5  -7   56.33    4.63
   2   5   7   54.96    4.36
   2   5   7   52.01    4.63
  -2   5  -7   61.44    4.61
   2   5   7   58.21    4.69
  -2   5  -7   59.56    4.60
   3  -5   7    3.83    0.78
   3  -5   7    4.29    0.68
  -3   5  -7    4.30    0.70
  -3   5  -7    4.22    0.67
   3   5   7    4.73    0.84
   3   5   7    5.16    0.87
   4  -5   7  104.42    8.37
   4  -5   7  114.74    8.09
  -4   5  -7  107.09    8.35
   4   5   7  104.32    8.41
   4   5   7   95.85    8.39
   5  -5   7    1.32    0.65
   5   5   7    0.65    0.74
  -5   5  -7    1.66    0.53
   5   5   7    0.60    0.72
   6  -5   7   54.03    4.36
  -6   5  -7   51.83    4.29
   6   5   7   49.64    4.41
   6   5   7   57.62    4.46
   7  -5   7    0.80    0.67
  -7   5  -7    0.56    0.39
   7   5   7    0.52    0.79
   7   5   7   -0.84    0.72
   8  -5   7   31.11    2.79
   8   5   7   32.97    2.92
   8   5   7   33.68    2.90
   9  -5   7   -0.18    0.65
   9   5   7    1.60    0.84
  10  -5   7   18.00    1.81
  10   5   7   18.78    1.95
  11   5   7    3.37    0.96
  12   5   7    5.79    1.08
  13   5   7    6.31    1.08
  14   6  -7    0.23    0.97
  13  -6  -7    2.46    0.77
  13   6  -7    1.78    0.93
  12  -6  -7    3.81    0.83
  12   6  -7    1.70    0.95
  12   6  -7    1.78    0.96
  11  -6  -7   -0.36    0.80
  11  -6  -7    0.91    0.70
  11   6  -7    1.17    0.86
  11   6  -7    0.71    0.88
  10  -6  -7    2.91    0.94
  10  -6  -7    3.88    0.79
   9  -6  -7    0.29    0.68
   9  -6  -7    0.57    0.70
   9   6  -7   -0.44    0.75
   9   6  -7    0.47    0.71
  -8  -6   7   27.22    2.58
   8   6  -7   28.54    2.63
   8   6  -7   31.45    2.70
   8   6  -7   29.54    2.58
  -7  -6   7    0.44    0.72
   7  -6  -7    1.21    0.68
   7  -6  -7    0.34    0.60
   7   6  -7    1.24    0.69
   7   6  -7    1.09    0.75
   7   6  -7    1.03    0.72
  -7   6   7   -0.03    0.60
  -6  -6   7   56.34    4.56
   6   6  -7   57.72    4.59
   6   6  -7   54.24    4.55
   6   6  -7   51.47    4.40
   5  -6  -7    8.95    1.20
   5  -6  -7    8.28    1.09
  -5  -6   7    7.76    1.19
  -5  -6   7    7.58    1.25
  -5   6   7    8.15    1.19
   5   6  -7    7.69    1.19
   5   6  -7    7.77    1.09
   5   6  -7    8.40    1.06
  -4  -6   7  102.05    7.24
   4  -6  -7   75.76    7.41
  -4  -6   7  104.94    7.49
  -4   6   7   75.76    7.20
   4   6  -7  101.69    7.47
   4   6  -7   99.70    7.22
   3  -6  -7    3.25    0.63
   3  -6  -7    2.41    0.62
  -3  -6   7    2.62    0.79
  -3  -6   7    1.86    0.61
  -3   6   7    2.23    0.72
  -3   6   7    2.51    0.69
   3   6  -7    2.01    0.67
   3   6  -7    2.40    0.70
   3   6  -7    2.13    0.57
  -2  -6   7   73.22    5.51
  -2  -6   7   75.99    5.30
   2  -6  -7   62.94    5.45
   2  -6  -7   62.97    5.26
  -2  -6   7   75.03    5.49
  -2   6   7   60.61    5.26
  -2   6   7   57.90    5.48
   2   6  -7   73.93    5.49
  -2   6   7   58.46    5.45
   2   6  -7   67.30    5.26
   2   6  -7   75.29    5.49
  -1  -6   7    1.54    0.64
   1  -6  -7    2.47    0.51
  -1  -6   7    1.54    0.53
   1  -6  -7    1.85    0.57
  -1  -6   7    2.08    0.69
   1   6  -7    1.60    0.60
  -1   6   7    1.67    0.57
   1   6  -7    2.01    0.66
  -1   6   7    2.03    0.69
   1   6  -7    1.87    0.53
  -1   6   7    1.86    0.72
   0  -6   7    9.37    1.28
   0  -6   7    9.13    1.24
   0  -6   7   10.64    1.17
   0  -6  -7   10.81    1.05
   0  -6  -7   10.81    1.36
   0   6   7   11.17    1.45
   0   6  -7    8.98    1.23
   0   6   7   10.81    1.11
   0   6   7   11.09    1.33
   0   6  -7   10.20    1.24
  -1  -6  -7   40.85    3.54
   1  -6   7   49.46    3.79
   1  -6   7   50.66    3.64
  -1  -6  -7   43.88    3.78
   1  -6   7   48.83    3.79
  -1   6  -7   48.95    3.77
   1   6   7   41.05    3.84
   1   6   7   38.33    3.77
  -1   6  -7   52.01    3.79
   1   6   7   42.36    3.56
   2  -6   7    1.32    0.65
   2  -6   7    2.05    0.55
  -2  -6  -7    2.16    0.60
  -2  -6  -7    1.89    0.38
  -2   6  -7    1.67    0.56
   2   6   7    1.67    0.46
   2   6   7    1.92    0.73
  -2   6  -7    1.51    0.59
   2   6   7    1.25    0.67
   3  -6   7   46.76    3.96
   3  -6   7   50.80    3.83
   3   6   7   49.17    4.03
   3   6   7   45.68    3.99
  -3   6  -7   47.48    3.93
   4  -6   7   35.12    2.66
   4  -6   7   28.48    2.73
  -4   6  -7   31.72    2.71
   5  -6   7    2.40    0.71
  -5   6  -7    2.83    0.59
   6  -6   7   -0.85    0.63
  -6   6  -7   -0.11    0.47
   6   6   7   -0.58    0.76
   6   6   7   -0.34    0.74
   7  -6   7    0.68    0.68
  -7   6  -7    0.27    0.41
   7   6   7    0.95    0.76
   7   6   7   -0.08    0.76
   8  -6   7    1.85    0.77
   8   6   7    4.72    0.95
   9  -6   7    7.16    1.17
   9   6   7    9.02    1.35
  10  -6   7   -0.60    0.68
  10   6   7   -0.52    0.86
  11   6   7    0.54    0.88
  12   6   7    1.06    0.88
  13   6   7    0.00    0.89
  13   7  -7    4.65    1.09
  12  -7  -7    5.67    0.93
  12   7  -7    5.61    1.14
  12   7  -7    5.61    1.13
  11  -7  -7    4.02    1.04
  11  -7  -7    4.47    0.85
  11   7  -7    2.94    1.02
  11   7  -7    2.95    0.99
  10  -7  -7    8.26    1.39
  10  -7  -7    9.99    1.28
  10   7  -7   11.12    1.42
  10   7  -7   11.98    1.49
   9   7  -7    4.16    0.93
   9   7  -7    4.34    0.97
   8  -7  -7    3.79    0.73
   8  -7  -7    3.63    0.80
  -8  -7   7    2.40    0.78
   8   7  -7    3.15    0.85
   8   7  -7    2.75    0.80
   8   7  -7    2.02    0.84
   7  -7  -7   18.62    1.78
  -7  -7   7   15.56    1.77
   7  -7  -7   19.26    1.72
   7   7  -7   17.09    1.84
   7   7  -7   14.71    1.67
   7   7  -7   14.73    1.74
  -7   7   7   15.83    1.64
   6  -7  -7    1.75    0.63
   6  -7  -7    2.75    0.70
  -6  -7   7    0.94    0.77
   6   7  -7    0.80    0.64
   6   7  -7    1.46    0.75
   6   7  -7    1.30    0.71
  -6   7   7    1.46    0.68
  -5  -7   7   31.46    2.65
  -5  -7   7   28.16    2.51
   5   7  -7   30.01    2.66
   5   7  -7   27.46    2.58
   5   7  -7   28.06    2.49
  -4  -7   7   35.83    2.91
   4  -7  -7   31.34    2.85
  -4  -7   7   33.95    2.79
   4  -7  -7   30.98    2.74
  -4   7   7   28.93    2.83
   4   7  -7   34.91    2.87
   4   7  -7   32.59    2.76
   4   7  -7   35.55    2.91
  -3  -7   7   86.03    7.40
   3  -7  -7  108.93    7.17
  -3  -7   7   85.54    7.14
  -3   7   7  105.73    7.41
   3   7  -7   85.63    7.39
   3   7  -7   81.53    7.11
   3   7  -7   93.63    7.42
   2  -7  -7   74.79    5.64
  -2  -7   7   68.66    5.66
  -2  -7   7   70.43    5.88
   2  -7  -7   79.17    5.88
  -2  -7   7   75.38    5.91
   2   7  -7   70.71    5.86
  -2   7   7   76.12    5.88
   2   7  -7   66.76    5.64
  -2   7   7   73.06    5.65
   2   7  -7   70.87    5.86
   1  -7  -7  160.64   11.02
  -1  -7   7  124.06   10.59
  -1  -7   7  131.86   11.00
  -1  -7   7  120.00   10.98
   1  -7  -7  159.18   10.61
  -1   7   7  148.27   11.01
  -1   7   7  150.45   10.59
   1   7  -7  123.79   10.97
   1   7  -7  125.07   10.97
  -1   7   7  145.99   11.00
   0  -7   7   72.51    6.19
   0  -7  -7   84.07    5.91
   0  -7  -7   89.64    6.21
   0  -7   7   70.63    5.94
   0  -7   7   65.82    6.16
   0   7  -7   72.29    6.17
   0   7  -7   69.70    6.16
   0   7   7   83.26    6.21
   0   7   7   83.47    6.23
  -1  -7  -7   94.39    7.77
  -1  -7  -7   86.25    7.39
   1  -7   7  103.07    7.48
   1  -7   7  107.72    7.78
   1  -7   7  100.09    7.76
   1   7   7   89.68    7.78
  -1   7  -7  103.71    7.75
  -1   7  -7  103.94    7.75
   1   7   7   86.23    7.76
  -2  -7  -7   67.94    4.29
   2  -7   7   50.39    4.56
   2  -7   7   51.99    4.55
   2  -7   7   53.24    4.38
  -2   7  -7   53.56    4.54
   3  -7   7    5.79    0.96
   3  -7   7    7.02    1.06
   3  -7   7    7.50    1.04
   3   7   7   10.41    1.21
  -3   7  -7    6.53    1.02
   4  -7   7    2.04    0.74
   4   7   7    2.86    0.80
  -4   7  -7    1.58    0.61
   4   7   7    3.08    0.83
   5  -7   7   19.44    1.98
   5   7   7   25.78    2.07
  -5   7  -7   18.52    1.89
   6  -7   7    0.48    0.71
   6   7   7    0.47    0.77
   6   7   7    0.83    0.81
  -6   7  -7    0.61    0.52
   7  -7   7   12.41    1.44
   7   7   7   12.88    1.52
  -7   7  -7   11.41    1.20
   7   7   7   14.78    1.61
   8  -7   7    0.09    0.69
   8   7   7    1.04    0.82
   9  -7   7    8.21    1.26
   9   7   7    9.81    1.43
  10  -7   7    3.14    0.77
  10   7   7    1.60    0.94
  11   7   7    0.90    0.92
  12   7   7    0.67    0.94
  13   7   7    4.81    1.06
  13   8  -7    1.16    0.97
  12  -8  -7    4.14    0.92
  12   8  -7    7.34    1.21
  12   8  -7    7.30    1.19
  11  -8  -7    1.55    0.75
  11  -8  -7    1.26    0.88
  11   8  -7    4.34    1.07
  11   8  -7    3.79    0.96
  10  -8  -7   11.81    1.40
  10  -8  -7   10.18    1.45
  10   8  -7   11.88    1.55
  10   8  -7   11.52    1.48
   9  -8  -7    0.85    0.72
   9   8  -7    3.27    0.86
   9   8  -7    3.30    0.91
   8  -8  -7   12.97    1.77
  -8  -8   7   16.03    1.75
   8   8  -7   17.38    1.73
   8   8  -7   18.42    1.90
   8   8  -7   18.31    1.82
   7  -8  -7    0.32    0.64
   7  -8  -7    0.45    0.61
  -7  -8   7    0.09    0.71
   7   8  -7    0.89    0.67
   7   8  -7   -0.09    0.69
   7   8  -7    0.15    0.75
  -7   8   7    0.00    0.60
   6  -8  -7   -0.30    0.56
   6  -8  -7    0.75    0.61
  -6  -8   7    0.00    0.74
   6   8  -7   -0.05    0.67
   6   8  -7   -0.25    0.57
   6   8  -7   -0.32    0.68
  -6   8   7   -0.98    0.62
  -5  -8   7    0.05    0.71
   5  -8  -7    0.81    0.58
   5  -8  -7    1.57    0.61
   5   8  -7    0.56    0.67
   5   8  -7    0.46    0.58
   5   8  -7    0.59    0.71
  -5   8   7    1.12    0.65
  -4  -8   7   15.46    1.66
  -4  -8   7   18.03    1.76
   4   8  -7   17.32    1.75
   4   8  -7   17.49    1.79
   4   8  -7   15.69    1.59
   3  -8  -7    1.00    0.54
   3  -8  -7    0.80    0.59
  -3  -8   7    1.74    0.74
  -3  -8   7    1.58    0.59
   3   8  -7    1.53    0.68
   3   8  -7    1.60    0.57
  -3   8   7    1.04    0.73
   3   8  -7    1.60    0.66
  -2  -8   7   21.40    1.95
  -2  -8   7   22.73    2.11
  -2  -8   7   21.08    2.05
   2   8  -7   20.58    1.90
   2   8  -7   23.28    2.07
   2   8  -7   21.74    2.10
  -1  -8   7    1.97    0.71
  -1  -8   7    1.14    0.57
   1  -8  -7    1.25    0.55
  -1  -8   7    1.70    0.73
   1  -8  -7    1.98    0.50
  -1   8   7    0.62    0.71
   1   8  -7    1.66    0.62
  -1   8   7    1.88    0.77
   1   8  -7    1.73    0.66
   0  -8   7   71.36    5.23
   0  -8  -7   51.13    4.91
   0  -8  -7   52.40    5.18
   0  -8   7   67.19    5.00
   0  -8   7   64.96    5.19
   0   8  -7   71.57    5.20
   0   8  -7   68.81    5.19
   1  -8   7    3.41    0.65
   1  -8   7    3.01    0.77
   1  -8   7    3.67    0.82
   1   8   7    6.20    0.90
  -1   8  -7    3.49    0.74
   2  -8   7   45.42    3.51
   2  -8   7   42.25    3.65
   2  -8   7   44.86    3.66
  -2   8  -7   41.19    3.62
   3  -8   7    8.53    1.17
   3  -8   7    7.30    1.14
   3  -8   7    7.14    1.06
  -3   8  -7    6.57    1.08
   4  -8   7   54.85    4.32
   4  -8   7   53.38    4.34
   4   8   7   45.91    4.35
  -4   8  -7   56.34    4.31
   4   8   7   51.92    4.42
   5   8   7    5.86    1.04
   5   8   7    5.95    1.03
   6  -8   7    0.63    0.75
   6   8   7    2.48    0.86
  -6   8  -7    1.47    0.54
   6   8   7    2.10    0.87
   7  -8   7   21.80    2.09
   7   8   7   20.99    2.16
   7   8   7   23.10    2.20
   8  -8   7    1.55    0.75
   8   8   7    2.90    0.90
   9  -8   7   41.73    3.18
   9   8   7   31.87    3.25
  10  -8   7   27.36    2.42
  10   8   7   27.05    2.58
  11   8   7    2.33    1.00
  12   8   7    4.85    1.11
  13   8   7    2.46    1.03
  13   9  -7    0.48    1.00
  12  -9  -7    1.05    0.73
  12   9  -7    1.00    0.96
  12   9  -7    0.49    0.86
  11  -9  -7    1.85    0.89
  11  -9  -7    1.83    0.75
  11   9  -7    0.83    0.92
  11   9  -7    0.27    0.84
  10  -9  -7    4.31    0.97
  10  -9  -7    4.58    0.88
  10   9  -7    7.25    1.07
   9   9  -7   14.33    1.60
   9   9  -7   14.43    1.70
  -8  -9   7    4.45    0.96
   8  -9  -7    5.62    0.95
   8   9  -7    4.93    0.91
   8   9  -7    5.15    1.03
   8   9  -7    4.88    0.97
   7  -9  -7   27.03    2.52
  -7  -9   7   30.04    2.64
   7  -9  -7   28.71    2.61
   7   9  -7   31.27    2.69
  -7   9   7   24.64    2.51
   7   9  -7   31.68    2.70
   7   9  -7   29.88    2.54
  -6  -9   7   14.94    1.71
   6  -9  -7   18.13    1.59
   6   9  -7   13.14    1.71
  -6   9   7   16.65    1.59
   6   9  -7   13.10    1.65
   6   9  -7   12.93    1.53
   5  -9  -7   24.32    2.17
  -5  -9   7   25.30    2.33
   5  -9  -7   26.75    2.28
   5   9  -7   24.15    2.33
   5   9  -7   22.67    2.16
  -5   9   7   23.12    2.22
   5   9  -7   23.70    2.29
  -4  -9   7    1.44    0.77
  -4  -9   7    1.55    0.64
   4  -9  -7    3.51    0.67
  -4   9   7    3.74    0.79
   4   9  -7    1.64    0.71
   4   9  -7    1.90    0.63
   4   9  -7    1.60    0.75
   3  -9  -7    3.60    0.66
   3  -9  -7    3.38    0.66
  -3  -9   7    1.71    0.61
  -3  -9   7    1.41    0.74
   3   9  -7    1.48    0.69
   3   9  -7    1.69    0.73
   3   9  -7    1.70    0.60
  -3   9   7    2.08    0.78
  -2  -9   7    6.75    1.02
  -2  -9   7    5.35    0.84
   2   9  -7    7.58    0.97
   2   9  -7    6.78    0.99
   1  -9  -7    9.93    1.23
   1  -9  -7   10.58    1.50
  -1  -9   7   13.76    1.52
  -1  -9   7   14.89    1.38
  -1  -9   7   15.57    1.51
  -1   9   7   10.09    1.51
   1   9  -7   15.06    1.49
   0  -9  -7    7.37    1.13
   0  -9   7    3.97    0.81
   0  -9   7    3.86    0.87
   0  -9   7    3.70    0.71
   0   9  -7    4.58    0.83
   0   9   7    6.93    0.98
   1  -9   7    1.45    0.69
  -1  -9  -7    0.37    0.37
   1  -9   7    0.96    0.73
   1  -9   7    1.07    0.53
   1   9   7    0.62    0.69
  -1   9  -7    1.42    0.66
   1   9   7    0.28    0.71
   2  -9   7   18.91    2.10
   2  -9   7   24.22    2.01
   2  -9   7   21.78    2.13
  -2  -9  -7   24.38    1.82
   2   9   7   22.58    2.14
   2   9   7   25.47    2.24
  -2   9  -7   19.79    2.07
   3  -9   7    6.28    0.93
   3  -9   7    4.99    0.90
   3  -9   7    4.97    0.80
  -3   9  -7    5.04    0.83
   3   9   7    8.83    1.23
   4  -9   7   10.27    1.32
   4  -9   7    7.72    1.30
   4   9   7   13.46    1.50
   4   9   7   11.22    1.42
  -4   9  -7    9.46    1.23
   5   9   7   11.52    1.54
   5   9   7   10.26    1.49
   6  -9   7   30.48    2.38
   6   9   7   20.87    2.42
  -6   9  -7   27.39    2.23
   6   9   7   23.11    2.47
   7  -9   7   -0.20    0.72
   7   9   7    1.33    0.88
   7   9   7    1.30    0.84
   8  -9   7    9.73    1.28
   8   9   7    9.55    1.49
   9  -9   7    1.09    0.73
   9   9   7    2.36    0.97
  10  -9   7    1.25    0.70
  10   9   7    0.61    0.86
  11   9   7    0.26    0.86
  12   9   7   -0.57    0.89
  13   9   7    5.03    1.15
  12 -10  -7    1.13    0.73
  12  10  -7    0.56    0.97
  12  10  -7    1.09    0.91
  11 -10  -7    0.96    0.76
  11  10  -7    1.93    0.87
  11  10  -7    2.76    1.01
  10 -10  -7   -0.17    0.73
  10  10  -7    0.22    0.75
  10  10  -7    0.48    0.93
   9 -10  -7   10.17    1.50
   9  10  -7   14.25    1.56
   9  10  -7   15.70    1.68
  -8 -10   7   29.01    2.62
   8  10  -7   28.28    2.52
   8  10  -7   27.70    2.63
  -7 -10   7   14.33    1.53
   7 -10  -7   10.50    1.48
   7 -10  -7    9.60    1.37
   7  10  -7   13.92    1.40
   7  10  -7   12.71    1.62
   7  10  -7   12.24    1.52
  -7  10   7    8.85    1.29
  -6 -10   7   23.63    2.27
   6  10  -7   25.43    2.35
   6  10  -7   22.19    2.26
   6  10  -7   22.95    2.13
   5 -10  -7    0.93    0.62
   5 -10  -7    1.14    0.61
  -5 -10   7    0.67    0.79
  -5  10   7    0.74    0.70
   5  10  -7    0.23    0.60
   5  10  -7   -0.31    0.71
   5  10  -7   -0.09    0.70
   4 -10  -7  105.14    8.76
  -4 -10   7  121.56    8.82
   4 -10  -7   99.17    8.47
   4  10  -7  118.69    8.81
  -4  10   7  101.98    8.75
   4  10  -7  112.75    8.48
  -3 -10   7    1.75    0.62
  -3 -10   7    1.69    0.81
   3  10  -7    1.32    0.78
   3  10  -7    2.22    0.61
  -3  10   7    3.81    0.81
  -2 -10   7   86.63    5.94
   2 -10  -7   63.40    5.86
  -2 -10   7   84.89    6.16
   2 -10  -7   67.96    6.12
   2  10  -7   87.18    6.17
  -2  10   7   65.14    6.11
  -1 -10   7   62.84    5.04
  -1 -10   7   60.36    5.01
  -1 -10   7   59.08    4.83
   1  10  -7   61.93    5.03
   0 -10  -7   22.37    1.75
   0 -10   7   17.73    1.98
   0 -10   7   17.75    1.95
   0 -10  -7   23.43    2.02
   0 -10   7   18.44    1.85
   0  10   7   21.33    2.02
   0  10  -7   19.85    1.98
   1 -10   7   58.14    4.64
   1 -10   7   56.13    4.64
  -1 -10  -7   53.12    4.35
   1 -10   7   61.48    4.48
  -1  10  -7   60.37    4.65
   1  10   7   48.30    4.61
   2 -10   7    0.66    0.54
   2 -10   7    0.25    0.70
  -2 -10  -7    0.46    0.33
   2 -10   7   -0.26    0.63
  -2  10  -7    0.05    0.61
   2  10   7    0.89    0.75
   2  10   7    0.34    0.76
   3 -10   7   82.83    6.68
   3 -10   7   85.51    6.47
   3 -10   7   78.32    6.69
  -3  10  -7   82.71    6.66
   3  10   7   79.69    6.71
   3  10   7   88.58    6.75
   4 -10   7    0.55    0.71
   4 -10   7    0.11    0.72
   4  10   7    0.49    0.79
   4  10   7   -0.51    0.81
  -4  10  -7    0.06    0.58
   5 -10   7   56.56    4.57
   5 -10   7   54.54    4.58
   5  10   7   59.36    4.65
  -5  10  -7   51.59    4.50
   6 -10   7    0.60    0.73
  -6  10  -7    1.51    0.54
   6  10   7    2.31    0.93
   6  10   7    2.48    0.86
   7 -10   7   18.35    1.79
   7  10   7   16.73    1.90
   7  10   7   17.32    1.99
   8 -10   7    8.02    1.16
   8  10   7    4.70    1.13
   9 -10   7   12.80    1.49
   9  10   7   14.22    1.73
  10 -10   7    1.03    0.72
  10  10   7    0.68    0.90
  11  10   7    0.56    0.90
  12  10   7   -0.49    0.89
  12 -11  -7   -0.37    0.69
  12  11  -7    0.56    1.00
  12  11  -7   -0.51    0.83
  11 -11  -7    2.84    0.81
  11  11  -7    1.96    0.90
  11  11  -7    2.37    1.04
  10 -11  -7    2.74    0.94
  10  11  -7    5.36    1.12
  10  11  -7    4.47    0.97
   9 -11  -7    0.80    0.71
   9  11  -7    0.88    0.74
   9  11  -7    0.32    0.88
   8 -11  -7    4.26    0.86
  -8 -11   7    2.16    0.85
   8  11  -7    2.29    0.93
   8  11  -7    2.88    0.80
   7 -11  -7   15.28    1.71
   7 -11  -7   16.15    1.80
  -7 -11   7   17.94    1.85
   7  11  -7   16.91    1.83
   7  11  -7   17.11    1.69
  -6 -11   7    3.02    0.89
   6 -11  -7    3.37    0.75
   6 -11  -7    3.99    0.83
   6  11  -7    2.98    0.91
   6  11  -7    4.46    0.83
  -6  11   7    2.42    0.77
   5 -11  -7   36.43    2.78
   5 -11  -7   33.09    2.67
  -5 -11   7   27.53    2.77
   5  11  -7   28.91    2.77
  -5  11   7   31.26    2.70
   5  11  -7   25.69    2.58
   4 -11  -7    5.57    0.86
   4 -11  -7    5.84    0.89
  -4 -11   7    4.40    1.02
   4  11  -7    5.26    1.01
  -4  11   7    5.15    0.97
   4  11  -7    4.62    0.82
  -3 -11   7   31.09    2.98
   3 -11  -7   33.81    2.82
   3 -11  -7   33.81    2.94
   3  11  -7   33.26    2.99
  -3  11   7   35.18    2.97
  -2 -11   7   56.84    4.59
   2 -11  -7   50.82    4.55
  -2 -11   7   58.27    4.43
   2 -11  -7   54.32    4.37
  -2  11   7   52.01    4.59
   2  11  -7   58.46    4.59
   1 -11  -7   93.83    6.87
   1 -11  -7   90.61    6.57
  -1 -11   7   77.89    6.59
  -1 -11   7   77.97    6.85
  -1  11   7   86.44    6.86
   1  11  -7   82.35    6.85
   0 -11  -7   57.79    3.98
   0 -11   7   48.62    4.05
   0 -11   7   48.61    4.21
   0 -11   7   44.29    4.20
   0  11   7   54.11    4.24
   0  11  -7   48.12    4.20
   1 -11   7   10.11    1.29
   1 -11   7   10.87    1.43
   1 -11   7    9.46    1.41
   1  11   7   15.15    1.55
  -1  11  -7   11.60    1.42
   2 -11   7    2.34    0.76
   2 -11   7    1.97    0.64
   2 -11   7    2.25    0.79
  -2  11  -7    2.66    0.76
   3 -11   7    0.02    0.72
   3 -11   7    0.15    0.58
   3 -11   7    0.38    0.68
   3  11   7    0.20    0.87
  -3  11  -7    0.22    0.64
   4 -11   7    3.74    0.83
   4 -11   7    2.62    0.84
   4  11   7    1.80    0.94
  -4  11  -7    3.18    0.73
   5 -11   7    0.51    0.75
   5 -11   7    0.39    0.74
   5  11   7   -0.15    0.82
   5  11   7   -0.27    0.89
  -5  11  -7    1.28    0.60
   6 -11   7    6.62    0.94
   6 -11   7    5.29    0.97
  -6  11  -7    5.61    0.88
   7 -11   7   25.07    2.67
   7  11   7   31.42    2.82
   7  11   7   36.08    2.93
   8 -11   7    2.07    0.79
   8  11   7    0.71    0.89
   9 -11   7   14.42    1.65
   9  11   7   17.51    1.92
  10 -11   7   -0.61    0.68
  10  11   7   -1.15    0.87
  11  11   7    2.06    1.04
  12  11   7    0.75    0.94
  12 -12  -7    0.16    0.73
  12  12  -7   -0.13    1.02
  12  12  -7    1.40    0.88
  11  12  -7    0.41    0.98
  11  12  -7    0.40    0.77
  10 -12  -7    5.71    1.13
  10  12  -7    9.57    1.48
  10  12  -7    8.97    1.27
   9 -12  -7    1.41    0.78
   9  12  -7    2.29    0.83
   9  12  -7    2.89    0.99
  -8 -12   7   -0.45    0.75
   8 -12  -7    0.72    0.71
   8  12  -7    0.33    0.72
   8  12  -7   -0.78    0.84
   7 -12  -7    0.63    0.69
  -7 -12   7   -0.01    0.79
   7  12  -7    1.04    0.85
   7  12  -7    0.78    0.68
   6 -12  -7    2.87    0.69
   6 -12  -7    2.94    0.79
  -6 -12   7    1.57    0.84
  -6  12   7    2.28    0.76
   6  12  -7    1.36    0.86
   6  12  -7    1.67    0.72
  -5 -12   7    2.32    0.85
  -5  12   7    3.88    0.84
   5  12  -7    2.23    0.86
   5  12  -7    2.03    0.70
   4 -12  -7    1.14    0.62
   4 -12  -7    0.64    0.62
  -4 -12   7    1.57    0.87
  -4  12   7   -0.29    0.74
   4  12  -7    1.41    0.85
   3 -12  -7   17.39    1.89
   3 -12  -7   17.39    1.69
  -3  12   7   17.65    1.88
   2 -12  -7   21.34    2.01
  -2  12   7   18.44    2.03
   1 -12  -7   11.36    1.18
  -1 -12   7    9.71    1.44
  -1 -12   7    9.34    1.29
   1  12  -7   10.98    1.45
  -1  12   7   10.72    1.48
   0 -12   7   59.36    4.52
   0 -12   7   61.22    4.72
   0 -12   7   57.82    4.71
   0 -12  -7   51.95    4.42
   0  12   7   48.11    4.68
   0  12  -7   61.02    4.71
   1 -12   7    1.27    0.74
   1 -12   7    0.93    0.62
  -1 -12  -7    1.17    0.42
   1 -12   7    1.68    0.75
   1  12   7    0.18    0.85
  -1  12  -7    0.69    0.72
   2 -12   7   59.41    4.49
  -2 -12  -7   48.75    4.16
   2 -12   7   56.31    4.50
  -2  12  -7   58.06    4.47
   2  12   7   47.63    4.52
   3 -12   7    4.11    0.90
   3 -12   7    4.35    0.87
  -3  12  -7    4.20    0.83
   3  12   7    2.72    0.99
   4 -12   7   25.59    2.45
   4 -12   7   28.02    2.46
  -4  12  -7   26.29    2.39
   5 -12   7    6.66    0.98
   5 -12   7    4.51    0.96
  -5  12  -7    5.05    0.82
   6 -12   7    0.90    0.75
   6 -12   7   -0.07    0.74
   6  12   7    0.16    0.90
   7 -12   7   16.60    1.61
   7  12   7   10.10    1.73
   8 -12   7    4.88    0.95
   8  12   7    6.21    1.22
   9 -12   7   24.81    2.10
   9  12   7   17.72    2.29
  10 -12   7   11.19    1.33
  10  12   7    9.51    1.51
  11  12   7   11.66    1.73
  12 -13  -7   -0.01    0.78
  11  13  -7    7.29    1.34
  11  13  -7    6.85    1.18
  10 -13  -7    0.82    0.79
  10  13  -7    0.26    0.79
  10  13  -7    1.32    1.00
   9 -13  -7    1.92    0.83
   9  13  -7    1.02    0.77
   9  13  -7    0.37    0.93
  -8 -13   7    0.46    0.81
   8 -13  -7    0.48    0.74
   8  13  -7    1.30    0.91
   8  13  -7    0.74    0.74
  -7 -13   7    2.63    0.92
   7  13  -7    4.36    1.03
   7  13  -7    3.63    0.84
   6 -13  -7   14.53    1.54
   6 -13  -7   13.48    1.59
  -6  13   7   12.24    1.51
   5 -13  -7    7.25    1.10
   5 -13  -7    7.40    0.97
   5  13  -7    4.62    1.09
  -5  13   7    7.27    1.07
   4 -13  -7   10.39    1.39
  -4 -13   7   14.65    1.62
   4 -13  -7   11.83    1.54
  -4  13   7   11.83    1.57
   4  13  -7   14.55    1.60
  -3 -13   7    3.13    0.90
   3 -13  -7    1.18    0.61
   3 -13  -7    0.92    0.63
   3  13  -7    2.97    0.90
  -3  13   7    0.79    0.85
   2 -13  -7   10.74    1.32
   2 -13  -7   10.72    1.52
  -2 -13   7   15.67    1.64
   2  13  -7   15.46    1.59
  -2  13   7   10.50    1.55
   1 -13  -7   40.61    3.18
  -1 -13   7   38.20    3.41
   1  13  -7   40.13    3.38
  -1  13   7   36.55    3.39
   0 -13  -7    1.83    0.54
   0 -13   7    1.88    0.82
   0  13   7    0.31    0.90
   0  13  -7    2.59    0.80
   1 -13   7    2.59    0.86
   1 -13   7    2.46    0.81
   1  13   7    4.74    1.04
  -1  13  -7    2.50    0.82
   2 -13   7    4.87    0.95
  -2 -13  -7    4.11    0.56
   2 -13   7    4.19    0.91
  -2  13  -7    4.93    0.90
   2  13   7    2.73    1.02
   3 -13   7    1.58    0.83
   3 -13   7    2.09    0.82
   3  13   7    2.70    0.99
  -3  13  -7    2.46    0.78
   4 -13   7   17.86    1.80
   4 -13   7   16.68    1.79
  -4  13  -7   15.53    1.68
   5 -13   7    3.28    0.88
   5 -13   7    3.85    0.86
   5  13   7    3.16    1.03
  -5  13  -7    3.55    0.73
   6 -13   7   35.08    3.23
   6  13   7   39.86    3.37
   7 -13   7    3.21    0.88
   7  13   7    0.38    0.89
   8 -13   7   17.86    1.72
   8  13   7   12.42    1.87
   9 -13   7   -0.32    0.71
   9  13   7    0.07    0.93
  10 -13   7    2.08    0.77
  10  13   7    1.97    1.05
  11  13   7    1.48    1.02
  12 -14  -7    0.76    0.77
  11  14  -7    8.04    1.45
  11  14  -7    7.92    1.26
  10  14  -7    6.87    1.17
  10  14  -7    7.18    1.32
   9  14  -7    4.29    1.13
   9  14  -7    5.29    1.00
  -8 -14   7   12.07    1.63
   8 -14  -7   10.08    1.44
   8  14  -7   11.59    1.43
   8  14  -7   12.00    1.61
  -7 -14   7    5.94    1.13
   7  14  -7    5.74    1.15
   6 -14  -7   26.67    2.33
  -6  14   7   23.17    2.29
   5 -14  -7    0.37    0.64
   5 -14  -7    0.44    0.60
  -5 -14   7    0.14    0.81
  -5  14   7   -0.16    0.76
   5  14  -7    1.06    0.89
   4 -14  -7   15.99    1.67
   4 -14  -7   16.90    1.78
  -4  14   7   17.07    1.86
   3 -14  -7    2.70    0.74
   3 -14  -7    3.49    0.72
  -3 -14   7    3.25    0.91
  -3  14   7    2.99    0.97
   3  14  -7    2.68    0.91
   2 -14  -7    0.36    0.53
  -2 -14   7    0.32    0.83
  -2  14   7   -0.14    0.87
   2  14  -7    0.19    0.80
   1 -14  -7    0.16    0.51
  -1 -14   7   -0.58    0.78
  -1  14   7   -0.13    0.86
   1  14  -7    0.35    0.77
   0 -14  -7    9.42    1.07
   0  14   7    8.07    1.28
  -1 -14  -7   10.15    1.17
   1 -14   7   12.86    1.54
  -1  14  -7   13.50    1.49
   1  14   7    9.92    1.62
  -2 -14  -7   19.85    1.56
   2 -14   7   17.09    1.90
   2 -14   7   15.73    1.90
  -2  14  -7   17.46    1.89
   2  14   7   18.70    1.99
   3 -14   7   43.03    3.95
   3 -14   7   47.88    4.00
   3  14   7   51.19    4.06
  -3  14  -7   45.58    3.93
   4 -14   7    1.17    0.79
   4 -14   7    1.10    0.77
   4  14   7    2.49    1.00
  -4  14  -7    1.09    0.68
   5 -14   7   39.34    3.23
   5 -14   7   38.10    3.26
   5  14   7   35.23    3.34
  -5  14  -7   34.98    3.13
   6 -14   7    4.04    0.94
   6  14   7    1.27    0.91
   7 -14   7    4.11    0.93
   7  14   7    2.29    0.98
   8 -14   7   -0.51    0.74
   8  14   7    0.24    0.92
   9 -14   7    3.93    0.89
   9  14   7    2.24    1.15
  10 -14   7    0.13    0.75
  10  14   7    0.05    0.99
  11  14   7    0.02    1.01
  11  15  -7    1.85    1.12
  10  15  -7    1.16    1.07
   9 -15  -7    0.44    0.80
   9  15  -7    0.57    0.96
   8 -15  -7    4.02    0.94
   8  15  -7    3.97    1.11
  -7 -15   7    3.86    1.07
   7 -15  -7    6.41    1.02
   7  15  -7    3.91    1.10
  -6 -15   7    8.21    1.20
   6 -15  -7    4.86    0.99
   6  15  -7    6.38    1.17
   5 -15  -7    1.56    0.70
  -5 -15   7    2.62    0.96
   5 -15  -7    1.64    0.73
  -5  15   7    1.36    0.80
   5  15  -7    2.75    1.00
   4 -15  -7    6.66    0.96
   4 -15  -7    5.79    0.92
  -4 -15   7    2.95    1.02
  -4  15   7    6.13    1.04
   4  15  -7    3.10    1.05
  -3 -15   7    2.94    0.92
   3 -15  -7    1.13    0.63
   3  15  -7    3.69    0.98
  -3  15   7    0.62    0.91
  -2 -15   7    0.91    0.84
   2 -15  -7    0.00    0.54
   2  15  -7    0.69    0.83
  -2  15   7   -0.72    0.84
  -1 -15   7    1.38    0.85
   1 -15  -7    1.46    0.59
  -1  15   7    1.32    0.96
   1  15  -7    1.64    0.89
   0 -15  -7   42.53    3.18
   0  15   7   42.07    3.48
   0  15  -7   32.17    3.39
   1 -15   7    2.08    0.89
  -1 -15  -7    4.29    0.65
   1  15   7    3.49    1.10
  -1  15  -7    2.63    0.89
   2 -15   7   14.21    1.71
   2 -15   7   11.14    1.65
  -2  15  -7   13.61    1.62
   2  15   7   17.08    1.83
  -3 -15  -7    0.15    0.32
   3 -15   7    0.48    0.76
   3 -15   7   -0.19    0.79
   3  15   7   -0.67    0.95
  -3  15  -7    0.22    0.71
   4 -15   7    9.82    1.43
   4 -15   7   10.84    1.46
  -4  15  -7   10.02    1.30
   5 -15   7    2.00    0.86
   5  15   7    0.37    0.90
   6 -15   7    3.80    0.97
   6  15   7    5.44    1.24
   7  15   7    3.78    1.19
   8 -15   7    0.08    0.80
   8  15   7    1.03    0.94
   9 -15   7   -0.73    0.80
   9  15   7   -0.17    0.97
  10 -15   7    0.56    0.76
  10  15   7    0.68    1.06
  10  16  -7    6.35    1.34
   9  16  -7    2.29    1.11
   8 -16  -7    3.90    0.96
   8  16  -7    4.22    1.13
   7 -16  -7    2.20    0.85
  -7 -16   7    4.64    1.09
   7  16  -7    4.53    1.11
  -6 -16   7    3.43    1.00
   6 -16  -7    2.60    0.84
   6  16  -7    3.78    1.06
  -5 -16   7    3.55    1.01
   5  16  -7    3.81    1.03
   4 -16  -7    1.46    0.67
  -4 -16   7    4.18    1.01
  -4  16   7    1.00    0.87
   4  16  -7    4.28    1.04
  -3 -16   7   36.20    3.72
   3 -16  -7   49.06    3.57
  -3  16   7   49.21    3.76
   3  16  -7   36.70    3.71
  -2 -16   7   10.39    1.47
   2 -16  -7    8.95    1.19
  -2  16   7    8.44    1.33
   2  16  -7   10.55    1.47
  -1 -16   7    2.69    0.92
   1  16  -7    3.57    0.96
   0 -16   7   15.55    1.80
   0  16  -7   16.09    1.81
  -1 -16  -7   85.09    6.33
   1 -16   7   78.47    6.67
  -1  16  -7   83.36    6.66
   1  16   7   79.31    6.70
   2 -16   7   18.89    2.06
  -2  16  -7   20.78    2.03
   3 -16   7   16.00    1.78
   3 -16   7   14.99    1.77
  -3  16  -7   16.33    1.74
   4 -16   7    4.50    0.96
   4 -16   7    4.21    0.98
  -4  16  -7    3.61    0.89
   5 -16   7   25.53    2.24
   5  16   7   18.28    2.33
   6  16   7    5.80    1.30
   7 -16   7   20.80    2.14
   8 -16   7    3.95    0.99
   8  16   7    5.07    1.30
   9 -16   7    5.33    1.05
   9  16   7    5.47    1.32
  10 -16   7    3.53    0.93
  10  16   7    5.27    1.35
  10  17  -7    0.83    1.10
   9  17  -7    1.64    1.11
   8 -17  -7    1.50    0.84
   8  17  -7    0.89    1.06
   7 -17  -7    1.93    0.85
  -7 -17   7    1.78    0.98
   7  17  -7    2.67    1.04
   6 -17  -7    0.10    0.69
  -6 -17   7   -0.84    0.85
   6  17  -7    0.06    0.90
  -5 -17   7    2.65    0.98
   5  17  -7    4.18    1.07
  -4 -17   7    1.24    0.92
   4 -17  -7    0.47    0.64
   4  17  -7    0.58    0.93
  -4  17   7    0.35    0.90
  -3 -17   7    1.84    0.93
   3 -17  -7    0.73    0.61
  -3  17   7    1.12    0.94
   3  17  -7    1.07    0.93
   2 -17  -7    1.45    0.67
  -2 -17   7    5.80    1.04
  -2  17   7    0.99    0.97
   2  17  -7    6.23    1.09
   1 -17  -7    2.59    0.70
  -1 -17   7    5.83    1.06
  -1  17   7    2.45    1.10
   1  17  -7    5.41    1.06
   0 -17   7    0.60    0.85
   0 -17  -7    0.83    0.56
   0  17  -7    1.19    0.91
   0  17   7   -0.18    0.88
   1 -17   7   17.26    1.76
  -1 -17  -7   12.46    1.44
   1  17   7   12.93    1.88
  -1  17  -7   17.33    1.80
   2 -17   7    2.43    0.94
  -2 -17  -7    5.08    0.77
  -2  17  -7    3.83    0.96
   2  17   7    4.40    1.19
  -3 -17  -7    1.39    0.42
   3 -17   7    3.55    0.95
  -3  17  -7    3.36    0.90
   3  17   7    1.69    1.09
   4 -17   7    3.12    0.95
   4  17   7    5.70    1.24
  -4  17  -7    2.61    0.85
   5 -17   7    2.75    0.93
   5  17   7    0.99    1.00
   6 -17   7   13.50    1.77
   6  17   7   16.98    2.01
   7 -17   7    1.40    0.89
   7  17   7    0.43    0.98
   8 -17   7    1.28    0.89
   8  17   7    3.18    1.26
   9 -17   7    1.28    0.90
   9  17   7    1.46    1.07
  10 -17   7    0.51    0.80
   9  18  -7    5.46    1.31
   8 -18  -7   19.87    2.26
   8  18  -7   25.12    2.46
  -7 -18   7    3.21    1.05
   7 -18  -7    1.42    0.81
   7  18  -7    2.64    1.10
  -6 -18   7   19.45    2.21
   6 -18  -7   18.40    1.98
   6  18  -7   20.25    2.17
  -5 -18   7    1.08    0.96
   5  18  -7    1.56    0.98
   4 -18  -7   17.19    1.90
   4  18  -7   24.60    2.19
  -4  18   7   17.47    2.09
   3 -18  -7    4.42    0.84
  -3 -18   7    3.23    1.04
  -3  18   7    3.60    1.06
   3  18  -7    2.94    1.00
   2 -18  -7   18.88    1.85
  -2  18   7   20.47    2.18
  -1 -18   7   11.72    1.64
   1 -18  -7   12.21    1.34
  -1  18   7   13.32    1.81
   1  18  -7   11.94    1.67
   0 -18  -7    2.69    0.68
   0 -18   7    2.41    0.97
   0  18   7    1.33    0.99
   0  18  -7    2.85    1.00
  -1 -18  -7   21.85    1.83
  -1  18  -7   15.93    2.09
   1  18   7   21.23    2.25
  -2 -18  -7    3.09    0.58
   2  18   7    2.16    1.04
   3 -18   7   31.39    2.85
  -3  18  -7   30.82    2.79
   3  18   7   28.73    2.95
   4 -18   7    0.18    0.87
   4  18   7    1.87    1.01
   5 -18   7   22.97    2.42
   5  18   7   27.37    2.65
   6 -18   7    0.06    0.89
   6  18   7    2.03    1.22
   7 -18   7   11.03    1.48
   7  18   7    6.79    1.50
   8 -18   7   -0.91    0.84
   8  18   7    0.71    1.03
   9  18   7    2.50    1.28
  10 -18   7   -0.70    0.79
   9  19  -7   -0.51    1.11
   8  19  -7   -0.25    1.08
  -7 -19   7    0.77    0.97
   7 -19  -7    1.85    0.85
   7  19  -7    0.40    1.06
  -6 -19   7    1.17    0.98
   6 -19  -7    1.46    0.80
   6  19  -7    0.97    1.08
  -5 -19   7    1.21    0.96
   5 -19  -7    0.18    0.70
   5  19  -7   -0.11    1.00
  -4 -19   7    2.40    1.01
   4 -19  -7    4.05    0.89
  -4  19   7    4.30    1.09
   4  19  -7    2.14    1.04
   3 -19  -7    0.62    0.65
  -3 -19   7    1.42    0.93
  -3  19   7    0.34    0.97
   3  19  -7    1.89    1.03
  -2 -19   7    5.83    1.21
   2 -19  -7    8.21    1.10
   2  19  -7    5.87    1.26
  -2  19   7    7.94    1.35
   1 -19  -7    2.67    0.72
  -1 -19   7    1.41    0.96
  -1  19   7    1.31    1.04
   1  19  -7    2.18    1.04
   0 -19  -7   16.19    1.51
   0 -19   7   13.07    1.80
   0  19  -7   13.76    1.83
   0  19   7   15.38    1.99
  -1 -19  -7    0.90    0.56
   1 -19   7    0.50    0.86
  -1  19  -7   -0.08    0.91
   1  19   7    0.93    0.95
   2 -19   7    1.17    0.90
  -2 -19  -7    1.47    0.52
  -2  19  -7    1.32    0.90
   2  19   7    0.49    0.95
   3 -19   7    7.61    1.29
  -3  19  -7    8.94    1.28
   4 -19   7   -0.59    0.85
   4  19   7   -0.18    1.00
   5 -19   7    0.83    0.93
   5  19   7    1.78    1.07
   6 -19   7   -0.09    0.87
   6  19   7   -0.55    0.98
   7 -19   7   -0.62    0.84
   7  19   7   -0.35    1.05
   8 -19   7   -0.43    0.88
   8  19   7   -0.21    1.05
   9 -19   7    1.92    0.92
  10 -19   7    0.68    0.84
   8  20  -7    2.97    1.27
  -7 -20   7    1.22    0.98
   7 -20  -7    0.35    0.79
   7  20  -7    0.34    1.10
  -6 -20   7   29.32    2.77
   6 -20  -7   22.90    2.54
   6  20  -7   30.81    2.82
  -5 -20   7    1.66    1.02
   5 -20  -7    4.17    0.96
   5  20  -7    1.20    1.11
   4 -20  -7   24.19    2.66
  -4 -20   7   33.26    2.99
   4  20  -7   35.99    3.03
  -3 -20   7    0.59    0.94
   3 -20  -7    3.24    0.79
   3  20  -7    1.22    1.07
  -3  20   7    2.98    1.07
   2 -20  -7   19.27    1.79
  -2 -20   7   15.92    2.03
   2  20  -7   16.68    2.09
  -2  20   7   19.05    2.19
   1 -20  -7   44.87    3.82
  -1  20   7   49.46    4.20
   0 -20  -7   15.45    1.62
   0 -20  -7   17.40    2.01
   0  20   7   17.44    2.15
   1 -20   7    4.48    1.13
  -1 -20  -7    4.76    0.79
  -1 -20  -7    5.44    1.19
   1  20   7    4.92    1.29
  -1  20  -7    5.64    1.17
   2 -20   7    7.43    1.24
   2  20   7    3.46    1.33
  -2  20  -7    7.77    1.24
   3 -20   7   16.32    1.98
   3  20   7   18.36    2.18
   4 -20   7    0.90    0.91
   4  20   7    0.77    1.03
   5 -20   7    7.95    1.30
   5  20   7    8.76    1.60
   6 -20   7    0.38    0.90
   6  20   7    2.63    1.35
   7 -20   7    4.12    1.07
   7  20   7    0.97    1.12
   8 -20   7    9.10    1.54
   8  20   7   14.07    1.99
   9 -20   7    0.23    0.88
  10 -20   7   -0.19    0.85
   8  21  -7   -0.26    1.14
   7  21  -7    0.97    1.18
   6 -21  -7    0.89    0.83
  -6 -21   7    0.98    1.02
   6  21  -7    1.15    1.13
  -5 -21   7   10.38    1.66
   5  21  -7   10.64    1.65
  -4 -21   7   -0.34    0.92
   4 -21  -7    0.06    0.68
   4  21  -7    0.46    1.07
  -3 -21   7    3.27    1.08
   3 -21  -7    0.81    0.67
  -3  21   7    0.26    0.89
   3  21  -7    2.64    1.11
   2 -21  -7    0.05    0.61
  -2 -21   7    1.03    0.97
   2  21  -7    1.47    1.08
  -2  21   7   -0.12    0.92
  -1 -21   7   14.05    1.88
   1  21  -7   16.37    1.97
   0 -21  -7   16.94    2.08
   0 -21  -7   15.56    1.64
   0  21   7   17.94    2.14
   1 -21   7   -0.35    0.85
  -1 -21  -7    0.12    0.54
  -1 -21  -7    0.38    0.93
  -1  21  -7   -0.39    0.94
   1  21   7    0.16    0.98
   2 -21   7    0.07    0.87
  -2 -21  -7    2.47    1.07
  -2  21  -7    0.31    0.91
   2  21   7    1.65    1.05
   3 -21   7    0.50    0.88
   3  21   7    0.64    1.01
   4 -21   7    1.30    0.95
   4  21   7    4.08    1.35
   5 -21   7    2.17    0.99
   5  21   7    1.11    1.11
   6 -21   7   -0.20    0.92
   6  21   7    0.77    1.15
   7 -21   7    0.05    0.92
   7  21   7   -0.25    1.09
   8 -21   7    1.24    0.94
   9 -21   7   -0.55    0.86
   7  22  -7    2.25    1.26
  -6 -22   7    3.95    1.17
   6  22  -7    4.33    1.33
  -5 -22   7    2.13    1.10
   5 -22  -7    3.17    0.92
   5  22  -7    2.01    1.23
  -4 -22   7    1.38    1.05
   4 -22  -7    2.15    0.82
   4  22  -7    2.02    1.20
  -3 -22   7    2.54    1.10
   3  22  -7    3.33    1.22
  -2 -22   7   -0.16    0.95
   2 -22  -7    1.00    0.70
  -2  22   7    0.61    1.01
   2  22  -7   -1.27    1.06
   1 -22  -7   16.23    1.72
   1 -22  -7   18.63    2.13
  -1  22   7   16.45    2.20
   0 -22   7   19.51    2.20
   0  22  -7   20.36    2.29
   1 -22   7    2.37    1.05
  -1 -22  -7    4.34    1.17
  -1  22  -7    3.43    1.13
   1  22   7    4.69    1.38
   2 -22   7    9.84    1.57
   3 -22   7   -0.25    0.89
   3  22   7    0.45    1.06
   4 -22   7    4.72    1.14
   4  22   7    0.96    1.12
   5 -22   7    2.32    1.03
   5  22   7    3.23    1.39
   6 -22   7    0.38    0.93
   6  22   7    0.19    1.12
   7 -22   7   11.37    1.63
   8 -22   7   -0.16    0.90
   7  23  -7    0.13    1.21
  -6 -23   7    1.46    1.07
   6  23  -7    2.24    1.28
   5 -23  -7    0.18    0.78
  -5 -23   7    0.53    1.01
   5  23  -7    1.15    1.19
  -4 -23   7   -0.60    0.97
   4 -23  -7    0.41    0.75
   4  23  -7   -0.03    1.14
   3 -23  -7    1.72    0.78
  -3 -23   7    3.08    1.09
   3  23  -7    3.72    1.26
  -2 -23   7    0.50    1.01
   2 -23  -7    4.07    0.85
  -2  23   7    1.88    1.08
   2  23  -7    1.03    1.18
   1 -23  -7    8.48    1.23
  -1 -23   7    8.39    1.49
   1 -23  -7   11.65    1.75
   1  23  -7   11.71    1.75
  -1  23   7    7.45    1.62
   0 -23  -7   14.27    1.69
   0 -23  -7   18.66    2.19
   0 -23   7   17.89    2.06
   0  23  -7   19.29    2.13
   0  23   7   16.27    2.28
   1 -23   7   10.85    1.62
  -1 -23  -7    8.25    1.49
   1  23   7    8.59    1.67
  -1  23  -7   10.93    1.67
   2 -23   7    2.70    1.12
  -2 -23  -7    6.61    1.32
   2  23   7    4.87    1.42
   3 -23   7    1.21    1.00
  -3 -23  -7    1.21    1.10
   3  23   7    0.99    1.10
   4 -23   7    0.94    0.99
   4  23   7    4.16    1.45
   5 -23   7    0.26    0.95
   5  23   7    0.78    1.17
   6 -23   7    0.16    0.95
   6  23   7    0.52    1.20
   7 -23   7    0.33    0.93
  -6 -24   7   19.22    2.26
   6  24  -7   17.52    2.33
  -5 -24   7    0.57    1.02
   5  24  -7    2.02    1.26
   4 -24  -7   17.14    2.05
  -4 -24   7   21.21    2.33
   4  24  -7   22.69    2.44
  -3 -24   7   -0.03    1.01
   3 -24  -7   -0.62    0.69
   3  24  -7   -0.19    1.17
   2 -24  -7    8.61    1.34
  -2 -24   7   10.47    1.66
   2  24  -7   12.44    1.85
  -1 -24   7    0.36    1.00
   1 -24  -7    1.10    0.71
   1 -24  -7    1.82    1.08
  -1  24   7    0.28    1.10
   1  24  -7    1.84    1.18
   0 -24  -7   15.85    1.97
   0 -24   7    8.61    1.57
   0  24   7   14.78    2.04
   0  24  -7   11.35    1.87
  -1 -24  -7    4.17    1.20
   1 -24   7    1.64    1.05
   1  24   7    3.35    1.40
  -2 -24  -7   -0.64    1.03
   2 -24   7   -0.21    0.95
   2  24   7    0.55    1.12
  -3 -24  -7    9.42    1.60
   3  24   7    8.15    1.72
   4 -24   7    2.82    1.06
   4  24   7    1.42    1.24
   5 -24   7    7.81    1.36
  -6 -25   7    1.79    1.15
  -5 -25   7    2.50    1.22
   5  25  -7    3.22    1.43
  -4 -25   7    1.05    1.06
   4  25  -7    0.09    1.28
  -3 -25   7    0.75    1.02
   3 -25  -7    0.36    0.75
   3  25  -7    2.01    1.32
  -2 -25   7    4.55    1.24
   2  25  -7    5.46    1.48
   1 -25  -7    0.97    1.06
  -1 -25   7    0.87    1.01
   1  25  -7    1.81    1.25
  -1  25   7   -0.36    1.10
   0 -25  -7   -0.34    1.02
   0 -25   7   -0.01    0.96
   0  25  -7    0.95    1.16
   0  25   7    0.46    1.13
   1 -25   7    1.28    1.02
  -1 -25  -7    1.06    1.07
   1  25   7    0.63    1.13
   2 -25   7    0.90    1.02
  -2 -25  -7    3.07    1.25
   2  25   7    3.61    1.48
  -3 -25  -7    0.56    1.11
   3 -25   7   -0.43    0.96
   3  25   7    1.48    1.24
   4 -25   7    3.99    1.14
   4  25   7    1.14    1.29
  -5 -26   7    0.28    1.10
  -4 -26   7    0.36    1.11
   4  26  -7   -0.01    1.29
  -3 -26   7   -0.01    1.04
   3 -26  -7    2.85    0.89
   3  26  -7    1.25    1.31
   2 -26  -7   -0.02    0.79
  -2 -26   7    1.10    1.07
   2  26  -7    1.77    1.28
   1 -26  -7    0.96    1.14
  -1 -26   7    1.60    1.05
   1  26  -7    1.49    1.26
   0 -26   7    5.67    1.24
   0 -26  -7    3.01    1.24
   0  26   7    1.15    1.23
  -1 -26  -7    4.93    1.33
   1 -26   7    2.37    1.10
   1  26   7    4.19    1.56
   2 -26   7   13.40    1.84
  -3 -26  -7   -0.12    1.11
   3  26   7   -0.74    1.16
   4  26   7    1.88    1.28
  -5 -27   7    0.50    1.11
  -4 -27   7    0.48    1.12
   4  27  -7    1.35    1.34
  -3 -27   7   -0.23    1.06
   3  27  -7   -0.04    1.27
  -2 -27   7    4.25    1.28
   2  27  -7    5.30    1.48
  -1 -27   7    0.81    1.08
   0 -27  -7    7.47    1.54
  -1 -27  -7   -0.75    1.13
   1  27   7   -0.25    1.15
  -2 -27  -7    1.60    1.19
   2  27   7    0.91    1.29
   3  27   7    3.47    1.56
   3  28  -7    0.07    1.33
   2  28  -7    4.51    1.52
   1  28   7    5.60    1.68
   2  28   7   -0.94    1.24
  14   0  -8    0.15    0.86
  13   0  -8    0.44    0.86
  12   0  -8   -0.31    0.79
  11   0  -8   10.91    1.54
  11   0  -8   12.74    1.48
  10   0  -8    0.30    0.77
  10   0  -8   -0.17    0.73
   9   0  -8   23.16    2.31
   9   0  -8   26.05    2.32
   8   0  -8   26.04    2.40
  -8   0   8   24.37    2.36
   8   0  -8   26.97    2.41
   8   0  -8   28.48    2.44
  -7   0   8    1.38    0.73
   7   0  -8    2.09    0.72
   7   0  -8    1.63    0.75
   7   0  -8    2.15    0.70
   6   0  -8   35.09    3.06
   6   0  -8   39.16    3.16
  -6   0   8   35.47    3.15
   6   0  -8   35.88    3.13
   5   0  -8   38.41    3.23
  -5   0   8   40.01    3.29
  -5   0   8   37.74    3.32
   5   0  -8   41.34    3.34
   5   0  -8   37.83    3.32
   4   0  -8  167.94   13.00
  -4   0   8  175.73   13.02
   4   0  -8  174.86   13.43
   4   0  -8  167.80   13.44
  -4   0   8  165.29   13.42
  -3   0   8    2.77    0.66
   3   0  -8    3.03    0.65
  -3   0   8    2.12    0.76
   3   0  -8    3.54    0.73
   3   0  -8    2.67    0.64
   2   0  -8   96.77    7.93
   2   0  -8   96.35    7.65
  -2   0   8  101.10    7.95
   2   0  -8  102.79    7.94
  -2   0   8  100.14    7.67
   1   0  -8    1.29    0.49
  -1   0   8    1.14    0.67
   1   0  -8    0.89    0.54
   1   0  -8    0.91    0.51
  -1   0   8    0.81    0.55
   0   0  -8    0.42    0.53
   0   0   8    0.52    0.51
   0   0  -8    0.16    0.52
   0   0   8    0.08    0.67
   0   0  -8    0.70    0.42
   1   0   8    6.57    0.90
  -1   0  -8    5.95    0.81
  -1   0  -8    6.85    1.11
   1   0   8    5.47    0.90
  -1   0  -8    6.24    0.83
  -2   0  -8   -0.06    0.51
   2   0   8   -0.19    0.65
   2   0   8    0.50    0.49
   3   0   8   67.73    5.79
  -3   0  -8   69.04    5.76
   3   0   8   77.93    5.54
  -4   0  -8   15.91    1.63
   4   0   8   14.61    1.71
   4   0   8   18.33    1.51
  -5   0  -8   55.43    4.54
   5   0   8   61.83    4.34
   5   0   8   48.86    4.55
   6   0   8    4.89    0.94
   6   0   8    4.83    0.69
  -6   0  -8    4.15    0.73
   7   0   8   91.21    6.44
  -7   0  -8   79.43    6.68
   7   0   8   80.95    6.75
   8   0   8   28.41    2.28
   8   0   8   26.37    2.50
   9   0   8    8.59    1.25
   9   0   8    8.71    1.01
  10   0   8    1.11    0.79
  11   0   8    0.23    0.83
  12   0   8    0.07    0.78
  14   1  -8    0.51    0.88
  13  -1  -8    0.25    0.84
  13   1  -8    0.21    0.86
  12  -1  -8    1.04    0.83
  12   1  -8   -0.11    0.82
  12   1  -8    0.22    0.84
  11  -1  -8    0.41    0.81
  11  -1  -8    0.19    0.78
  11   1  -8    0.47    0.82
  11   1  -8    0.67    0.82
  10  -1  -8    4.74    0.92
  10  -1  -8    3.73    0.92
  10   1  -8    1.81    0.85
  10   1  -8    2.14    0.84
   9  -1  -8    1.68    0.81
   9  -1  -8    2.22    0.79
   9   1  -8    4.32    0.90
   9   1  -8    5.11    0.95
  -8  -1   8    3.87    0.82
   8   1  -8    4.62    0.85
   8   1  -8    4.93    0.91
   8   1  -8    4.83    0.92
   7  -1  -8    3.48    0.83
   7  -1  -8    4.55    0.83
  -7  -1   8    5.03    0.87
   7  -1  -8    3.83    0.84
   7   1  -8    5.17    0.86
   7   1  -8    4.94    0.91
  -7   1   8    3.12    0.80
   7   1  -8    5.63    0.91
   6  -1  -8    4.02    0.82
   6  -1  -8    3.59    0.79
   6  -1  -8    3.63    0.77
  -6   1   8    3.49    0.81
   5  -1  -8    0.82    0.69
   5  -1  -8    1.87    0.65
  -5  -1   8    1.51    0.74
  -5  -1   8    2.01    0.69
   5  -1  -8    1.57    0.63
  -5   1   8    0.68    0.67
  -5   1   8    0.66    0.69
   5   1  -8    1.65    0.65
   5   1  -8    1.98    0.69
   5   1  -8    2.49    0.67
   4  -1  -8    3.69    0.77
   4  -1  -8    3.83    0.73
   4  -1  -8    3.99    0.72
  -4   1   8    3.19    0.81
  -4   1   8    3.34    0.77
   3  -1  -8    2.26    0.66
   3  -1  -8    1.66    0.62
   3  -1  -8    2.76    0.63
  -3  -1   8    4.45    0.72
  -3  -1   8    4.08    0.78
   3   1  -8    4.08    0.75
   3   1  -8    4.47    0.67
  -3   1   8    1.92    0.78
  -3   1   8    2.42    0.65
  -2  -1   8   68.46    4.79
   2  -1  -8   54.19    4.72
   2  -1  -8   56.86    4.91
  -2  -1   8   65.91    4.96
  -2   1   8   55.35    4.75
  -2   1   8   50.77    4.92
   2   1  -8   64.43    4.94
   2   1  -8   62.77    4.75
   2   1  -8   65.54    4.94
  -1  -1   8   29.64    2.69
  -1  -1   8   30.49    2.53
   1   1  -8   31.31    2.68
   1   1  -8   30.55    2.66
   1   1  -8   29.67    2.50
   0  -1  -8   36.82    3.28
   0  -1   8   44.03    3.12
   0  -1  -8   33.63    3.06
   0  -1   8   40.24    3.29
   0   1   8   33.23    3.25
   0   1   8   36.21    3.11
   0   1  -8   39.12    3.08
   0   1  -8   41.50    3.25
   0   1  -8   42.33    3.26
   1  -1   8    7.18    1.01
   1  -1   8    7.99    1.17
  -1   1  -8    8.07    1.10
  -1   1  -8    8.90    1.15
  -1   1  -8    8.34    0.93
   2  -1   8    1.35    0.55
   2  -1   8    0.47    0.71
   2   1   8    2.47    0.77
  -2   1  -8    1.52    0.62
   2   1   8    2.50    0.56
   3  -1   8    1.06    0.68
   3  -1   8    1.54    0.53
   3   1   8    2.28    0.73
  -3   1  -8    1.14    0.59
   4  -1   8    0.58    0.52
   4  -1   8   -0.16    0.67
   4   1   8   -0.09    0.71
  -4   1  -8   -0.08    0.54
   4   1   8   -0.07    0.48
   5  -1   8   23.17    2.22
  -5  -1  -8   28.37    2.34
   5   1   8   28.86    2.46
  -6  -1  -8   14.09    1.56
   6   1   8   16.66    1.41
   6   1   8   15.10    1.70
   7  -1   8    0.10    0.52
  -7  -1  -8   -0.10    0.52
   7  -1   8    1.01    0.72
   7   1   8    0.01    0.77
   7   1   8   -0.06    0.78
  -7   1  -8    0.42    0.50
   7   1   8    1.05    0.49
   8  -1   8   11.74    1.22
   8  -1   8   11.47    1.39
   8   1   8    9.00    1.42
   9  -1   8   -0.23    0.76
   9   1   8    0.42    0.81
  10  -1   8    1.56    0.82
  10   1   8    1.78    0.83
  11  -1   8   -1.07    0.76
  11   1   8   -0.06    0.76
  12  -1   8   -0.85    0.74
  12   1   8   -0.76    0.81
  14   2  -8   -0.34    0.85
  13  -2  -8    2.59    0.89
  13   2  -8    3.11    0.96
  12  -2  -8    2.76    0.85
  12   2  -8    1.23    0.95
  12   2  -8    1.77    0.94
  11  -2  -8    1.96    0.81
  11  -2  -8    2.06    0.86
  11   2  -8    1.04    0.85
  11   2  -8    0.41    0.83
  10  -2  -8    2.99    0.90
  10  -2  -8    4.66    0.89
  10   2  -8    3.25    0.92
  10   2  -8    2.79    0.88
   9  -2  -8    8.62    1.23
   9  -2  -8    9.79    1.28
   9   2  -8    7.33    1.15
   9   2  -8    6.51    1.12
   8  -2  -8    4.80    0.85
   8  -2  -8    4.97    0.81
  -8  -2   8    1.55    0.76
   8  -2  -8    4.34    0.86
   8   2  -8    2.87    0.83
   8   2  -8    1.93    0.82
  -8   2   8    3.64    0.77
   8   2  -8    3.32    0.78
  -7  -2   8    4.43    0.89
   7  -2  -8    3.75    0.77
   7  -2  -8    3.86    0.85
   7  -2  -8    4.13    0.84
   7   2  -8    5.78    0.94
   7   2  -8    5.32    0.87
  -7   2   8    3.85    0.83
   7   2  -8    5.80    0.92
   6  -2  -8    1.45    0.72
   6  -2  -8    1.28    0.62
  -6  -2   8    1.09    0.77
   6  -2  -8    1.41    0.67
   6   2  -8    0.99    0.66
   6   2  -8    1.59    0.72
  -6   2   8    1.83    0.74
   6   2  -8    2.40    0.69
   5  -2  -8   12.87    1.51
   5  -2  -8   12.07    1.48
  -5  -2   8   15.89    1.60
   5  -2  -8   11.47    1.40
  -5  -2   8   15.06    1.54
   5   2  -8   15.44    1.51
  -5   2   8   11.75    1.50
   5   2  -8   14.11    1.45
   5   2  -8   16.71    1.54
  -5   2   8   12.42    1.55
  -4  -2   8    0.36    0.59
   4  -2  -8    3.66    0.70
   4  -2  -8    3.69    0.69
  -4  -2   8    1.66    0.77
   4   2  -8    1.74    0.66
   4   2  -8    1.20    0.63
  -4   2   8    2.79    0.70
   4   2  -8    2.08    0.60
  -4   2   8    2.15    0.79
  -3  -2   8    2.67    0.64
   3  -2  -8    1.12    0.56
   3  -2  -8    0.88    0.59
  -3  -2   8    2.36    0.75
   3   2  -8    2.80    0.63
   3   2  -8    2.97    0.69
   3   2  -8    3.01    0.67
  -3   2   8    0.77    0.70
  -2  -2   8   51.83    4.19
   2  -2  -8   47.50    3.99
  -2  -2   8   52.34    4.02
   2  -2  -8   49.00    4.15
  -2   2   8   49.07    4.02
   2   2  -8   50.62    4.15
   2   2  -8   51.83    4.01
   2   2  -8   53.56    4.18
  -2   2   8   47.91    4.18
   1  -2  -8    7.86    1.10
  -1  -2   8    4.76    0.78
  -1  -2   8    4.63    0.88
   1   2  -8    4.84    0.79
   1   2  -8    4.97    0.78
   1   2  -8    5.19    0.81
  -1   2   8    6.67    1.03
   0  -2   8   48.18    3.62
   0  -2  -8   36.50    3.74
   0  -2   8   48.76    3.82
   0   2  -8   46.65    3.59
   0   2  -8   46.84    3.77
   1  -2   8    1.54    0.54
  -1  -2  -8    0.72    0.41
  -1  -2  -8    0.79    0.50
   1  -2   8    1.56    0.69
   1   2   8    0.43    0.69
  -1   2  -8    1.51    0.59
  -1   2  -8    2.03    0.55
   1   2   8    0.67    0.52
   2  -2   8  196.95   16.32
   2  -2   8  223.91   15.75
  -2  -2  -8  202.49   15.71
   2   2   8  201.54   16.34
  -2   2  -8  207.30   16.32
   2   2   8  214.63   15.72
   3  -2   8    2.83    0.62
   3  -2   8    2.87    0.77
   3   2   8    4.55    0.85
  -3   2  -8    2.67    0.63
   4  -2   8  196.62   13.55
   4  -2   8  178.50   14.06
   4   2   8  165.34   14.06
   4   2   8  180.33   13.50
  -4   2  -8  171.41   14.03
   5  -2   8    0.23    0.66
   5  -2   8    0.81    0.54
   5   2   8   -0.72    0.74
   5   2   8    0.16    0.44
  -5   2  -8    0.18    0.52
   6  -2   8   33.30    2.77
   6  -2   8   33.66    2.60
  -6   2  -8   31.74    2.67
   6   2   8   26.17    2.83
   7  -2   8   18.90    1.84
  -7  -2  -8   17.02    1.73
   7  -2   8   19.12    1.68
   7   2   8   19.66    1.89
  -7   2  -8   17.05    1.67
   7   2   8   17.74    1.88
   8  -2   8    0.48    0.73
   8  -2   8    0.94    0.58
   8   2   8   -0.84    0.77
   9  -2   8   19.70    1.95
   9   2   8   19.90    2.00
  10  -2   8    0.77    0.79
  10   2   8    2.26    0.87
  11  -2   8   31.27    2.60
  11   2   8   26.43    2.62
  12  -2   8    1.31    0.75
  12   2   8    1.61    0.83
  13   2   8    7.00    1.12
  14   3  -8    0.90    0.91
  13  -3  -8    0.30    0.79
  13   3  -8    0.64    0.89
  12  -3  -8    2.30    0.85
  12   3  -8    4.59    1.06
  12   3  -8    4.55    1.05
  11  -3  -8    0.80    0.78
  11  -3  -8   -0.36    0.78
  11   3  -8    0.15    0.82
  11   3  -8   -0.33    0.82
  10  -3  -8   11.91    1.43
  10  -3  -8   11.06    1.51
   9  -3  -8   -0.14    0.69
   9  -3  -8    0.31    0.72
   9   3  -8    0.32    0.76
   9   3  -8    0.85    0.74
  -8  -3   8    9.67    1.33
   8   3  -8   10.41    1.37
   8   3  -8   11.48    1.44
   8   3  -8   10.91    1.37
   7  -3  -8    5.92    0.95
   7  -3  -8    5.82    0.88
   7  -3  -8    4.64    0.91
  -7  -3   8    8.47    1.22
  -7   3   8    5.19    0.88
   6  -3  -8   22.50    2.17
   6  -3  -8   22.32    2.14
   6  -3  -8   25.28    2.24
  -6  -3   8   24.48    2.23
  -6   3   8   21.42    2.17
   6   3  -8   24.05    2.14
   6   3  -8   24.12    2.20
   6   3  -8   23.66    2.20
   5  -3  -8    6.93    1.05
   5  -3  -8    7.66    1.15
  -5   3   8    6.14    0.95
  -5   3   8    6.11    0.96
   4  -3  -8    9.84    1.15
  -4  -3   8    8.50    1.19
  -4  -3   8    7.23    1.26
   4  -3  -8    9.21    1.27
   4   3  -8    8.44    1.20
   4   3  -8    9.12    1.25
  -4   3   8    9.61    1.28
   4   3  -8   10.01    1.17
  -4   3   8    9.12    1.24
  -3  -3   8   32.70    2.67
  -3  -3   8   31.68    2.77
   3   3  -8   30.59    2.74
   3   3  -8   31.07    2.73
   3   3  -8   30.01    2.62
  -2  -3   8   -0.04    0.67
   2  -3  -8   -0.10    0.51
   2  -3  -8    0.35    0.47
  -2  -3   8   -0.01    0.52
  -2   3   8   -0.12    0.56
   2   3  -8    0.65    0.47
   2   3  -8   -0.10    0.57
   2   3  -8    0.06    0.53
  -2   3   8   -0.17    0.65
  -1  -3   8    7.01    1.14
  -1  -3   8    7.94    1.05
   1   3  -8    7.24    0.96
   1   3  -8    7.18    1.06
   1   3  -8    7.77    1.16
   0  -3  -8   84.38    7.02
   0  -3   8   92.70    7.34
   0  -3   8   98.73    7.07
   0  -3  -8   90.73    7.32
   0   3  -8   94.02    7.05
   0   3  -8   91.12    7.31
   0   3   8   84.40    7.33
   0   3   8   86.61    7.03
   0   3  -8  101.56    7.34
   1  -3   8    0.67    0.69
  -1  -3  -8    0.60    0.39
  -1  -3  -8    0.48    0.53
   1  -3   8    0.20    0.50
  -1   3  -8    0.04    0.49
  -1   3  -8   -0.06    0.53
   1   3   8    0.53    0.48
   1   3   8    0.11    0.68
   2  -3   8    8.97    1.06
  -2  -3  -8    8.31    0.89
   2  -3   8    8.80    1.22
   2   3   8    6.08    1.05
   2   3   8    8.87    0.97
  -2   3  -8    9.25    1.10
   3  -3   8    1.80    0.70
   3  -3   8    1.41    0.55
  -3   3  -8    1.37    0.58
   3   3   8    1.54    0.49
   3   3   8    1.04    0.74
   4  -3   8    2.93    0.80
   4  -3   8    4.08    0.65
   4   3   8    2.59    0.83
   4   3   8    3.60    0.56
  -4   3  -8    3.32    0.69
   5  -3   8   27.09    2.75
   5  -3   8   33.47    2.64
   5   3   8   38.10    2.91
   5   3   8   32.66    2.83
  -5   3  -8   29.28    2.70
   6  -3   8   16.47    1.49
   6  -3   8   13.49    1.57
  -6   3  -8   13.84    1.46
   6   3   8   15.84    1.74
   6   3   8   13.81    1.67
   7  -3   8    2.51    0.67
   7  -3   8    2.58    0.79
   7   3   8    3.97    0.92
  -7   3  -8    2.41    0.57
   7   3   8    3.21    0.89
   8  -3   8    4.95    0.91
   8   3   8    4.48    0.99
   9  -3   8    0.62    0.77
   9   3   8    1.46    0.89
  10  -3   8    2.10    0.78
  10   3   8    1.42    0.87
  11  -3   8    0.56    0.73
  11   3   8    0.45    0.87
  12  -3   8    0.05    0.76
  12   3   8    0.75    0.84
  13   3   8   -0.63    0.81
  13  -4  -8    4.28    0.93
  13   4  -8    3.63    1.04
  12  -4  -8    4.53    0.98
  12   4  -8    6.86    1.16
  12   4  -8    6.87    1.20
  11  -4  -8   14.71    1.61
  11  -4  -8   12.41    1.69
  11   4  -8   14.62    1.70
  11   4  -8   15.97    1.74
  10  -4  -8    0.86    0.74
  10  -4  -8    0.71    0.74
  10   4  -8    0.43    0.82
  10   4  -8    0.46    0.76
   9  -4  -8   25.35    2.46
   9  -4  -8   21.79    2.45
   9   4  -8   30.45    2.52
   9   4  -8   32.35    2.56
   8  -4  -8    4.40    0.85
   8  -4  -8    5.23    0.81
  -8  -4   8    2.43    0.80
   8   4  -8    2.60    0.80
   8   4  -8    3.02    0.86
   8   4  -8    3.19    0.81
   7  -4  -8   29.93    2.99
  -7  -4   8   40.36    3.07
   7  -4  -8   33.40    3.04
   7   4  -8   39.13    3.00
   7   4  -8   38.55    3.07
  -7   4   8   28.96    2.96
  -6  -4   8    7.75    1.27
   6   4  -8    7.28    1.05
   6   4  -8    7.73    1.20
   6   4  -8    7.86    1.17
   5  -4  -8    7.08    1.14
   5  -4  -8    7.59    1.31
  -5  -4   8   11.91    1.36
  -5   4   8    7.52    1.30
   5   4  -8   11.07    1.24
   5   4  -8   12.09    1.34
   5   4  -8   10.26    1.26
   4  -4  -8  114.84    8.46
  -4  -4   8  104.52    8.48
   4  -4  -8  109.00    8.19
  -4  -4   8  100.33    8.20
   4   4  -8  100.83    8.18
  -4   4   8  108.90    8.46
   4   4  -8  101.29    8.45
   4   4  -8  101.53    8.46
  -4   4   8  112.32    8.21
  -3  -4   8   23.35    1.99
   3  -4  -8   21.53    1.93
   3  -4  -8   22.09    2.05
  -3  -4   8   21.19    2.08
  -3   4   8   20.31    2.05
   3   4  -8   22.16    2.02
  -3   4   8   20.08    1.96
   3   4  -8   21.65    1.93
   3   4  -8   21.59    2.03
  -2  -4   8   87.97    7.24
   2  -4  -8   89.67    7.21
   2  -4  -8   90.66    6.95
  -2  -4   8   90.31    6.97
   2   4  -8   87.35    6.96
  -2   4   8   88.21    7.22
   2   4  -8   93.61    7.21
  -2   4   8   93.37    6.98
   2   4  -8   89.40    7.22
  -1  -4   8    5.85    0.81
  -1  -4   8    6.47    0.94
   1  -4  -8    5.19    0.79
   1  -4  -8    5.14    0.74
   1   4  -8    7.34    0.92
  -1   4   8    4.10    0.91
  -1   4   8    4.85    0.80
   1   4  -8    7.05    0.84
   1   4  -8    5.84    0.86
   0  -4   8   78.15    5.46
   0  -4  -8   67.79    5.67
   0  -4  -8   60.96    5.38
   0  -4   8   70.88    5.66
   0   4  -8   72.67    5.44
   0   4  -8   79.56    5.67
   0   4  -8   75.08    5.66
   0   4   8   64.91    5.41
   0   4   8   59.19    5.64
   1  -4   8    1.41    0.55
  -1  -4  -8    1.51    0.56
   1  -4   8    1.79    0.70
  -1  -4  -8    1.55    0.44
   1   4   8    0.70    0.72
   1   4   8    2.03    0.55
  -1   4  -8    1.09    0.58
   2  -4   8   30.49    2.46
  -2  -4  -8   29.26    2.35
   2  -4   8   26.80    2.59
   2   4   8   33.06    2.40
  -2   4  -8   28.65    2.55
   2   4   8   27.85    2.63
   3  -4   8   40.71    3.39
   3  -4   8   37.36    3.55
   3   4   8   49.06    3.32
  -3   4  -8   38.22    3.50
   3   4   8   45.57    3.60
   4  -4   8    3.74    0.85
   4  -4   8    4.00    0.70
   4   4   8    2.64    0.83
  -4   4  -8    4.28    0.72
   4   4   8    2.69    0.91
   5  -4   8   12.79    1.30
   5  -4   8   11.31    1.42
   5   4   8   12.57    1.52
  -5   4  -8   10.59    1.31
   5   4   8   11.89    1.59
   6  -4   8   53.59    3.85
   6  -4   8   48.12    4.00
   6   4   8   42.47    4.01
   6   4   8   48.37    4.07
  -6   4  -8   46.51    3.92
   7  -4   8    8.08    1.15
   7  -4   8    7.53    1.26
  -7   4  -8    6.83    0.97
   7   4   8   11.36    1.47
   7   4   8   10.05    1.34
   8  -4   8    3.37    0.82
   8   4   8    3.28    0.90
   9  -4   8    7.66    1.10
   9   4   8    9.47    1.37
  10  -4   8   15.20    1.67
  10   4   8   16.24    1.79
  11  -4   8    1.78    0.80
  11   4   8    3.05    0.95
  12   4   8    0.27    0.88
  13   4   8    2.97    0.93
  13  -5  -8    0.40    0.77
  13   5  -8    0.42    0.93
  12  -5  -8    0.11    0.78
  12   5  -8    0.78    0.93
  12   5  -8    0.17    0.87
  11  -5  -8    0.98    0.78
  11  -5  -8    0.49    0.81
  11   5  -8    0.86    0.84
  11   5  -8    1.05    0.92
  10  -5  -8    2.03    0.83
  10  -5  -8    2.42    0.81
  10   5  -8    4.39    0.99
   9  -5  -8    1.36    0.73
   9  -5  -8    0.68    0.72
   9   5  -8    0.35    0.76
   9   5  -8    0.87    0.81
  -8  -5   8    2.11    0.78
   8  -5  -8    1.89    0.76
   8  -5  -8    1.82    0.75
   8   5  -8    1.85    0.81
   8   5  -8    2.49    0.80
   8   5  -8    2.41    0.81
   7  -5  -8   13.35    1.49
   7  -5  -8   10.04    1.38
  -7  -5   8   11.65    1.47
  -7   5   8   10.07    1.36
   7   5  -8   10.29    1.41
   7   5  -8   12.47    1.48
   7   5  -8   13.57    1.58
   6  -5  -8    7.85    1.07
  -6  -5   8    4.62    0.96
   6   5  -8    4.85    0.92
  -6   5   8    7.69    1.11
   6   5  -8    4.47    0.90
   6   5  -8    4.68    0.92
   5  -5  -8    8.13    1.07
   5  -5  -8    7.85    1.22
  -5  -5   8    6.06    1.06
   5   5  -8    6.86    1.01
   5   5  -8    6.90    1.04
   5   5  -8    8.11    1.30
  -5   5   8    8.96    1.22
  -4  -5   8    4.29    0.93
  -4  -5   8    4.33    0.79
  -4   5   8    2.87    0.86
   4   5  -8    5.24    0.79
   4   5  -8    4.70    0.88
   4   5  -8    4.99    0.85
  -3  -5   8   41.23    3.44
   3   5  -8   39.79    3.39
   3   5  -8   38.95    3.24
  -2  -5   8   16.67    1.44
   2  -5  -8   10.20    1.31
   2  -5  -8   10.84    1.52
  -2  -5   8   15.24    1.53
  -2   5   8    9.93    1.54
  -2   5   8   10.06    1.38
   2   5  -8   15.87    1.52
   2   5  -8   15.89    1.55
   2   5  -8   16.02    1.37
  -1  -5   8    3.65    0.84
   1  -5  -8    2.98    0.58
   1  -5  -8    2.38    0.64
  -1  -5   8    3.97    0.70
  -1   5   8    2.34    0.81
   1   5  -8    3.28    0.75
   1   5  -8    3.80    0.66
   1   5  -8    3.58    0.68
  -1   5   8    2.91    0.67
   0  -5   8   11.53    1.13
   0  -5  -8    8.21    0.98
   0  -5   8    9.30    1.28
   0  -5  -8    8.48    1.25
   0   5  -8   10.19    1.24
   0   5   8    7.14    1.14
   0   5  -8    9.52    1.16
   0   5   8    7.50    1.07
  -1  -5  -8    5.83    0.75
   1   5   8    4.05    0.89
   1   5   8    5.88    0.83
  -2  -5  -8   -0.06    0.34
   2  -5   8   -0.09    0.49
   2  -5   8    0.17    0.64
   2   5   8   -0.18    0.46
  -2   5  -8    0.61    0.56
   2   5   8    0.12    0.68
   2   5   8   -0.31    0.72
   3   5   8    6.73    1.11
   3   5   8    7.56    1.24
   3   5   8    8.14    0.85
   4  -5   8   85.86    6.85
  -4   5  -8   84.82    6.82
   5  -5   8    6.64    0.99
   5  -5   8    8.11    1.08
   5   5   8    6.04    1.08
  -5   5  -8    6.14    1.01
   5   5   8    5.85    1.07
   6  -5   8    4.14    0.76
   6  -5   8    3.49    0.85
   6   5   8    2.93    0.95
   6   5   8    5.40    1.00
  -6   5  -8    3.29    0.67
   7  -5   8    2.39    0.78
   7   5   8   -0.03    0.80
   7   5   8    0.91    0.85
   8  -5   8    7.67    1.14
   8   5   8    6.01    1.13
   9  -5   8    1.16    0.76
   9   5   8    0.92    0.89
  10  -5   8    1.89    0.81
  10   5   8    1.25    0.92
  11  -5   8    1.49    0.77
  11   5   8    0.62    0.94
  12   5   8    6.71    1.17
  13   5   8    1.06    0.92
  13  -6  -8    5.04    0.95
  13   6  -8    4.84    1.11
  12  -6  -8    0.66    0.79
  12   6  -8    1.16    0.96
  12   6  -8    1.20    0.92
  11  -6  -8   21.70    1.90
  11  -6  -8   19.61    1.98
  11   6  -8   16.41    1.97
  11   6  -8   14.87    1.94
  10  -6  -8    4.77    1.04
  10  -6  -8    5.90    0.94
  10   6  -8    4.45    1.07
  10   6  -8    4.83    1.05
   9   6  -8   12.64    1.59
   9   6  -8   13.49    1.60
   8  -6  -8    9.98    1.18
   8  -6  -8    8.40    1.23
  -8  -6   8    6.88    1.10
   8   6  -8    6.74    1.13
   8   6  -8    8.50    1.38
   8   6  -8    6.91    1.10
  -7  -6   8   48.20    4.24
   7  -6  -8   60.42    4.21
   7   6  -8   46.93    4.13
  -7   6   8   55.08    4.18
   7   6  -8   45.39    4.22
   7   6  -8   48.06    4.26
  -6  -6   8    1.53    0.78
   6  -6  -8    0.91    0.62
   6  -6  -8    1.06    0.69
  -6   6   8    0.55    0.71
   6   6  -8    1.63    0.76
   6   6  -8    1.78    0.72
   6   6  -8    0.97    0.66
  -5  -6   8    1.76    0.81
   5  -6  -8    1.67    0.68
   5  -6  -8    1.38    0.63
   5   6  -8    2.01    0.67
  -5   6   8    1.48    0.75
   5   6  -8    2.11    0.75
   5   6  -8    2.17    0.72
  -4  -6   8   19.23    1.97
  -4  -6   8   19.14    1.86
   4   6  -8   19.82    1.93
   4   6  -8   19.74    1.91
   4   6  -8   19.12    1.81
  -3  -6   8   26.66    2.44
  -3  -6   8   29.32    2.60
   3   6  -8   28.36    2.43
   3   6  -8   29.33    2.58
   3   6  -8   29.13    2.59
   2  -6  -8   35.15    2.74
  -2  -6   8   27.68    2.70
  -2  -6   8   29.08    2.59
   2  -6  -8   31.97    2.53
   2   6  -8   27.97    2.66
   2   6  -8   29.55    2.68
   2   6  -8   25.65    2.52
  -2   6   8   33.70    2.59
  -2   6   8   33.43    2.73
  -1  -6   8   21.90    2.17
  -1  -6   8   23.00    2.02
   1   6  -8   24.47    2.16
   1   6  -8   21.26    1.98
   1   6  -8   22.92    2.13
   0  -6  -8   48.50    3.82
   0  -6   8   47.54    3.89
   0  -6   8   44.41    4.07
   0  -6  -8   52.20    4.10
   0   6   8   47.87    4.08
   0   6   8   50.75    3.86
   0   6   8   51.30    4.14
   0   6  -8   47.34    4.04
  -1  -6  -8    6.88    0.81
   1   6   8    5.97    1.00
   1   6   8    6.55    1.03
   1   6   8    7.42    0.91
  -2  -6  -8   54.89    4.23
   2  -6   8   53.61    4.33
   2  -6   8   49.45    4.50
   2   6   8   60.74    4.61
   2   6   8   58.19    4.26
  -2   6  -8   53.34    4.49
   2   6   8   54.04    4.55
   3  -6   8    3.36    0.81
   3  -6   8    3.65    0.69
  -3   6  -8    4.06    0.74
   4  -6   8   39.74    2.91
   4  -6   8   35.15    3.01
  -4   6  -8   34.60    2.95
   4   6   8   28.84    3.08
   5  -6   8   62.21    5.00
  -5   6  -8   63.73    4.96
   5   6   8   57.13    5.09
   6  -6   8   10.62    1.26
   6  -6   8    8.86    1.32
   6   6   8    9.39    1.40
   6   6   8   12.19    1.50
  -6   6  -8    9.13    1.18
   7  -6   8    6.43    0.95
   7   6   8    4.13    1.01
   7   6   8    5.01    1.02
   8  -6   8   -0.49    0.71
   8   6   8   -0.79    0.82
   9  -6   8   21.70    2.11
   9   6   8   21.65    2.22
  10  -6   8    3.00    0.85
  10   6   8    4.07    1.02
  11  -6   8    1.61    0.78
  11   6   8    1.97    0.95
  12   6   8    2.46    1.02
  13   6   8    5.39    1.13
  13  -7  -8    1.97    0.81
  13   7  -8    1.79    1.01
  12  -7  -8    1.16    0.80
  12   7  -8    2.91    1.03
  11  -7  -8    0.78    0.83
  11  -7  -8    0.79    0.78
  11   7  -8    0.32    0.91
  11   7  -8   -0.45    0.79
  10  -7  -8    7.62    1.17
  10  -7  -8    6.25    1.14
   9  -7  -8    8.57    1.25
   9  -7  -8    8.72    1.32
   9   7  -8    9.32    1.34
   9   7  -8    8.34    1.36
  -8  -7   8   60.51    5.12
   8   7  -8   61.66    5.16
   8   7  -8   64.42    5.03
  -7  -7   8    4.34    1.02
   7  -7  -8    8.40    1.10
  -7   7   8    7.25    1.09
   7   7  -8    4.56    1.01
   7   7  -8    5.60    0.99
   7   7  -8    5.15    0.94
   6  -7  -8    6.94    1.16
  -6  -7   8   10.15    1.36
   6  -7  -8    6.66    1.01
   6   7  -8   10.83    1.41
   6   7  -8    8.73    1.19
   6   7  -8   10.48    1.30
  -6   7   8    6.08    1.05
  -5  -7   8    7.49    1.14
   5   7  -8    8.90    1.11
   5   7  -8    7.84    1.05
   5   7  -8    7.68    1.22
  -4  -7   8    2.41    0.84
   4   7  -8    2.34    0.65
   4   7  -8    2.83    0.80
   4   7  -8    3.21    0.74
  -4   7   8    0.20    0.74
  -3  -7   8   36.10    3.09
  -3  -7   8   37.44    3.24
   3   7  -8   35.30    3.03
   3   7  -8   37.38    3.19
   3   7  -8   38.53    3.22
  -2  -7   8    5.76    1.03
  -2  -7   8    5.55    0.88
   2  -7  -8    8.34    1.00
   2  -7  -8    7.72    1.24
   2   7  -8    5.98    0.99
   2   7  -8    5.65    0.92
  -2   7   8    8.77    1.10
  -2   7   8    8.86    1.22
  -1  -7   8    7.38    1.06
   1  -7  -8   11.20    1.35
   1  -7  -8    8.47    0.99
  -1  -7   8    7.82    1.13
  -1  -7   8    7.83    1.32
   1   7  -8    7.96    1.20
  -1   7   8    8.84    1.12
  -1   7   8    9.64    1.27
   0  -7   8   -0.43    0.68
   0  -7   8    0.06    0.62
   0  -7  -8    0.57    0.41
   0  -7   8   -0.16    0.51
   0  -7  -8    0.70    0.58
   0   7  -8   -0.07    0.59
   0   7   8    0.19    0.73
   0   7   8    0.19    0.55
  -1  -7  -8    6.81    0.81
   1   7   8    6.50    1.01
   1   7   8    7.59    0.92
   1   7   8    6.19    1.04
  -2  -7  -8    2.66    0.44
   2  -7   8    2.44    0.79
   2  -7   8    2.15    0.61
   2   7   8    2.11    0.84
  -2   7  -8    2.14    0.66
   2   7   8    1.36    0.79
   3  -7   8   12.73    1.39
   3  -7   8   12.21    1.54
  -3   7  -8   12.21    1.45
   3   7   8   16.54    1.71
   3   7   8   13.12    1.60
   4  -7   8    3.79    0.75
   4  -7   8    3.05    0.86
  -4   7  -8    3.14    0.72
   4   7   8    5.19    1.01
   4   7   8    4.16    0.95
   5  -7   8    1.16    0.65
   5  -7   8    0.65    0.79
  -5   7  -8    0.99    0.61
   5   7   8    1.58    0.84
   5   7   8    1.64    0.88
   6  -7   8    1.84    0.82
  -6   7  -8    2.14    0.61
   6   7   8    2.12    0.90
   6   7   8    3.03    0.91
   7  -7   8    0.96    0.78
   7   7   8   -0.08    0.85
   7   7   8    0.17    0.80
   8  -7   8    1.75    0.79
   8   7   8    2.58    0.98
   9  -7   8    2.63    0.85
   9   7   8    1.10    0.97
  10  -7   8   12.52    1.47
  10   7   8   11.11    1.65
  11  -7   8    1.59    0.76
  11   7   8    1.28    0.99
  12   7   8    1.14    0.91
  13   7   8    0.71    0.95
  13  -8  -8    3.78    0.90
  12  -8  -8   -0.27    0.74
  12   8  -8    0.28    0.95
  11  -8  -8    1.61    0.80
  11   8  -8    1.62    0.89
  11   8  -8    1.91    0.98
  10  -8  -8    2.94    0.94
  10  -8  -8    3.90    0.91
  10   8  -8    2.10    0.89
  10   8  -8    2.85    1.00
   9  -8  -8    2.73    0.89
   9   8  -8    4.98    0.98
   9   8  -8    4.97    1.06
   8  -8  -8   18.90    1.89
  -8  -8   8   18.91    1.93
   8   8  -8   17.08    1.95
   8   8  -8   18.98    1.90
   7  -8  -8    7.15    1.19
  -7  -8   8   10.02    1.38
   7  -8  -8    7.31    1.07
   7   8  -8    9.02    1.36
   7   8  -8    9.67    1.25
   7   8  -8   10.66    1.24
  -7   8   8    7.03    1.19
  -6  -8   8   39.11    3.55
   6  -8  -8   46.90    3.44
   6   8  -8   38.31    3.52
   6   8  -8   41.39    3.58
   6   8  -8   35.57    3.36
  -6   8   8   43.86    3.46
   5  -8  -8   -0.12    0.59
  -5  -8   8    0.73    0.81
   5  -8  -8   -0.07    0.59
   5   8  -8    0.70    0.72
   5   8  -8    0.89    0.62
  -5   8   8   -0.37    0.70
   5   8  -8    1.01    0.74
   4  -8  -8   41.02    3.22
   4  -8  -8   44.66    3.37
  -4  -8   8   38.34    3.38
  -4   8   8   39.87    3.33
   4   8  -8   33.82    3.17
   4   8  -8   34.88    3.33
  -3  -8   8    1.95    0.85
  -3  -8   8    2.44    0.68
   3  -8  -8    4.27    0.76
   3  -8  -8    4.59    0.75
  -3   8   8    3.98    0.88
   3   8  -8    2.70    0.67
   3   8  -8    1.85    0.78
  -2  -8   8   86.39    6.72
   2  -8  -8   96.37    6.98
   2  -8  -8   88.20    6.69
  -2  -8   8   81.67    6.97
  -2   8   8   89.32    6.97
   2   8  -8   82.96    6.95
   2   8  -8   78.54    6.68
   1  -8  -8    2.90    0.59
   1  -8  -8    3.41    0.67
  -1  -8   8    0.65    0.79
  -1   8   8    2.68    0.80
   1   8  -8    1.07    0.71
   0  -8   8    8.00    1.22
   0  -8  -8    7.98    0.92
   0  -8   8    6.99    1.10
   0  -8   8    8.14    1.08
   0   8   8    7.37    1.13
   0   8  -8    7.91    1.07
   1  -8   8   12.76    1.53
  -1  -8  -8   10.25    1.17
   1  -8   8   15.08    1.40
   1  -8   8   13.85    1.50
   1   8   8   10.13    1.48
  -1   8  -8   13.99    1.45
   2  -8   8    2.38    0.77
   2  -8   8    2.26    0.69
   2  -8   8    2.05    0.60
   2   8   8    0.24    0.79
  -2   8  -8    2.00    0.67
   2   8   8    0.14    0.77
   3  -8   8    1.70    0.80
   3  -8   8    2.93    0.66
   3   8   8    0.86    0.85
  -3   8  -8    2.17    0.69
   3   8   8    0.45    0.83
   4  -8   8    2.55    0.70
   4  -8   8    2.98    0.84
  -4   8  -8    2.76    0.70
   5  -8   8   35.14    2.76
   5  -8   8   30.52    2.82
  -5   8  -8   29.99    2.74
   6  -8   8    0.38    0.75
  -6   8  -8    0.48    0.55
   6   8   8    0.06    0.82
   6   8   8   -0.17    0.81
   7  -8   8    1.77    0.84
   7   8   8    2.16    0.91
   7   8   8    1.75    0.88
   8  -8   8    1.02    0.80
   8   8   8    1.05    0.93
   9  -8   8   15.89    1.86
   9   8   8   21.24    2.05
  10  -8   8    3.23    0.87
  10   8   8    4.97    1.14
  11  -8   8    4.72    0.91
  11   8   8    5.81    1.19
  12   8   8    0.01    0.91
  12  -9  -8    0.36    0.77
  12   9  -8    0.38    0.95
  11  -9  -8    0.09    0.75
  11   9  -8   -0.10    0.94
  11   9  -8   -0.21    0.79
  10  -9  -8    0.39    0.76
  10  -9  -8    0.60    0.76
  10   9  -8    1.24    0.94
  10   9  -8    1.21    0.83
   9  -9  -8    1.09    0.75
   9   9  -8    1.37    0.92
   9   9  -8    1.67    0.80
  -8  -9   8   12.80    1.60
   8   9  -8   12.49    1.52
   8   9  -8   14.22    1.67
  -7  -9   8    0.28    0.79
   7  -9  -8    0.86    0.65
   7  -9  -8    0.36    0.64
  -7   9   8    0.35    0.67
   7   9  -8    0.76    0.70
   7   9  -8    0.35    0.79
   6  -9  -8   20.38    2.05
  -6  -9   8   21.83    2.09
   6  -9  -8   18.98    1.91
   6   9  -8   19.38    1.91
   6   9  -8   21.51    2.06
  -6   9   8   17.62    1.96
   5  -9  -8    1.64    0.70
   5  -9  -8    2.70    0.71
  -5  -9   8    1.25    0.85
  -5   9   8    1.97    0.79
   5   9  -8    1.95    0.80
   5   9  -8    1.28    0.64
   4  -9  -8   11.02    1.49
   4  -9  -8    9.59    1.22
  -4   9   8   10.31    1.42
   3  -9  -8   17.35    1.86
   3  -9  -8   15.07    1.66
  -3  -9   8   19.42    1.91
   3   9  -8   19.79    1.89
   3   9  -8   18.43    1.71
  -3   9   8   17.22    1.87
   2  -9  -8   23.67    2.13
  -2  -9   8   25.89    2.21
   2  -9  -8   22.89    2.30
  -2  -9   8   25.34    2.35
  -2   9   8   22.56    2.33
   2   9  -8   25.84    2.32
   1  -9  -8    5.07    0.77
   1  -9  -8    4.30    0.82
  -1  -9   8    8.11    1.09
  -1  -9   8    6.80    1.07
  -1   9   8    4.38    0.97
   0  -9   8    9.59    1.43
   0  -9   8   11.76    1.27
   0  -9   8   10.71    1.43
   0   9   8    7.82    1.36
   0   9  -8    9.71    1.34
   1  -9   8   20.89    1.91
   1  -9   8   19.33    2.04
   1  -9   8   21.18    2.06
  -1   9  -8   20.29    1.99
   2  -9   8   -0.14    0.53
   2  -9   8   -0.54    0.72
   2  -9   8   -0.03    0.69
  -2  -9  -8   -0.06    0.34
  -2   9  -8   -0.60    0.62
   2   9   8   -0.09    0.81
   3  -9   8   47.20    4.01
   3  -9   8   50.08    3.89
   3  -9   8   46.95    4.04
  -3   9  -8   46.76    3.99
   4  -9   8    8.41    1.20
   4  -9   8    6.51    1.10
  -4   9  -8    7.86    1.18
   6  -9   8    1.08    0.79
  -6   9  -8    1.16    0.57
   6   9   8    0.58    0.83
   6   9   8   -0.11    0.83
   7  -9   8    6.12    1.05
   7   9   8    6.63    1.13
   8  -9   8    3.95    0.93
   8   9   8    3.64    1.04
   9  -9   8    9.05    1.32
   9   9   8    8.68    1.35
  10  -9   8   12.36    1.38
  10   9   8    7.62    1.41
  11  -9   8    0.13    0.73
  11   9   8   -0.90    0.91
  12   9   8    5.92    1.22
  12 -10  -8    3.73    0.92
  12  10  -8    6.76    1.24
  11 -10  -8    2.72    0.86
  11  10  -8    1.08    0.88
  11  10  -8    1.98    1.04
  10 -10  -8    1.86    0.86
  10  10  -8    0.35    0.82
  10  10  -8    0.99    0.94
   9  10  -8    4.88    1.08
   9  10  -8    5.24    1.01
   8 -10  -8   -0.41    0.64
  -8 -10   8   -0.21    0.75
   8  10  -8   -0.04    0.68
   8  10  -8   -0.35    0.84
   7 -10  -8   20.21    1.76
  -7 -10   8   15.42    1.81
   7  10  -8   14.60    1.71
   7  10  -8   15.97    1.86
   6 -10  -8   13.71    1.47
   6 -10  -8   13.62    1.58
  -6 -10   8   12.41    1.65
   6  10  -8   12.01    1.42
  -6  10   8   11.77    1.49
   6  10  -8   13.28    1.57
   5 -10  -8   17.64    1.77
   5 -10  -8   16.80    1.63
  -5 -10   8   14.89    1.80
   5  10  -8   13.02    1.57
  -5  10   8   15.45    1.72
   5  10  -8   16.15    1.76
   4 -10  -8    9.47    1.29
   4 -10  -8    8.63    1.08
  -4 -10   8    5.82    1.11
   4  10  -8    5.90    1.07
  -4  10   8    8.93    1.31
   4  10  -8    5.84    0.94
   3 -10  -8    1.11    0.64
  -3 -10   8    0.18    0.80
   3 -10  -8    0.75    0.58
   3  10  -8   -0.58    0.71
  -3  10   8    0.03    0.84
   3  10  -8    0.39    0.55
   2 -10  -8   65.94    5.24
   2 -10  -8   68.65    5.49
  -2  10   8   65.68    5.48
  -1 -10   8    4.07    0.80
   1 -10  -8    4.64    0.72
  -1 -10   8    3.27    0.93
   1  10  -8    5.04    0.92
  -1  10   8    4.60    0.99
   0 -10   8   45.60    3.61
   0 -10   8   39.94    3.72
   0  10  -8   45.97    3.75
   1 -10   8    3.66    0.93
   1 -10   8    4.22    0.87
  -1  10  -8    4.08    0.84
   2 -10   8    4.57    0.95
   2 -10   8    4.17    0.79
  -2 -10  -8    4.56    0.66
   2 -10   8    4.48    0.92
   2  10   8    4.02    0.97
  -2  10  -8    4.00    0.85
   3 -10   8   20.40    1.95
   3 -10   8   20.06    1.87
   3 -10   8   19.59    1.96
   3  10   8   15.16    1.95
  -3  10  -8   18.79    1.90
   4 -10   8    4.94    0.89
   4 -10   8    5.44    0.99
  -4  10  -8    5.10    0.86
   4  10   8    2.08    0.95
   5 -10   8    2.48    0.88
  -5  10  -8    2.58    0.69
   5  10   8    2.54    0.92
   6  10   8    4.09    1.01
   6  10   8    3.37    0.97
   7  10   8    6.38    1.16
   8 -10   8    0.25    0.79
   8  10   8    1.44    0.95
   9 -10   8    3.86    0.94
   9  10   8    4.56    1.13
  10 -10   8   -0.35    0.76
  10  10   8    0.21    0.91
  11 -10   8   -0.03    0.76
  11  10   8    0.95    0.98
  12  10   8   -0.12    0.94
  12 -11  -8    0.56    0.77
  11 -11  -8    0.38    0.78
  11  11  -8   -0.08    0.82
  11  11  -8   -0.25    0.96
  10  11  -8    4.54    1.15
  10  11  -8    4.25    1.00
   9 -11  -8    0.64    0.72
   9  11  -8    0.71    0.77
   9  11  -8    0.90    0.92
   8 -11  -8    1.23    0.76
  -8 -11   8    3.76    0.98
   8  11  -8    3.41    0.86
   8  11  -8    3.89    1.00
   7 -11  -8    0.44    0.67
  -7 -11   8    1.10    0.84
   7  11  -8    1.98    0.76
   7  11  -8    1.40    0.90
  -6 -11   8    0.83    0.84
   6 -11  -8    1.31    0.67
   6 -11  -8    0.99    0.66
   6  11  -8    0.51    0.64
  -6  11   8    0.35    0.69
   6  11  -8    0.76    0.82
   5 -11  -8   10.65    1.28
   5 -11  -8   11.49    1.50
  -5  11   8    9.83    1.46
  -4 -11   8    7.53    1.17
   4  11  -8    7.87    1.15
   4  11  -8    6.67    1.05
   3 -11  -8   21.36    2.06
   3 -11  -8   17.72    1.81
  -3  11   8   20.43    2.05
  -2 -11   8    1.81    0.88
   2 -11  -8    3.31    0.66
   2  11  -8    2.95    0.87
  -2  11   8    2.24    0.93
   1 -11  -8   16.69    1.56
  -1  11   8   16.16    1.82
   0 -11  -8  102.87    8.10
   0 -11   8  105.83    8.49
   0  11  -8  112.83    8.49
   0  11   8  101.04    8.48
   1 -11   8   27.12    2.48
   1 -11   8   22.80    2.42
  -1 -11  -8   28.27    2.15
  -1  11  -8   24.92    2.43
   1  11   8   25.90    2.50
   2 -11   8   -0.53    0.76
   2 -11   8   -0.19    0.73
  -2 -11  -8   -0.33    0.34
   2  11   8   -0.51    0.84
  -2  11  -8   -0.70    0.68
   3 -11   8   15.62    1.81
   3 -11   8   18.29    1.92
   3  11   8   17.31    1.86
  -3  11  -8   16.24    1.77
   4 -11   8    1.62    0.79
   4 -11   8    0.32    0.78
   4  11   8    0.56    0.90
  -4  11  -8    0.82    0.68
   5 -11   8   23.44    2.28
   5 -11   8   24.18    2.24
   5  11   8   23.77    2.35
  -5  11  -8   23.24    2.16
   6 -11   8    4.55    0.98
   6  11   8    3.29    1.06
   7 -11   8   13.87    1.51
   7  11   8    8.82    1.48
   8 -11   8   18.17    1.78
   8  11   8   13.21    1.85
   9 -11   8    2.75    0.85
   9  11   8    0.16    0.90
  10 -11   8    4.42    0.93
  10  11   8    3.16    1.13
  11 -11   8    1.17    0.75
  11  11   8    0.89    0.97
  12 -12  -8    0.75    0.80
  11 -12  -8    1.35    0.79
  11  12  -8    2.64    0.92
  11  12  -8    2.01    1.09
  10  12  -8    1.08    0.80
  10  12  -8    1.31    0.99
   9 -12  -8   -0.59    0.70
   9  12  -8   -0.26    0.92
   9  12  -8   -0.15    0.74
   8 -12  -8    1.68    0.76
   8  12  -8    0.23    0.87
   8  12  -8    0.23    0.72
  -7 -12   8    5.39    1.06
   7 -12  -8    3.10    0.86
   7  12  -8    4.89    0.91
   7  12  -8    5.03    1.07
  -6 -12   8   24.53    2.47
   6 -12  -8   28.87    2.43
   6 -12  -8   25.77    2.32
  -6  12   8   23.36    2.34
   6  12  -8   23.53    2.44
   6  12  -8   25.06    2.29
   5 -12  -8    2.38    0.73
  -5 -12   8    1.90    0.91
   5 -12  -8    2.97    0.72
   5  12  -8    2.54    0.74
  -5  12   8    2.42    0.85
   5  12  -8    2.46    0.91
   4 -12  -8    1.27    0.63
   4 -12  -8    1.52    0.66
  -4 -12   8    2.85    0.95
  -4  12   8    1.29    0.88
   4  12  -8    3.26    0.95
  -3 -12   8    1.77    0.88
   3 -12  -8    3.28    0.74
   3 -12  -8    3.75    0.73
  -3  12   8    2.92    0.93
   3  12  -8    1.77    0.88
   2 -12  -8    3.03    0.68
  -2 -12   8    6.33    1.04
  -2  12   8    2.66    0.98
   1 -12  -8   20.72    1.72
  -1 -12   8   15.21    1.89
   1  12  -8   17.67    1.94
  -1  12   8   19.50    2.02
   0 -12  -8    0.80    0.48
   0 -12   8    1.10    0.82
   0  12   8   -0.74    0.86
   0  12  -8    0.51    0.77
  -1 -12  -8    0.98    0.47
   1 -12   8    1.38    0.83
   1  12   8    0.18    0.88
  -1  12  -8    1.64    0.80
   2 -12   8    3.42    0.92
   2 -12   8    4.54    0.92
  -2 -12  -8    3.90    0.55
  -2  12  -8    3.79    0.89
   2  12   8    4.10    1.03
   3 -12   8    1.34    0.83
   3 -12   8    1.32    0.83
   3  12   8    0.89    0.93
  -3  12  -8    1.66    0.76
   4 -12   8   14.43    1.67
   4 -12   8   14.98    1.71
  -4  12  -8   15.12    1.59
   4  12   8   12.94    1.76
   5 -12   8    1.99    0.86
   5 -12   8    3.19    0.87
  -5  12  -8    2.69    0.72
   5  12   8    0.28    0.94
   6 -12   8    3.79    0.92
   6  12   8    1.49    1.01
   7 -12   8   17.04    1.91
   7  12   8   19.81    2.09
   8 -12   8    1.40    0.86
   8  12   8    2.77    1.11
   9 -12   8   -0.36    0.78
   9  12   8    0.29    0.91
  10 -12   8   -0.62    0.77
  10  12   8   -0.35    0.90
  11 -12   8    8.73    1.31
  11  12   8   10.25    1.65
  12 -13  -8    2.17    0.88
  11  13  -8   -0.10    1.01
  10  13  -8    7.04    1.31
  10  13  -8    6.66    1.16
   9 -13  -8    2.53    0.88
   9  13  -8    4.01    0.96
   9  13  -8    4.67    1.15
   8 -13  -8   13.38    1.75
   8  13  -8   19.49    1.80
   8  13  -8   17.24    1.94
  -7 -13   8   11.09    1.68
   7 -13  -8   15.59    1.57
   7  13  -8   12.31    1.71
   7  13  -8   12.76    1.50
  -6 -13   8    7.32    1.22
   6  13  -8    7.03    1.05
   6  13  -8    7.01    1.22
   5 -13  -8    1.48    0.70
  -5 -13   8    0.59    0.86
   5 -13  -8    1.44    0.69
   5  13  -8    0.95    0.87
  -5  13   8    0.99    0.80
   4 -13  -8    0.52    0.66
  -4 -13   8    1.06    0.89
   4 -13  -8    0.31    0.59
  -4  13   8   -0.67    0.84
   4  13  -8    1.37    0.87
  -3  13   8   34.01    3.10
   2 -13  -8    5.18    0.80
  -2 -13   8    3.14    0.96
   2  13  -8    4.02    0.99
  -2  13   8    4.34    1.04
  -1 -13   8    5.34    1.02
   1  13  -8    4.64    1.00
  -1  13   8    1.72    1.02
   0 -13  -8    9.27    1.03
   0  13   8    7.14    1.24
   1 -13   8   14.52    1.63
  -1 -13  -8   12.23    1.28
   1  13   8   11.57    1.67
  -1  13  -8   15.38    1.63
  -2 -13  -8   51.57    3.50
   2 -13   8   41.48    3.83
   2 -13   8   36.82    3.80
   2  13   8   51.53    3.91
  -2  13  -8   41.06    3.80
   3 -13   8   29.29    2.81
   3 -13   8   31.80    2.86
  -3  13  -8   32.15    2.79
   4 -13   8    6.01    1.06
   4 -13   8    4.79    1.04
   4  13   8    8.07    1.28
  -4  13  -8    7.33    1.13
   5 -13   8    7.93    1.19
   5 -13   8    9.36    1.40
  -5  13  -8    7.66    1.14
   6 -13   8    3.90    0.99
   6  13   8    6.65    1.23
   7 -13   8    1.95    0.88
   7  13   8    0.39    0.92
   8 -13   8    4.92    1.02
   8  13   8    5.18    1.23
   9 -13   8   -0.62    0.79
   9  13   8   -0.28    0.94
  10 -13   8    6.89    1.04
  10  13   8    4.28    1.25
  11 -13   8    1.14    0.81
  12 -14  -8    0.67    0.82
  10  14  -8    0.90    0.84
  10  14  -8    0.98    1.02
   9 -14  -8    2.46    0.87
   9  14  -8    2.18    0.85
   9  14  -8    2.21    1.03
   8 -14  -8    0.04    0.71
   8  14  -8    0.77    0.75
   8  14  -8   -0.11    0.94
   7 -14  -8    5.38    0.95
  -7 -14   8    2.34    0.98
   7  14  -8    1.95    1.01
  -6 -14   8    7.10    1.22
   6  14  -8    7.72    1.26
   5 -14  -8    1.49    0.70
   5 -14  -8    0.78    0.66
  -5 -14   8    0.96    0.88
  -5  14   8    0.98    0.84
   5  14  -8    1.29    0.93
  -4 -14   8   10.21    1.59
   4  14  -8   11.55    1.60
  -4  14   8   14.77    1.59
   3 -14  -8    0.26    0.60
  -3 -14   8    0.05    0.85
  -3  14   8   -0.60    0.89
   3  14  -8    0.36    0.82
   2 -14  -8    4.03    0.76
  -2 -14   8    1.95    0.93
   2  14  -8    3.27    0.95
  -2  14   8    2.90    1.04
  -1 -14   8    1.95    0.93
   1  14  -8    3.03    0.91
   0 -14  -8   34.48    2.63
   0 -14   8   28.12    2.87
   0  14   8   32.07    2.92
   0  14  -8   30.44    2.87
   1 -14   8    1.20    0.87
  -1 -14  -8    3.99    0.62
   1  14   8    4.23    1.05
  -1  14  -8    1.44    0.86
  -2 -14  -8    5.35    0.74
   2  14   8    4.34    1.16
   3 -14   8    2.96    0.88
   3 -14   8    3.49    0.93
  -3  14  -8    3.74    0.88
   4 -14   8    0.24    0.82
   4 -14   8    0.76    0.80
  -4  14  -8    0.31    0.67
   4  14   8    0.46    1.04
   5  14   8    5.12    1.22
   6 -14   8    1.54    0.86
   6  14   8   -0.34    0.91
   7 -14   8    3.59    1.02
   7  14   8    4.85    1.23
   8 -14   8    1.32    0.88
   8  14   8    0.43    0.95
   9 -14   8   -0.62    0.79
   9  14   8   -0.07    0.96
  10 -14   8    4.62    0.97
  10  14   8    3.01    1.26
  12 -15  -8    2.82    0.87
  10  15  -8    3.89    1.20
   9  15  -8    0.50    1.01
   8 -15  -8    0.51    0.76
   8  15  -8    0.23    0.94
  -7 -15   8    1.91    0.95
   7 -15  -8    3.87    0.90
   7  15  -8    1.96    1.03
  -6 -15   8    4.54    1.15
   6 -15  -8    5.19    0.98
   6  15  -8    6.43    1.18
   5 -15  -8    3.68    0.88
  -5 -15   8    7.59    1.18
  -5  15   8    4.00    1.01
  -4 -15   8    5.42    1.06
   4 -15  -8    2.40    0.74
  -4  15   8    2.12    0.96
   3 -15  -8   16.92    1.71
  -3  15   8   17.77    1.99
   2 -15  -8    2.98    0.71
  -2  15   8    3.44    1.06
   1 -15  -8   20.21    1.99
  -1 -15   8   28.80    2.35
  -1  15   8   19.03    2.28
   0 -15  -8   17.48    1.61
   0  15   8   15.55    1.94
   1 -15   8   50.61    4.38
  -1  15  -8   51.98    4.36
  -2 -15  -8    0.89    0.42
   2 -15   8    0.25    0.86
  -2  15  -8    0.83    0.83
   2  15   8    1.32    1.04
   3 -15   8   14.96    1.75
   3 -15   8   17.19    1.76
  -3  15  -8   14.41    1.65
   3  15   8   11.63    1.85
   4 -15   8    9.14    1.43
   4 -15   8    7.55    1.24
   4  15   8    9.84    1.60
  -4  15  -8    9.85    1.30
   5  15   8    6.71    1.30
   6 -15   8   24.72    2.26
   6  15   8   18.19    2.35
   7 -15   8    7.11    1.16
   7  15   8    4.41    1.29
   8 -15   8   10.35    1.46
   8  15   8    9.10    1.56
   9 -15   8    1.08    0.88
   9  15   8    0.38    1.02
  10 -15   8   10.50    1.55
  10  15   8   11.96    1.86
  10  16  -8    1.42    1.13
   9  16  -8   -0.13    0.99
   8 -16  -8    3.02    0.93
   8  16  -8    1.50    1.05
  -7 -16   8   -0.22    0.87
   7 -16  -8   -0.03    0.73
   7  16  -8    0.34    0.96
  -6 -16   8    5.86    1.19
   6  16  -8    6.10    1.24
   5 -16  -8    0.28    0.67
  -5 -16   8    0.96    0.95
  -5  16   8    1.35    0.90
   5  16  -8    0.88    0.95
  -4 -16   8    6.02    1.11
   4 -16  -8    2.70    0.77
  -4  16   8    2.22    0.99
  -3 -16   8    0.81    0.89
   3 -16  -8    0.43    0.61
  -3  16   8    0.97    0.98
   3  16  -8    0.18    0.90
  -2 -16   8   13.09    1.66
   2  16  -8   11.39    1.64
  -1 -16   8    2.92    1.01
   1 -16  -8    3.44    0.73
   1  16  -8    3.22    1.01
  -1  16   8    1.38    1.05
   0 -16   8   14.31    1.87
   0 -16  -8   20.21    1.66
   0  16   8   17.51    2.01
   0  16  -8   14.46    1.89
   1 -16   8    3.66    1.00
  -1  16  -8    4.90    1.02
   1  16   8    1.24    0.95
   2 -16   8   16.70    2.05
  -2 -16  -8   21.19    1.70
   2  16   8   21.98    2.24
  -2  16  -8   18.37    2.05
   3 -16   8    0.92    0.89
   3  16   8    0.60    0.92
  -3  16  -8    0.59    0.77
   4 -16   8    9.36    1.49
  -4  16  -8    9.14    1.34
   4  16   8   12.72    1.71
   5 -16   8    4.15    1.00
   5  16   8    0.73    1.00
   6 -16   8    9.57    1.46
   6  16   8    7.88    1.50
   7 -16   8    0.10    0.86
   7  16   8    1.24    1.01
   8 -16   8   -0.05    0.86
   8  16   8   -0.14    1.01
   9 -16   8    6.05    1.13
   9  16   8    6.60    1.44
  10 -16   8    0.42    0.83
   9  17  -8   -0.62    1.04
   8 -17  -8   10.01    1.50
   7 -17  -8    1.62    0.84
  -7 -17   8    1.85    1.02
   7  17  -8    2.12    1.05
  -6 -17   8    7.41    1.33
   6  17  -8    7.73    1.36
   5 -17  -8   24.87    2.17
  -5 -17   8   19.74    2.34
   5  17  -8   21.31    2.32
   4 -17  -8    0.90    0.70
  -4 -17   8    3.50    1.05
  -4  17   8    1.07    0.98
   4  17  -8    3.02    1.02
   3 -17  -8   13.15    1.37
  -3 -17   8    7.48    1.39
   3  17  -8    9.22    1.56
  -3  17   8   12.80    1.67
   2 -17  -8    6.85    1.06
  -2 -17   8    4.00    1.12
  -2  17   8    7.30    1.28
   1 -17  -8   52.40    3.82
  -1 -17   8   42.00    4.04
  -1  17   8   48.94    4.09
   1  17  -8   42.44    4.03
   0 -17   8   21.83    2.28
   0  17  -8   22.68    2.28
   1 -17   8   35.47    3.37
  -1  17  -8   39.71    3.37
  -2 -17  -8   11.74    1.15
   2  17   8   10.66    1.77
   3 -17   8   19.79    2.12
  -3  17  -8   20.13    2.05
   4  17   8    8.25    1.46
   5  17   8    5.92    1.36
   6 -17   8    1.15    0.92
   6  17   8    2.07    1.07
   7 -17   8    2.71    0.98
   7  17   8    0.26    0.99
   8 -17   8   -0.99    0.86
   8  17   8    0.36    1.06
   9 -17   8   -0.49    0.88
   9  17   8   -0.08    1.07
  10 -17   8   -0.36    0.85
   9  18  -8    1.54    1.17
   8  18  -8    2.29    1.16
  -7 -18   8    0.39    0.98
   7 -18  -8    3.27    0.92
   7  18  -8    0.54    1.02
  -6 -18   8    8.48    1.44
   6 -18  -8   10.67    1.41
   6  18  -8    8.77    1.46
  -5 -18   8   -0.34    0.90
   5 -18  -8   -0.08    0.69
   5  18  -8    0.43    0.99
  -4 -18   8   11.31    1.77
   4 -18  -8   13.69    1.56
  -4  18   8   13.44    1.76
   4  18  -8   11.22    1.74
  -3 -18   8    0.80    0.95
   3 -18  -8    3.16    0.81
   3  18  -8    1.80    0.99
  -3  18   8    2.79    1.10
   2 -18  -8   11.52    1.39
  -2  18   8   11.23    1.75
   1 -18  -8    4.49    0.83
  -1  18   8    5.04    1.20
   0 -18   8    2.60    0.98
   0 -18  -8    0.62    0.58
   0  18   8    0.18    0.95
   0  18  -8    4.37    1.06
  -1 -18  -8    3.32    0.65
   1 -18   8    1.07    0.93
  -1  18  -8    1.71    0.93
   1  18   8    2.18    1.04
  -2 -18  -8    0.30    0.44
   2 -18   8    3.27    0.97
  -2  18  -8    3.25    0.94
   2  18   8   -0.41    0.96
   3 -18   8   -0.55    0.87
  -3  18  -8    0.20    0.84
   3  18   8    0.02    0.99
   4 -18   8    8.20    1.24
   4  18   8    4.72    1.34
   5 -18   8    3.21    1.03
   5  18   8    5.32    1.34
   6 -18   8    0.13    0.90
   6  18   8   -0.07    1.01
   7 -18   8    0.58    0.92
   8 -18   8    3.56    1.06
   8  18   8    0.91    1.13
   9 -18   8    0.46    0.88
  10 -18   8    1.57    0.94
   8  19  -8   -0.12    1.12
  -7 -19   8    4.36    1.26
   7 -19  -8    9.50    1.37
   7  19  -8    5.62    1.33
  -6 -19   8   22.03    2.40
   6  19  -8   20.69    2.36
  -5 -19   8    6.37    1.27
   5 -19  -8    6.00    1.10
   5  19  -8    6.81    1.33
  -4 -19   8   14.26    1.85
   4  19  -8   13.09    1.84
  -3 -19   8   11.22    1.64
   3 -19  -8    8.31    1.26
   3  19  -8   11.14    1.61
  -3  19   8    6.30    1.37
  -2 -19   8   41.75    3.88
   2  19  -8   45.37    3.89
   1 -19  -8    5.38    0.90
  -1  19   8    5.19    1.29
   0 -19  -8    1.03    0.60
   0 -19   8    3.59    1.06
   0  19  -8    3.49    1.06
   0  19   8    0.20    0.95
   1 -19   8    9.12    1.40
  -1  19  -8    8.39    1.36
   2 -19   8   -0.49    0.88
   2  19   8   -0.19    0.97
  -2  19  -8    0.23    0.90
   3  19   8    7.06    1.45
   4 -19   8    6.28    1.17
   4  19   8    2.67    1.26
   5 -19   8    7.91    1.35
   5  19   8   11.15    1.75
   6 -19   8   30.18    2.88
   6  19   8   29.84    3.03
   7 -19   8    2.09    1.04
   7  19   8    1.87    1.27
   8 -19   8   22.72    2.23
   8  19   8   18.35    2.48
   9 -19   8   -0.50    0.90
  10 -19   8    2.02    0.94
   8  20  -8    2.24    1.20
   7  20  -8   -0.14    1.12
  -6 -20   8    7.32    1.44
   6  20  -8    9.05    1.54
  -5 -20   8    1.18    1.06
   5 -20  -8    0.54    0.74
   5  20  -8    1.28    1.11
  -4 -20   8    7.08    1.35
   4  20  -8    8.99    1.48
  -3 -20   8    5.52    1.24
   3 -20  -8    5.88    1.00
  -3  20   8    5.39    1.28
   3  20  -8    6.35    1.29
  -2 -20   8    0.19    0.96
   2 -20  -8    0.61    0.66
   2  20  -8    0.85    1.02
  -2  20   8   -0.63    0.90
  -1 -20   8    0.09    0.97
   1 -20  -8    0.58    0.64
  -1  20   8    0.86    0.99
   1  20  -8    0.18    0.99
   0 -20   8   12.27    1.61
   0 -20  -8    8.19    1.20
   0  20   8    8.30    1.53
   1 -20   8    1.14    0.95
  -1 -20  -8    0.37    0.54
   1  20   8   -0.33    0.97
  -1  20  -8    1.53    1.01
   2 -20   8   12.20    1.70
   2  20   8   11.93    1.89
  -2  20  -8   12.42    1.66
   3 -20   8    0.25    0.90
   3  20   8    1.03    0.99
   4 -20   8    4.64    1.14
   4  20   8    3.00    1.32
   5 -20   8    0.88    1.00
   5  20   8    0.78    1.03
   6 -20   8    1.77    1.01
   6  20   8    4.34    1.35
   7 -20   8   -0.47    0.92
   7  20   8    0.62    1.08
   8 -20   8    4.73    1.15
   9 -20   8   -0.05    0.92
   7  21  -8    1.53    1.22
  -6 -21   8   10.99    1.79
   6  21  -8   11.30    1.85
  -5 -21   8    7.76    1.43
   5 -21  -8    6.71    1.18
   5  21  -8    8.18    1.51
   4 -21  -8    0.16    0.71
  -4 -21   8    0.08    0.98
   4  21  -8   -0.01    1.10
  -3 -21   8   12.09    1.84
   3 -21  -8   13.30    1.59
  -3  21   8   13.65    1.86
   3  21  -8   14.64    1.94
  -2 -21   8    6.20    1.33
   2 -21  -8    8.79    1.25
   2  21  -8    8.79    1.50
  -2  21   8    7.84    1.44
   1 -21  -8   48.67    3.76
  -1 -21   8   37.14    3.98
  -1  21   8   51.80    4.14
   1  21  -8   43.09    4.05
   0 -21   8    4.64    1.21
   0  21  -8    5.21    1.25
   0  21   8    9.94    1.54
   1 -21   8    5.82    1.28
  -1  21  -8    7.19    1.33
   1  21   8    8.56    1.56
   2 -21   8    1.36    1.05
   2  21   8    6.37    1.44
   3 -21   8    3.12    1.07
   3  21   8    3.09    1.34
   4 -21   8    2.09    1.03
   4  21   8    0.21    1.02
   5 -21   8    0.75    0.96
   5  21   8   -0.16    1.08
   6 -21   8    0.95    0.98
   6  21   8    2.16    1.35
   7 -21   8    1.58    1.04
   8 -21   8    0.60    0.96
   7  22  -8    1.71    1.29
  -6 -22   8    6.49    1.40
   6  22  -8    7.56    1.53
   5 -22  -8    0.64    0.80
  -5 -22   8    1.87    1.15
   5  22  -8    3.08    1.24
  -4 -22   8    0.29    1.07
   4 -22  -8    1.51    0.82
   4  22  -8    1.04    1.15
  -3 -22   8    2.62    1.13
   3 -22  -8    0.22    0.73
   3  22  -8    2.55    1.20
   2 -22  -8    1.40    0.74
  -2 -22   8    0.60    1.00
  -2  22   8    1.02    1.02
   2  22  -8    1.00    1.13
  -1 -22   8   13.13    1.87
   1  22  -8   14.29    1.96
   0 -22   8   13.85    1.92
   0  22  -8   17.14    2.04
   1 -22   8    1.78    1.03
   1  22   8    1.77    1.13
  -1  22  -8    2.40    1.12
   2  22   8    7.63    1.57
   3 -22   8   -0.16    0.94
   3  22   8    0.47    1.08
   4 -22   8    2.90    1.07
   4  22   8    2.84    1.37
   5 -22   8   -0.62    0.94
   5  22   8    0.14    1.09
   6 -22   8    0.89    1.03
   6  22   8    0.51    1.15
  -6 -23   8    0.51    1.06
   6  23  -8    0.39    1.25
  -5 -23   8    2.67    1.16
   5  23  -8    3.12    1.34
  -4 -23   8   12.93    1.99
   4  23  -8   15.25    2.09
  -3 -23   8    0.44    1.06
   3 -23  -8    0.86    0.78
   3  23  -8    1.17    1.22
   2 -23  -8    4.41    0.95
  -2 -23   8    8.12    1.39
  -2  23   8    4.33    1.34
  -1 -23   8    6.96    1.42
   1 -23  -8    8.84    1.28
   1  23  -8    7.49    1.49
  -1  23   8    8.25    1.60
   0 -23   8    6.12    1.35
   0  23  -8    8.17    1.50
   1 -23   8   -0.11    0.98
   1  23   8    1.03    1.15
   2 -23   8   -0.46    0.94
   2  23   8   -0.15    1.08
   3 -23   8    1.33    1.03
   3  23   8    1.39    1.13
   4 -23   8   13.51    1.90
   4  23   8   14.99    2.15
   5 -23   8   11.46    1.65
   5  23   8    7.12    1.70
  -6 -24   8    5.11    1.33
  -5 -24   8   -0.67    1.04
   5  24  -8    1.22    1.28
   4 -24  -8    0.95    0.83
  -4 -24   8    1.00    1.10
   4  24  -8    1.90    1.35
   3 -24  -8    0.67    0.75
  -3 -24   8   -0.76    1.03
   3  24  -8    0.57    1.27
   2 -24  -8    0.71    0.72
  -2 -24   8    0.92    1.09
   2  24  -8   -1.08    1.17
  -1 -24   8    8.12    1.48
   1  24  -8   10.30    1.56
  -1  24   8    4.45    1.50
   0 -24   8    0.74    1.06
   0  24   8    0.14    1.12
   0  24  -8   -0.09    1.10
   1 -24   8    0.51    1.03
   1  24   8    1.83    1.22
   2 -24   8    0.99    1.06
   2  24   8    0.52    1.14
   3 -24   8    2.27    1.11
   3  24   8    0.53    1.16
   4 -24   8    0.24    1.02
   4  24   8    0.08    1.13
  -5 -25   8   -1.02    1.01
   5  25  -8   -0.10    1.26
  -4 -25   8   -0.22    1.04
   4  25  -8    1.36    1.32
   3 -25  -8    1.39    0.83
  -3 -25   8    0.75    1.10
   3  25  -8   -0.37    1.25
  -2 -25   8   -0.39    1.01
   2  25  -8   -1.34    1.18
  -1 -25   8    1.29    1.09
   1  25  -8    0.38    1.17
   0 -25   8    1.08    1.09
   0  25   8    5.10    1.52
   1 -25   8    8.77    1.48
   1  25   8    5.90    1.69
   2 -25   8    0.10    1.03
   2  25   8    0.06    1.18
   3  25   8    0.37    1.19
   4  25   8    0.17    1.18
  -5 -26   8    1.54    1.18
  -4 -26   8   -0.04    1.06
   4  26  -8    0.29    1.31
  -3 -26   8   -0.08    1.05
   3  26  -8   -1.24    1.24
  -2 -26   8    4.14    1.28
   2  26  -8    3.92    1.44
  -1 -26   8    0.51    1.07
   1  26  -8   -0.01    1.23
   0 -26   8    4.93    1.24
   0  26   8    0.80    1.22
   1  26   8    1.46    1.26
   2  26   8    4.94    1.66
   3  26   8    1.57    1.28
   3  27  -8    0.71    1.34
   2  27  -8    0.26    1.31
   1  27   8    6.73    1.75
   2  27   8    1.38    1.30
  13   0  -9    0.05    0.87
  12   0  -9   -0.89    0.83
  11   0  -9    0.44    0.81
  11   0  -9    0.79    0.86
  10   0  -9   -0.26    0.80
  10   0  -9   -0.29    0.75
   9   0  -9    6.36    1.06
   9   0  -9    5.90    1.07
   8   0  -9    0.00    0.67
   8   0  -9    0.09    0.74
   7   0  -9    2.40    0.75
   7   0  -9    1.73    0.78
  -7   0   9    1.26    0.76
   7   0  -9    2.33    0.76
   6   0  -9   -0.13    0.68
   6   0  -9    0.24    0.64
   6   0  -9    0.62    0.68
  -6   0   9   -0.68    0.72
  -5   0   9   11.36    1.52
   5   0  -9   11.14    1.40
   5   0  -9   13.49    1.52
   5   0  -9   11.33    1.37
   4   0  -9    0.24    0.63
  -4   0   9   -0.10    0.61
   4   0  -9    0.10    0.56
  -4   0   9   -0.65    0.72
   4   0  -9    0.28    0.60
   3   0  -9    1.70    0.61
   3   0  -9    1.77    0.71
  -3   0   9    1.45    0.67
  -3   0   9    1.00    0.79
   3   0  -9    2.25    0.64
   2   0  -9    0.47    0.53
  -2   0   9    0.23    0.56
  -2   0   9    0.92    0.79
   2   0  -9    1.22    0.55
   2   0  -9    0.97    0.65
   1   0  -9   -0.04    0.58
   1   0  -9    0.61    0.57
  -1   0   9    0.33    0.61
  -1   0   9   -0.61    0.72
   1   0  -9    0.29    0.49
   0   0  -9    0.29    0.58
   0   0   9    0.14    0.75
   0   0  -9    0.99    0.49
   0   0   9    1.00    0.59
  -1   0  -9    1.51    0.51
   1   0   9    1.84    0.63
  -1   0  -9    2.24    0.66
   1   0   9    2.00    0.80
   2   0   9    2.97    0.82
  -2   0  -9    3.73    0.72
   2   0   9    2.86    0.66
   3   0   9    0.49    0.73
   3   0   9    0.14    0.55
  -3   0  -9    0.53    0.60
  -4   0  -9    2.61    0.72
   4   0   9    2.54    0.64
   4   0   9    3.00    0.84
  -5   0  -9    0.53    0.62
   5   0   9    0.86    0.57
   5   0   9    0.78    0.81
   6   0   9   -0.28    0.53
   6   0   9    0.25    0.76
  -6   0  -9    0.34    0.54
   7   0   9    4.16    0.69
   7   0   9    3.38    0.91
   8   0   9   -0.53    0.75
   9   0   9   -0.90    0.80
  10   0   9   -0.67    0.83
  11   0   9   -0.52    0.82
  12   0   9   -0.53    0.85
  13  -1  -9    1.81    0.94
  13   1  -9    3.95    1.02
  12  -1  -9    1.06    0.86
  12   1  -9    1.50    0.92
  11  -1  -9    2.40    0.91
  11  -1  -9    1.99    0.92
  11   1  -9    3.04    0.99
  11   1  -9    4.49    0.99
  10  -1  -9    8.08    1.33
  10  -1  -9    7.17    1.22
  10   1  -9    9.91    1.36
  10   1  -9    9.97    1.41
   9  -1  -9   -0.13    0.76
   9  -1  -9    0.14    0.72
   9   1  -9   -0.12    0.78
   9   1  -9    0.28    0.72
   8  -1  -9   22.78    2.30
   8  -1  -9   24.34    2.35
   8   1  -9   26.50    2.35
   8   1  -9   26.04    2.36
   7  -1  -9    1.72    0.76
   7  -1  -9    2.03    0.72
   7  -1  -9    2.17    0.73
  -7  -1   9    0.69    0.76
  -7   1   9    1.67    0.78
   7   1  -9    0.83    0.68
   7   1  -9    0.79    0.74
   7   1  -9    0.58    0.69
   6  -1  -9   20.78    1.90
  -6  -1   9   16.07    1.98
   6  -1  -9   20.46    1.94
   6  -1  -9   24.21    2.02
  -6   1   9   22.06    2.00
   6   1  -9   16.44    1.94
   6   1  -9   20.38    2.01
   6   1  -9   16.77    1.89
   5  -1  -9   20.28    2.00
   5  -1  -9   22.12    2.10
   5  -1  -9   23.46    2.13
  -5   1   9   20.58    2.12
  -4  -1   9   18.00    1.93
   4  -1  -9   19.34    1.88
   4  -1  -9   19.60    1.79
   4  -1  -9   19.42    1.90
  -4   1   9   20.48    1.90
   4   1  -9   17.45    1.77
   4   1  -9   16.91    1.85
   4   1  -9   19.41    1.91
  -4   1   9   19.89    1.96
   3  -1  -9    8.60    1.20
   3  -1  -9    8.65    1.10
   3  -1  -9    9.78    1.30
  -3   1   9    8.46    1.35
  -3   1   9    7.46    1.23
  -2  -1   9   52.45    4.80
   2  -1  -9   58.03    4.77
   2  -1  -9   66.38    4.83
   2  -1  -9   61.51    4.60
  -2  -1   9   52.72    4.62
  -2   1   9   61.66    4.83
   2   1  -9   54.36    4.60
   2   1  -9   54.25    4.78
   2   1  -9   57.09    4.80
  -2   1   9   64.14    4.65
   1  -1  -9   72.80    5.65
  -1  -1   9   73.41    5.67
   1  -1  -9   73.54    5.89
  -1  -1   9   73.88    5.91
  -1   1   9   69.85    5.65
   1   1  -9   69.39    5.64
  -1   1   9   70.59    5.90
   1   1  -9   76.16    5.90
   0  -1   9   14.26    1.60
   0  -1   9   15.22    1.42
   0   1   9    9.13    1.55
   0   1  -9   14.97    1.34
   0   1  -9   16.19    1.54
   0   1   9   10.27    1.39
  -1  -1  -9   53.22    3.70
   1  -1   9   42.82    3.91
   1  -1   9   43.78    3.72
  -1   1  -9   46.46    3.91
  -1   1  -9   41.12    3.69
   1   1   9   52.73    3.94
   2  -1   9   13.04    1.38
   2  -1   9   13.11    1.57
  -2   1  -9   13.96    1.50
   2   1   9   13.84    1.34
   2   1   9   11.39    1.50
   3  -1   9   66.75    5.53
  -3   1  -9   63.23    5.76
   3   1   9   84.72    5.84
   4  -1   9    6.16    1.05
   4  -1   9    7.45    1.00
  -4   1  -9    7.48    1.12
  -5  -1  -9   77.60    5.42
   5  -1   9   59.12    5.40
   5  -1   9   65.28    5.15
   5   1   9   72.19    5.46
  -5   1  -9   57.45    5.34
   6  -1   9    1.13    0.78
  -6  -1  -9    0.00    0.56
   6  -1   9   -0.21    0.57
   6   1   9    0.14    0.82
   6   1   9    0.34    0.50
  -6   1  -9    0.49    0.55
   7  -1   9   35.37    3.57
   7  -1   9   39.41    3.36
   7   1   9   47.05    3.32
   7   1   9   46.99    3.69
   7   1   9   41.42    3.62
   8  -1   9    5.65    1.03
   8   1   9    4.88    1.01
   9  -1   9   11.75    1.50
   9   1   9   10.09    1.47
  10  -1   9    7.09    1.15
  10   1   9   10.03    1.36
  11  -1   9    0.68    0.86
  11   1   9    0.33    0.88
  12  -1   9    1.67    0.88
  12   1   9    3.41    0.95
  13  -2  -9   -0.74    0.82
  13   2  -9    0.50    0.93
  12  -2  -9    0.04    0.83
  12   2  -9   -0.22    0.87
  11  -2  -9    0.57    0.82
  11  -2  -9    0.36    0.82
  11   2  -9    0.53    0.89
  11   2  -9    1.50    0.88
  10  -2  -9    1.02    0.81
  10  -2  -9    1.06    0.78
  10   2  -9    1.34    0.85
  10   2  -9    1.47    0.83
   9  -2  -9    3.25    0.89
   9  -2  -9    2.77    0.87
   9   2  -9    4.35    0.95
   9   2  -9    5.32    0.98
   8  -2  -9    4.69    0.88
   8  -2  -9    3.69    0.84
  -8  -2   9    1.88    0.79
   8   2  -9    1.54    0.82
   8   2  -9    1.95    0.79
  -7  -2   9    0.24    0.76
   7  -2  -9    1.91    0.73
   7  -2  -9    1.74    0.71
   7  -2  -9    1.60    0.73
   7   2  -9    0.40    0.76
  -7   2   9    1.24    0.73
   7   2  -9    0.38    0.69
   7   2  -9    1.24    0.71
   6  -2  -9    0.47    0.65
   6  -2  -9   -0.05    0.69
  -6  -2   9    0.35    0.77
   6  -2  -9    0.21    0.65
   6   2  -9    0.94    0.72
   6   2  -9    0.49    0.68
  -6   2   9    0.00    0.74
   6   2  -9    0.80    0.62
   5  -2  -9    3.55    0.82
   5  -2  -9    4.33    0.83
   5  -2  -9    3.55    0.87
  -5  -2   9    5.92    0.99
   5   2  -9    5.68    0.88
   5   2  -9    5.67    0.92
  -5   2   9    2.87    0.90
   5   2  -9    5.95    0.89
  -4  -2   9    0.13    0.77
   4  -2  -9    0.55    0.59
   4  -2  -9    0.87    0.64
   4  -2  -9    0.85    0.61
  -4   2   9    0.26    0.77
  -4   2   9    0.10    0.66
   4   2  -9    0.14    0.59
   4   2  -9    0.54    0.59
   4   2  -9    0.41    0.65
   3  -2  -9    5.44    0.85
  -3  -2   9    7.12    1.07
   3  -2  -9    5.06    0.84
  -3  -2   9    5.52    1.01
   3   2  -9    6.29    0.94
  -3   2   9    4.64    0.90
  -3   2   9    5.38    1.02
   3   2  -9    6.99    0.92
   3   2  -9    6.74    0.92
   2  -2  -9    2.53    0.61
  -2  -2   9    1.27    0.77
   2  -2  -9    3.41    0.69
  -2  -2   9    1.98    0.68
   2   2  -9    2.29    0.66
  -2   2   9    2.15    0.85
   2   2  -9    1.62    0.68
  -2   2   9    2.54    0.69
   2   2  -9    2.40    0.62
  -1  -2   9   10.12    1.21
  -1  -2   9    9.80    1.37
   1   2  -9    9.90    1.14
   1   2  -9    8.70    1.20
   0  -2   9    5.50    1.01
   0  -2   9    5.22    0.83
   0   2  -9    7.32    0.93
   0   2  -9    6.31    1.02
  -1  -2  -9    1.80    0.49
   1  -2   9    2.42    0.83
   1  -2   9    2.61    0.66
  -1   2  -9    2.45    0.67
   1   2   9    2.44    0.62
   1   2   9    1.99    0.83
   2  -2   9    1.46    0.61
   2  -2   9    1.36    0.76
  -2  -2  -9    0.98    0.44
   2   2   9    0.54    0.80
  -2   2  -9    1.39    0.60
   2   2   9    1.16    0.57
   3  -2   9    2.84    0.85
   3  -2   9    2.51    0.65
  -3   2  -9    2.42    0.69
   3   2   9    4.58    0.91
   4  -2   9    5.67    1.05
   4  -2   9    6.55    1.04
  -4   2  -9    6.96    1.08
   4   2   9    9.99    1.31
   5  -2   9   50.07    4.21
   5  -2   9   53.20    3.99
   5   2   9   44.42    4.22
  -5   2  -9   49.12    4.14
   5   2   9   53.28    3.92
  -6  -2  -9    0.03    0.54
   6  -2   9   -0.22    0.57
   6  -2   9    0.76    0.78
   6   2   9    0.19    0.81
   6   2   9    0.00    0.81
  -6   2  -9    0.57    0.54
   7  -2   9    1.26    0.60
   7  -2   9    1.75    0.81
   7   2   9    1.61    0.88
   7   2   9    2.30    0.91
   8  -2   9    1.90    0.84
   8   2   9   -0.02    0.85
   9  -2   9    5.61    1.01
   9   2   9    3.88    1.07
  10  -2   9   -0.04    0.83
  10   2   9   -0.38    0.85
  11  -2   9   -1.56    0.79
  11   2   9    0.02    0.83
  12  -2   9    0.15    0.80
  12   2   9    0.35    0.90
  13  -3  -9    1.96    0.91
  13   3  -9    2.04    1.00
  12  -3  -9    2.02    0.89
  12   3  -9    0.69    0.93
  11  -3  -9    1.54    0.86
  11  -3  -9    1.19    0.83
  11   3  -9    1.52    0.91
  11   3  -9    1.91    0.87
  10   3  -9    9.55    1.45
  10   3  -9   11.50    1.48
   9  -3  -9   -0.18    0.69
   9  -3  -9   -0.18    0.74
   9   3  -9   -0.15    0.71
   9   3  -9   -0.34    0.80
   8  -3  -9   41.24    3.10
  -8  -3   9   32.18    3.09
   8  -3  -9   38.21    3.07
   8   3  -9   30.46    3.00
   8   3  -9   33.67    3.10
   7  -3  -9    8.10    1.11
  -7  -3   9    4.11    0.98
  -7   3   9    8.00    1.13
   7   3  -9    5.04    0.99
   7   3  -9    4.61    0.91
   7   3  -9    4.58    0.92
   6  -3  -9    7.02    1.08
   6  -3  -9    6.80    1.01
  -6  -3   9    3.58    0.95
   6   3  -9    4.10    0.85
   6   3  -9    3.41    0.82
   6   3  -9    3.70    0.89
   5  -3  -9    8.76    1.36
   5  -3  -9    7.97    1.25
  -5  -3   9   10.84    1.45
   5  -3  -9    7.90    1.17
   5   3  -9   10.58    1.31
  -5   3   9    8.60    1.36
   5   3  -9    9.44    1.23
   5   3  -9   11.32    1.36
   4  -3  -9   20.96    1.96
   4  -3  -9   22.93    2.13
  -4   3   9   20.64    2.12
  -4   3   9   21.41    2.05
  -3  -3   9   41.20    3.44
  -3  -3   9   39.90    3.55
   3   3  -9   40.40    3.52
   3   3  -9   40.36    3.40
   3   3  -9   45.69    3.58
   2  -3  -9    4.49    0.71
  -2  -3   9    4.40    0.91
  -2  -3   9    4.05    0.77
   2  -3  -9    3.70    0.73
  -2   3   9    3.11    0.75
   2   3  -9    3.84    0.72
  -2   3   9    3.10    0.89
   2   3  -9    4.74    0.84
  -1  -3   9   27.43    2.71
   1  -3  -9   35.31    2.73
  -1  -3   9   28.34    2.57
   1  -3  -9   33.60    2.53
  -1   3   9   31.21    2.73
   1   3  -9   28.11    2.53
   1   3  -9   28.46    2.66
   0  -3  -9   55.87    4.65
   0  -3   9   62.60    4.91
   0  -3   9   65.22    4.71
   0   3   9   58.25    4.67
   0   3  -9   61.00    4.67
   0   3  -9   62.07    4.88
   0   3   9   51.36    4.88
  -1  -3  -9    7.46    0.87
   1   3   9    7.31    1.00
   1   3   9    6.51    1.09
   2  -3   9    2.66    0.63
   2  -3   9    2.12    0.78
  -2  -3  -9    1.32    0.45
   2   3   9    1.46    0.80
   2   3   9    1.32    0.56
  -2   3  -9    2.51    0.65
   3  -3   9   60.38    5.15
   3  -3   9   66.67    4.94
  -3   3  -9   61.26    5.11
   4  -3   9   11.57    1.48
   4  -3   9   11.47    1.30
  -4   3  -9   11.36    1.33
   5  -3   9    2.45    0.85
   5  -3   9    2.43    0.68
  -5   3  -9    3.31    0.68
   5   3   9   -0.01    0.86
   6  -3   9    1.98    0.67
   6  -3   9    1.70    0.80
   6   3   9    1.76    0.86
   6   3   9    1.67    0.86
  -6   3  -9    1.82    0.61
   7  -3   9    9.49    1.19
  -7  -3  -9    9.31    1.17
   7  -3   9    8.06    1.34
   7   3   9    8.50    1.38
   8  -3   9    0.50    0.80
   8   3   9    1.39    0.88
   9  -3   9    2.86    0.91
  10  -3   9   -0.70    0.78
  10   3   9    0.77    0.92
  11  -3   9    0.59    0.81
  11   3   9    2.62    0.95
  12   3   9    4.00    1.00
  13   3   9    1.55    0.96
  13  -4  -9    0.80    0.84
  13   4  -9   -0.85    0.92
  12  -4  -9    2.16    0.88
  12   4  -9    1.43    0.96
  11  -4  -9    0.83    0.81
  11   4  -9    0.39    0.90
  11   4  -9    0.21    0.83
  10  -4  -9    1.15    0.80
  10  -4  -9    0.50    0.80
  10   4  -9    0.64    0.79
  10   4  -9    0.47    0.87
   9  -4  -9    2.46    0.86
   9  -4  -9    3.88    0.87
   8  -4  -9    3.54    0.90
   8  -4  -9    3.92    0.89
  -8  -4   9    2.44    0.87
   8   4  -9    3.28    0.87
   8   4  -9    2.99    0.90
   7  -4  -9   13.83    1.53
   7  -4  -9    9.97    1.37
   7  -4  -9   10.78    1.41
  -7   4   9   10.45    1.40
   6  -4  -9   18.62    1.78
  -6  -4   9   13.47    1.72
   6  -4  -9   16.99    1.65
   6  -4  -9   15.65    1.63
   6   4  -9   14.29    1.64
   6   4  -9   13.99    1.73
   6   4  -9   13.89    1.67
  -6   4   9   16.45    1.71
  -5  -4   9   44.29    3.80
   5   4  -9   44.63    3.67
   5   4  -9   45.93    3.77
   5   4  -9   42.62    3.76
  -4  -4   9    6.77    1.14
   4  -4  -9    9.66    1.29
   4  -4  -9    7.40    1.05
   4   4  -9    7.69    1.27
  -4   4   9    8.33    1.28
  -4   4   9    8.81    1.31
   4   4  -9    7.16    1.14
   4   4  -9    7.23    1.07
   3  -4  -9    3.38    0.73
   3  -4  -9    4.44    0.76
  -3  -4   9    3.94    0.92
  -3  -4   9    3.94    0.79
  -3   4   9    3.08    0.91
   3   4  -9    3.80    0.74
   3   4  -9    3.93    0.84
  -3   4   9    3.70    0.83
   2  -4  -9    2.42    0.63
   2  -4  -9    2.72    0.62
  -2   4   9    2.30    0.81
  -2   4   9    1.86    0.69
   1  -4  -9    0.50    0.47
  -1  -4   9    0.61    0.73
  -1  -4   9    0.21    0.58
  -1   4   9   -0.19    0.76
   1   4  -9    0.55    0.52
   1   4  -9    0.21    0.60
  -1   4   9    0.20    0.60
   0  -4   9    1.07    0.75
   0  -4   9    0.55    0.61
   0   4  -9    1.17    0.55
   0   4  -9    1.56    0.66
   0   4   9    2.70    0.87
   0   4   9    3.39    0.68
   1  -4   9    0.54    0.57
   1  -4   9    0.64    0.74
  -1  -4  -9    0.73    0.43
   1   4   9    0.93    0.58
   1   4   9    0.42    0.78
  -1   4  -9    1.38    0.64
  -2  -4  -9   16.47    1.47
   2   4   9   17.61    1.55
   2   4   9   16.14    1.77
   3  -4   9    1.39    0.76
   3  -4   9    0.95    0.62
   3   4   9    1.03    0.83
   3   4   9    0.11    0.50
  -3   4  -9    0.98    0.61
   4   4   9    4.16    0.98
   4   4   9    3.66    0.58
   4   4   9    3.50    0.97
   5  -4   9    0.97    0.81
   5  -4   9    0.79    0.62
  -5   4  -9    0.76    0.59
   5   4   9    0.89    0.86
   5   4   9    0.75    0.88
   6  -4   9    9.92    1.33
   6  -4   9   10.47    1.23
  -6   4  -9    9.43    1.16
   6   4   9    6.10    1.19
   7  -4   9   -0.30    0.76
   7  -4   9    0.86    0.60
   7   4   9    1.12    0.90
   8  -4   9   -0.04    0.77
   8   4   9   -0.68    0.86
   9  -4   9   -0.06    0.79
   9   4   9    0.24    0.89
  10  -4   9   -0.67    0.78
  10   4   9   -0.16    0.91
  11  -4   9    5.51    1.04
  11   4   9    5.51    1.13
  12  -4   9    3.14    0.91
  12   4   9    2.98    0.99
  13   4   9    0.80    0.87
  13  -5  -9    1.72    0.85
  12  -5  -9   -0.22    0.81
  12   5  -9    0.66    0.93
  11  -5  -9    3.26    0.96
  11   5  -9    5.03    1.10
  11   5  -9    6.07    1.14
  10  -5  -9    3.22    0.89
  10  -5  -9    2.84    0.89
  10   5  -9    2.02    0.95
  10   5  -9    3.02    0.94
   9  -5  -9   15.44    1.73
   9  -5  -9   14.59    1.76
   9   5  -9   18.22    1.85
   9   5  -9   18.11    1.86
   8  -5  -9    0.54    0.77
  -8  -5   9    0.14    0.79
   8  -5  -9    0.20    0.70
   8   5  -9    1.18    0.78
   8   5  -9    0.39    0.82
   7  -5  -9    1.84    0.74
  -7  -5   9    3.43    0.87
   7  -5  -9    1.60    0.69
   7  -5  -9    1.18    0.72
  -7   5   9    0.69    0.73
   7   5  -9    3.39    0.89
   7   5  -9    3.33    0.83
   7   5  -9    3.44    0.82
  -6  -5   9    0.28    0.81
   6  -5  -9    0.51    0.65
   6  -5  -9    1.09    0.63
   6   5  -9    0.44    0.65
   6   5  -9    0.14    0.68
   6   5  -9    0.02    0.72
  -6   5   9    0.34    0.73
   5  -5  -9   23.42    1.98
   5  -5  -9   22.76    2.11
  -5  -5   9   18.11    2.09
   5   5  -9   18.45    1.96
  -5   5   9   23.61    2.13
   5   5  -9   21.50    2.09
   5   5  -9   18.33    2.04
   4  -5  -9   32.24    2.72
  -4  -5   9   31.64    2.86
   4  -5  -9   30.52    2.82
  -4   5   9   31.79    2.86
   4   5  -9   30.80    2.72
   4   5  -9   33.14    2.84
   3  -5  -9   33.73    2.71
   3  -5  -9   32.00    2.53
  -3  -5   9   25.41    2.70
  -3   5   9   32.89    2.61
   3   5  -9   26.45    2.65
   3   5  -9   25.52    2.52
  -3   5   9   31.77    2.70
   2  -5  -9   76.79    6.04
   2  -5  -9   71.03    5.80
  -2  -5   9   75.93    5.84
  -2  -5   9   74.64    6.06
  -2   5   9   70.15    6.04
  -2   5   9   73.51    5.83
   2   5  -9   77.41    6.05
   2   5  -9   75.50    5.82
  -1  -5   9    0.67    0.78
   1  -5  -9    0.75    0.48
  -1  -5   9    0.64    0.58
   1   5  -9    1.10    0.68
  -1   5   9    0.22    0.61
  -1   5   9    0.22    0.79
   1   5  -9    1.33    0.54
   0  -5   9   28.78    2.59
   0  -5   9   27.41    2.72
   0  -5  -9   34.56    2.51
   0   5   9   34.20    2.78
   0   5  -9   27.18    2.66
   1  -5   9   38.13    3.38
  -1  -5  -9   45.20    3.32
   1  -5   9   35.84    3.55
   1   5   9   43.90    3.60
   1   5   9   49.12    3.37
  -1   5  -9   37.78    3.51
   2  -5   9   22.43    2.15
   2  -5   9   24.93    2.06
  -2  -5  -9   20.50    1.86
   2   5   9   23.66    1.94
  -2   5  -9   23.13    2.12
   2   5   9   20.71    2.20
   3  -5   9   49.01    4.12
   3  -5   9   42.75    4.29
   3   5   9   60.14    4.44
  -3   5  -9   46.06    4.26
   3   5   9   54.15    4.36
   3   5   9   58.64    4.03
   4  -5   9   -0.14    0.73
   4  -5   9   -0.17    0.59
   4   5   9    0.03    0.83
  -4   5  -9    0.40    0.60
   4   5   9   -0.52    0.80
   5  -5   9   21.16    2.23
   5  -5   9   26.12    2.12
  -5   5  -9   22.47    2.14
   6  -5   9   -0.33    0.74
   6  -5   9    0.36    0.60
   6   5   9    0.39    0.83
   6   5   9   -0.55    0.80
  -6   5  -9    0.20    0.55
   7  -5   9   21.87    1.98
   7  -5   9   20.31    2.11
   7   5   9   21.78    2.19
   8  -5   9    3.97    0.93
   8  -5   9    5.46    0.87
   8   5   9    6.56    1.13
   9  -5   9    5.68    1.01
   9   5   9    5.24    1.14
  10  -5   9    8.92    1.41
  10   5   9    9.88    1.55
  11  -5   9    0.75    0.83
  11   5   9    0.02    0.94
  12  -5   9    0.48    0.80
  12   5   9    0.52    0.95
  13  -6  -9    1.85    0.86
  12  -6  -9    3.86    0.99
  12   6  -9    6.70    1.18
  11  -6  -9    2.80    0.93
  11   6  -9    5.95    1.16
  11   6  -9    5.50    1.12
  10  -6  -9    3.11    0.87
  10  -6  -9    1.86    0.87
  10   6  -9    5.78    1.08
   9  -6  -9    6.29    1.07
   9  -6  -9    4.35    0.99
   9   6  -9    7.35    1.13
   9   6  -9    7.92    1.17
   8  -6  -9    0.50    0.67
   8  -6  -9    0.69    0.74
  -8  -6   9    0.98    0.85
   8   6  -9    1.47    0.79
   8   6  -9    1.15    0.85
   7  -6  -9    0.27    0.65
   7  -6  -9    0.49    0.63
  -7  -6   9    0.32    0.81
   7   6  -9    1.17    0.76
   7   6  -9    1.09    0.74
  -7   6   9   -0.23    0.68
   7   6  -9    1.03    0.79
  -6  -6   9   -0.29    0.80
   6  -6  -9   -0.05    0.62
   6  -6  -9    0.78    0.64
  -6   6   9    0.65    0.76
   6   6  -9    0.37    0.73
   6   6  -9    0.28    0.65
  -5  -6   9   26.30    2.64
   5  -6  -9   31.48    2.50
   5  -6  -9   33.44    2.66
   5   6  -9   23.79    2.48
  -5   6   9   31.36    2.61
   5   6  -9   24.43    2.57
   4  -6  -9   30.55    2.57
  -4  -6   9   29.90    2.76
   4  -6  -9   32.95    2.77
   4   6  -9   28.30    2.71
  -4   6   9   30.32    2.75
   4   6  -9   27.32    2.56
   3  -6  -9    7.83    1.02
   3  -6  -9    5.90    0.93
  -3   6   9    6.29    0.99
  -3   6   9    6.39    1.07
  -2  -6   9   29.40    2.29
  -2  -6   9   26.50    2.41
   2  -6  -9   22.10    2.13
   2  -6  -9   24.63    2.39
   2   6  -9   25.90    2.19
  -2   6   9   21.91    2.22
   2   6  -9   27.09    2.33
  -2   6   9   22.75    2.40
  -1  -6   9   13.31    1.61
  -1  -6   9   13.78    1.47
   1   6  -9   13.24    1.38
   1   6  -9   12.93    1.51
   0  -6   9    3.72    0.73
   0  -6  -9    3.71    0.61
   0  -6   9    2.48    0.88
   0   6   9    2.79    0.92
   0   6   9    3.17    0.69
   0   6  -9    3.81    0.81
  -1  -6  -9    5.63    0.76
   1   6   9    3.41    0.96
   1   6   9    3.56    0.69
   2  -6   9    0.67    0.61
   2  -6   9    1.89    0.79
  -2  -6  -9    1.00    0.40
   2   6   9    0.95    0.83
   2   6   9    0.83    0.52
  -2   6  -9    0.75    0.64
   3  -6   9    0.42    0.60
   3  -6   9    0.37    0.74
   3   6   9    0.09    0.81
  -3   6  -9    0.60    0.64
   3   6   9   -0.88    0.76
   3   6   9    0.05    0.45
   4  -6   9    1.68    0.68
   4  -6   9    1.63    0.80
   4   6   9   -0.09    0.83
  -4   6  -9    2.29    0.69
   4   6   9    0.52    0.86
   5  -6   9    4.15    0.77
   5  -6   9    1.93    0.85
   5   6   9    0.55    0.90
   5   6   9    0.59    0.89
  -5   6  -9    2.92    0.70
   6  -6   9    0.01    0.75
   6  -6   9    0.47    0.66
  -6   6  -9   -0.13    0.54
   6   6   9   -0.93    0.84
   6   6   9   -0.20    0.84
   7  -6   9    2.02    0.71
   7  -6   9    1.99    0.84
   7   6   9    1.26    0.93
   8  -6   9    7.22    1.02
   8  -6   9    6.21    1.07
   9  -6   9   -0.48    0.81
   9   6   9    0.15    0.90
  10  -6   9    6.82    1.08
  10   6   9    5.53    1.22
  11  -6   9    9.18    1.38
  11   6   9    6.34    1.29
  12   6   9    0.57    0.97
  13  -7  -9    4.31    0.98
  12  -7  -9    1.08    0.86
  12   7  -9    1.45    1.00
  11  -7  -9    0.53    0.82
  11   7  -9    0.56    0.97
  11   7  -9    0.27    0.88
  10  -7  -9   15.87    1.88
  10  -7  -9   19.35    1.87
  10   7  -9   17.85    2.00
  10   7  -9   18.21    1.96
   9  -7  -9   -0.03    0.77
   9  -7  -9    0.49    0.72
   9   7  -9    0.92    0.78
   9   7  -9    0.65    0.87
   8  -7  -9   42.81    3.35
  -8  -7   9   35.64    3.38
   8   7  -9   37.33    3.39
   8   7  -9   38.44    3.32
  -7  -7   9    0.42    0.79
   7  -7  -9    0.52    0.69
  -7   7   9    0.18    0.69
   7   7  -9    0.00    0.77
   7   7  -9    0.35    0.69
  -6  -7   9   83.11    6.29
   6  -7  -9   69.40    6.06
   6  -7  -9   77.33    6.26
  -6   7   9   69.89    6.20
   6   7  -9   78.14    6.06
   6   7  -9   81.89    6.28
   5  -7  -9    5.00    0.91
  -5  -7   9    5.73    1.06
   5  -7  -9    4.75    0.87
   5   7  -9    5.61    1.02
   5   7  -9    5.22    0.88
  -5   7   9    4.30    1.00
   4  -7  -9   19.67    1.80
   4  -7  -9   17.80    1.58
  -4  -7   9   11.68    1.72
   4   7  -9   12.45    1.55
   4   7  -9   12.95    1.67
  -4   7   9   17.88    1.72
   3  -7  -9    3.14    0.71
   3  -7  -9    3.17    0.75
  -3  -7   9    3.93    0.97
  -3   7   9    2.61    0.91
   3   7  -9    4.04    0.85
   3   7  -9    4.39    0.77
  -3   7   9    2.98    0.81
   2  -7  -9    7.30    1.05
  -2  -7   9    8.39    1.21
  -2   7   9    7.21    1.19
  -2   7   9    8.01    1.24
   2   7  -9    8.67    1.24
   2   7  -9    8.76    1.09
  -1  -7   9    9.14    1.32
   1  -7  -9   12.79    1.18
  -1  -7   9    7.97    1.32
  -1   7   9   12.26    1.49
   1   7  -9    9.32    1.35
  -1   7   9   13.60    1.33
   0  -7  -9    9.17    1.09
   0  -7   9   10.55    1.46
   0  -7   9   12.00    1.28
   0   7  -9   10.58    1.37
   0   7   9   11.08    1.23
   0   7   9    8.55    1.31
   1  -7   9   13.07    1.39
  -1  -7  -9   11.47    1.15
   1  -7   9   12.46    1.53
  -1   7  -9   11.91    1.43
   1   7   9   11.70    1.28
   1   7   9   10.39    1.53
   2  -7   9    7.22    1.16
  -2  -7  -9    7.86    0.84
   2  -7   9    6.83    1.10
   2   7   9    7.55    0.97
  -2   7  -9    7.38    1.03
   2   7   9    6.83    1.15
   3  -7   9    5.02    0.80
   3  -7   9    4.45    0.95
   3   7   9    2.98    1.00
  -3   7  -9    4.88    0.85
   4  -7   9   13.29    1.45
   4  -7   9   12.47    1.56
  -4   7  -9   12.24    1.44
   4   7   9   10.61    1.73
   5  -7   9   17.51    1.96
   5  -7   9   20.03    1.83
  -5   7  -9   17.93    1.82
   5   7   9   19.82    2.12
   5   7   9   18.28    2.00
   6  -7   9    2.78    0.89
   6  -7   9    3.04    0.76
  -6   7  -9    2.01    0.65
   6   7   9    3.11    0.97
   6   7   9    2.37    0.95
   7  -7   9    5.59    1.08
   7   7   9    8.30    1.24
   8  -7   9    0.93    0.83
   8   7   9    0.56    0.96
   9  -7   9   10.10    1.38
   9   7   9    7.58    1.34
  10  -7   9    6.78    1.17
  10   7   9   10.16    1.48
  11  -7   9    9.03    1.40
  11   7   9    9.73    1.59
  12   7   9    2.01    1.06
  13  -8  -9    0.13    0.82
  12  -8  -9    0.28    0.81
  12   8  -9    0.85    1.02
  11  -8  -9    2.64    0.89
  11   8  -9    3.43    1.04
  11   8  -9    3.91    1.08
  10  -8  -9    1.20    0.82
  10  -8  -9    1.09    0.84
  10   8  -9    0.21    0.92
  10   8  -9    0.17    0.82
   9  -8  -9    4.41    0.98
   9  -8  -9    4.44    0.93
   8  -8  -9   14.03    1.64
   8   8  -9   13.87    1.67
   8   8  -9   16.03    1.77
  -7  -8   9    4.24    1.02
   7   8  -9    4.37    0.89
   7   8  -9    4.40    1.00
  -6  -8   9   23.36    2.13
   6  -8  -9   19.11    2.06
   6  -8  -9   16.54    1.95
  -6   8   9   16.52    2.02
   6   8  -9   22.07    2.00
   6   8  -9   24.25    2.10
   5  -8  -9    3.06    0.75
   5  -8  -9    3.52    0.80
  -5   8   9    3.06    0.91
   4  -8  -9    6.06    0.87
   4  -8  -9    5.03    0.88
  -4  -8   9    3.29    0.99
   4   8  -9    3.87    0.91
   4   8  -9    3.53    0.77
  -4   8   9    3.94    0.97
  -3  -8   9    5.13    1.05
   3  -8  -9    5.08    0.89
   3  -8  -9    4.99    0.83
  -3   8   9    5.06    1.05
   3   8  -9    5.70    0.87
   3   8  -9    6.20    1.03
   2  -8  -9    5.85    0.93
  -2  -8   9    6.80    1.14
  -2   8   9    6.22    1.10
   2   8  -9    6.97    1.05
   2   8  -9    6.45    0.97
   1  -8  -9    1.71    0.58
  -1  -8   9    3.51    0.93
  -1   8   9    1.17    0.92
   1   8  -9    3.74    0.83
   0  -8  -9    5.97    0.96
   0  -8   9    9.89    1.42
   0  -8   9   10.61    1.22
   0   8  -9    8.93    1.26
   0   8   9    7.01    1.18
   1  -8   9   20.24    1.79
  -1  -8  -9   17.41    1.57
   1  -8   9   17.04    1.90
  -1   8  -9   18.37    1.83
   1   8   9   15.83    1.92
   2  -8   9   25.53    2.38
   2  -8   9   27.23    2.28
  -2  -8  -9   23.79    2.05
   2   8   9   23.02    2.42
  -2   8  -9   26.42    2.35
  -3  -8  -9    0.36    0.32
   3  -8   9    1.49    0.68
   3  -8   9    1.59    0.81
   3   8   9    0.19    0.85
  -3   8  -9    0.67    0.66
   4  -8   9   81.56    6.73
   4  -8   9   90.48    6.52
  -4   8  -9   86.11    6.71
   4   8   9   74.30    6.75
   5  -8   9   -0.07    0.79
   5   8   9    1.11    0.90
  -5   8  -9    0.17    0.61
   6  -8   9    2.84    0.92
   6   8   9    3.59    1.03
   6   8   9    3.53    1.04
   7  -8   9    0.38    0.82
   7   8   9    0.32    0.91
   8  -8   9    1.67    0.89
   8   8   9    1.48    1.00
   9  -8   9   -0.42    0.81
   9   8   9    0.49    1.00
  10  -8   9    3.55    0.95
  10   8   9   -0.32    0.94
  11  -8   9   -0.13    0.81
  11   8   9   -0.67    0.90
  13  -9  -9    0.60    0.82
  12  -9  -9    6.35    1.09
  11  -9  -9    0.88    0.82
  11   9  -9    2.26    1.04
  10  -9  -9    1.77    0.84
  10  -9  -9    1.32    0.85
  10   9  -9    0.73    0.79
  10   9  -9    0.36    0.94
   9  -9  -9    0.76    0.79
   9   9  -9    1.19    0.79
   9   9  -9    2.00    0.96
   8  -9  -9    2.24    0.81
   8   9  -9    1.76    0.81
   8   9  -9    1.30    0.87
   7  -9  -9    3.23    0.83
  -7  -9   9    1.65    0.88
   7   9  -9    2.74    0.91
   7   9  -9    1.72    0.76
  -6  -9   9   10.31    1.55
   6  -9  -9   14.90    1.45
  -6   9   9   13.58    1.53
   6   9  -9   10.70    1.50
   6   9  -9    8.60    1.37
   5  -9  -9    1.26    0.67
  -5  -9   9    0.84    0.86
   5  -9  -9    0.98    0.67
   5   9  -9    0.71    0.61
   5   9  -9    0.89    0.81
  -5   9   9    0.26    0.77
   4  -9  -9   20.27    2.00
   4  -9  -9   19.50    1.80
  -4  -9   9   17.96    1.99
   4   9  -9   16.65    1.77
   4   9  -9   18.36    1.93
  -4   9   9   17.51    1.95
  -3  -9   9    5.81    1.09
   3  -9  -9    5.62    0.89
   3   9  -9    6.10    1.02
   3   9  -9    5.67    0.89
  -3   9   9    4.33    1.05
  -2  -9   9   80.39    7.01
   2  -9  -9   90.02    6.74
  -2   9   9   92.40    7.04
   2   9  -9   83.29    7.01
  -1  -9   9    2.76    0.99
   1  -9  -9    6.20    0.84
   1   9  -9    3.79    0.91
  -1   9   9    5.67    1.06
   0  -9  -9   63.57    4.98
   0  -9   9   62.44    5.28
   0   9   9   65.93    5.31
   0   9  -9   63.86    5.27
  -1  -9  -9   23.57    1.97
   1  -9   9   23.33    2.31
   1   9   9   22.32    2.33
  -1   9  -9   24.48    2.25
   2  -9   9    3.88    0.94
  -2  -9  -9    3.42    0.52
  -2   9  -9    4.06    0.83
   2   9   9    1.94    0.97
   3  -9   9    6.71    1.16
   3   9   9    9.81    1.44
  -3   9  -9    7.72    1.25
   4  -9   9    2.03    0.88
   4   9   9   -0.07    0.91
  -4   9  -9    2.41    0.73
   5  -9   9   14.32    1.82
   5   9   9   20.39    1.95
  -5   9  -9   15.81    1.70
   6  -9   9   46.03    3.76
   6   9   9   40.68    3.79
   7  -9   9    1.16    0.90
   7   9   9    4.11    1.10
   8  -9   9   20.30    2.11
   8   9   9   21.44    2.26
   9  -9   9    6.89    1.12
   9   9   9    5.94    1.25
  10  -9   9    4.14    0.99
  10   9   9    4.82    1.22
  11  -9   9    2.65    0.90
  11   9   9    4.19    1.16
  12 -10  -9    1.80    0.87
  11 -10  -9    1.05    0.86
  11  10  -9    0.59    1.02
  10 -10  -9    0.91    0.79
  10  10  -9    1.34    0.99
  10  10  -9    1.34    0.84
   9  10  -9   10.56    1.47
   9  10  -9   11.66    1.61
   8 -10  -9   -0.30    0.67
   8  10  -9    1.38    0.91
   8  10  -9   -0.11    0.70
  -7 -10   9    2.90    0.98
   7 -10  -9    3.96    0.90
   7  10  -9    3.36    0.97
   7  10  -9    4.48    0.92
   6 -10  -9    2.29    0.76
   6 -10  -9    1.94    0.72
  -6 -10   9    1.77    0.96
   6  10  -9    2.57    0.91
   6  10  -9    2.21    0.72
  -6  10   9    1.62    0.83
  -5 -10   9    6.25    1.15
   5  10  -9    6.65    1.01
   5  10  -9    6.58    1.12
   4 -10  -9   34.46    2.90
   4 -10  -9   31.83    2.73
  -4 -10   9   30.40    2.89
  -4  10   9   32.75    2.90
   4  10  -9   31.65    2.89
   4  10  -9   28.90    2.70
   3 -10  -9   19.47    1.81
  -3  10   9   18.71    2.02
   2 -10  -9   18.48    1.69
  -2 -10   9   15.90    1.88
   2  10  -9   16.73    1.89
  -2  10   9   18.00    1.95
  -1 -10   9    6.01    1.05
   1 -10  -9    3.81    0.70
  -1  10   9    3.78    0.98
   0 -10  -9   14.69    1.38
   0  10   9   13.48    1.76
  -1 -10  -9   17.81    1.58
   1  10   9   17.53    1.96
   2 -10   9    0.60    0.73
  -2 -10  -9    0.07    0.37
   2 -10   9    0.15    0.83
   2  10   9    0.49    0.92
  -2  10  -9    1.12    0.73
   3 -10   9    1.83    0.88
   3  10   9    0.03    0.92
  -3  10  -9    2.81    0.78
   4 -10   9    1.04    0.83
  -4  10  -9    1.00    0.69
   4  10   9    0.74    0.96
   5 -10   9    4.92    1.02
  -5  10  -9    4.86    0.85
   5  10   9    2.52    1.06
   6 -10   9    2.62    0.96
   6  10   9    5.03    1.13
   7 -10   9    0.44    0.87
   7  10   9    0.33    0.89
   8  10   9    9.37    1.46
   9 -10   9    2.05    0.89
   9  10   9    0.81    0.98
  10 -10   9    6.67    1.08
  10  10   9    4.40    1.24
  11 -10   9   -1.25    0.80
  11  10   9   -0.31    0.96
  12 -11  -9    3.88    0.96
  11 -11  -9    0.35    0.86
  11  11  -9   -0.20    1.02
  10  11  -9    6.27    1.17
  10  11  -9    7.38    1.29
   9 -11  -9    0.27    0.73
   9  11  -9   -0.27    0.73
   9  11  -9   -0.37    0.90
   8 -11  -9   21.71    2.03
   8  11  -9   19.57    2.16
   8  11  -9   18.47    1.96
   7 -11  -9    0.50    0.69
  -7 -11   9    1.37    0.90
   7  11  -9    1.56    0.77
   7  11  -9    1.79    0.94
  -6 -11   9   14.68    1.89
   6 -11  -9   17.38    1.71
   6  11  -9   15.48    1.87
  -6  11   9   18.11    1.81
   6  11  -9   15.36    1.69
   5 -11  -9    0.60    0.67
   5 -11  -9    0.72    0.64
  -5 -11   9    0.50    0.90
   5  11  -9    0.89    0.84
  -5  11   9    0.47    0.80
   5  11  -9   -0.41    0.60
  -4 -11   9    6.27    1.17
   4  11  -9    8.70    1.32
  -3 -11   9    1.14    0.88
   3 -11  -9    0.32    0.59
  -3  11   9    0.38    0.91
   3  11  -9    0.47    0.78
   2 -11  -9   22.49    2.04
  -2  11   9   23.13    2.30
  -1 -11   9    4.80    1.00
   1 -11  -9    2.36    0.62
  -1  11   9    2.07    0.98
   0 -11   9   18.68    1.94
   0 -11  -9   16.05    1.58
   0  11   9   16.14    1.95
   0  11  -9   20.20    1.91
   1 -11   9    2.32    0.91
   1  11   9    4.88    1.09
  -1  11  -9    2.30    0.85
   2 -11   9    1.14    0.83
  -2 -11  -9    1.02    0.42
   2 -11   9    1.40    0.88
   2  11   9    1.93    0.98
  -2  11  -9    0.96    0.77
   3 -11   9    2.66    0.84
   3 -11   9    2.18    0.92
   3  11   9    5.09    1.08
  -3  11  -9    2.44    0.79
   4 -11   9    1.79    0.91
  -4  11  -9    2.12    0.77
   4  11   9    3.65    1.03
   5 -11   9   13.70    1.70
  -5  11  -9   12.78    1.55
   5  11   9   17.45    1.82
   6 -11   9    4.13    0.99
   6  11   9    2.20    1.05
   7 -11   9    4.55    0.99
   7  11   9    0.80    0.91
   8 -11   9    1.79    0.89
   8  11   9    0.76    0.93
   9 -11   9    0.45    0.86
   9  11   9    0.49    0.98
  10 -11   9   -0.08    0.84
  10  11   9    0.46    0.99
  11 -11   9    2.86    0.95
  12 -12  -9    0.59    0.85
  11 -12  -9    0.29    0.82
  10  12  -9    0.83    1.01
  10  12  -9    0.94    0.84
   9  12  -9    7.92    1.22
   9  12  -9    6.70    1.30
   8  12  -9    5.57    1.06
   8  12  -9    7.07    1.25
  -7 -12   9   15.63    1.88
   7  12  -9   15.80    1.91
   7  12  -9   15.44    1.69
   6 -12  -9    4.43    0.90
  -6 -12   9    3.88    1.07
   6  12  -9    5.00    1.11
   6  12  -9    5.42    0.96
   5 -12  -9   10.35    1.58
   5 -12  -9    9.39    1.30
  -5 -12   9   12.09    1.60
  -5  12   9    8.89    1.52
   5  12  -9   12.03    1.59
   5  12  -9   12.00    1.32
   4 -12  -9    0.38    0.60
  -4 -12   9    1.06    0.90
   4  12  -9    1.32    0.86
  -4  12   9    0.84    0.89
  -3 -12   9   61.20    4.58
   3 -12  -9   44.95    4.26
   3  12  -9   63.01    4.56
  -3  12   9   45.75    4.49
   2 -12  -9    4.18    0.76
  -2  12   9    4.33    1.06
   1 -12  -9    0.38    0.53
  -1 -12   9    1.09    0.86
   1  12  -9    0.47    0.81
  -1  12   9    1.34    0.95
   0 -12  -9    4.59    0.75
   0 -12   9    7.34    1.15
   0  12   9    5.67    1.16
   1 -12   9    3.73    0.99
   1  12   9    2.07    1.02
  -1  12  -9    3.97    0.93
  -2 -12  -9   67.36    5.34
   2 -12   9   71.83    5.74
  -2  12  -9   77.28    5.74
   2  12   9   61.79    5.74
   3 -12   9    0.54    0.81
   3 -12   9    0.41    0.84
   3  12   9    2.43    1.00
  -3  12  -9    0.24    0.74
   4 -12   9   60.50    4.62
   4 -12   9   52.12    4.61
  -4  12  -9   59.53    4.58
   4  12   9   47.03    4.63
   5 -12   9   -0.01    0.83
   5  12   9   -0.71    0.97
   6  12   9   20.22    2.19
   7 -12   9   -0.93    0.84
   7  12   9   -0.50    0.85
   8 -12   9    3.46    0.98
   8  12   9    3.29    1.16
   9 -12   9    3.33    0.98
   9  12   9    3.16    1.16
  10 -12   9   -0.56    0.89
  10  12   9   -0.72    0.98
  11 -12   9    1.66    0.89
  12 -13  -9    2.32    0.94
  11 -13  -9    0.01    0.77
  10  13  -9    3.68    1.16
   9  13  -9    1.52    1.04
   9  13  -9    1.93    0.85
   8 -13  -9    2.36    0.84
   8  13  -9    3.96    0.94
   8  13  -9    3.83    1.09
  -7 -13   9    1.60    0.95
   7 -13  -9    1.04    0.76
   7  13  -9    1.78    0.77
   7  13  -9    3.14    1.01
   6 -13  -9    5.73    0.98
  -6 -13   9    3.26    1.03
   6  13  -9    4.04    0.90
   6  13  -9    3.87    1.07
   5 -13  -9    7.33    1.12
  -5 -13   9    4.90    1.17
  -5  13   9    6.57    1.10
   5  13  -9    5.61    1.18
  -4 -13   9   15.42    1.87
   4 -13  -9   15.27    1.59
  -4  13   9   15.14    1.83
   4  13  -9   13.63    1.77
  -3 -13   9    1.19    0.91
   3 -13  -9    0.56    0.61
   3  13  -9    1.34    0.91
  -3  13   9   -0.86    0.92
   2 -13  -9    0.77    0.58
  -2 -13   9    0.24    0.87
   2  13  -9   -0.22    0.85
  -2  13   9    0.42    0.94
   1 -13  -9   48.04    3.55
  -1  13   9   48.42    3.84
   1  13  -9   34.06    3.76
   0 -13   9   24.89    2.17
   0 -13  -9   18.08    1.81
   0  13   9   18.37    2.17
  -1 -13  -9   -0.04    0.44
   1 -13   9   -0.64    0.84
  -1  13  -9    0.39    0.80
   1  13   9    0.56    0.99
  -2 -13  -9    2.88    0.51
   2 -13   9    4.00    1.01
  -2  13  -9    4.67    0.97
   2  13   9    2.25    1.07
   3 -13   9    3.14    0.98
   3 -13   9    3.31    0.98
   3  13   9    4.01    1.11
  -3  13  -9    3.15    0.87
   4 -13   9    0.05    0.80
   4 -13   9    0.56    0.86
   4  13   9   -0.22    0.95
  -4  13  -9    0.11    0.70
   5 -13   9    0.18    0.85
   5  13   9    0.52    0.87
   6 -13   9    9.59    1.55
   6  13   9   13.30    1.72
   7 -13   9    1.38    0.89
   7  13   9    0.99    0.92
   8 -13   9    4.37    1.05
   8  13   9    4.83    1.23
   9 -13   9    0.71    0.90
   9  13   9    1.08    1.01
  10 -13   9   -0.01    0.89
  10  13   9    0.89    1.02
  11 -13   9    0.13    0.83
  10  14  -9   -0.77    1.01
   9  14  -9    7.01    1.34
   9  14  -9    7.17    1.19
   8 -14  -9    0.06    0.74
   8  14  -9    0.29    0.77
   8  14  -9    1.59    1.03
  -7 -14   9    8.70    1.38
   7  14  -9   10.31    1.48
  -6 -14   9    9.76    1.59
   6 -14  -9   10.25    1.33
   6  14  -9    9.27    1.56
   5 -14  -9    0.14    0.62
  -5 -14   9    1.22    0.93
  -5  14   9    0.42    0.85
   5  14  -9    1.97    0.97
  -4 -14   9   10.97    1.75
   4 -14  -9   15.64    1.51
   4  14  -9   12.39    1.71
  -4  14   9   14.20    1.74
  -3 -14   9    4.20    1.09
   3 -14  -9    1.58    0.67
  -3  14   9    2.35    0.99
   3  14  -9    6.31    1.11
   2 -14  -9   30.30    2.42
  -2 -14   9   22.70    2.63
   2  14  -9   25.46    2.63
  -2  14   9   31.20    2.71
   1 -14  -9   16.57    1.73
  -1 -14   9   20.99    2.09
  -1  14   9   15.93    2.09
   1  14  -9   22.49    2.10
   0 -14  -9   44.73    3.69
   0 -14   9   45.49    3.99
   0  14   9   42.52    4.01
   0  14  -9   51.28    4.00
   1 -14   9    9.39    1.46
   1  14   9    5.96    1.29
  -1  14  -9   11.13    1.46
   2 -14   9    1.77    0.91
  -2 -14  -9    1.60    0.44
  -2  14  -9    1.46    0.84
   2  14   9    1.96    1.04
   3 -14   9   10.33    1.45
  -3  14  -9    9.25    1.39
   4 -14   9    6.64    1.18
  -4  14  -9    8.09    1.13
   5 -14   9    0.68    0.90
   5  14   9    3.38    1.10
   6 -14   9   18.73    1.90
   6  14   9   12.66    1.91
   7 -14   9    0.68    0.91
   7  14   9    2.58    1.13
   8  14   9    5.01    1.26
   9 -14   9    2.27    0.98
   9  14   9    4.34    1.24
  10 -14   9   17.44    1.94
   9  15  -9    0.53    1.02
   8 -15  -9    1.35    0.82
   8  15  -9   -0.39    1.00
  -7 -15   9    2.24    1.05
   7 -15  -9    1.54    0.78
   7  15  -9    2.60    1.06
  -6 -15   9    5.39    1.17
   6  15  -9    5.39    1.19
  -5 -15   9    0.26    0.93
   5 -15  -9   -0.29    0.64
  -5  15   9    0.20    0.86
   5  15  -9    0.45    0.91
  -4 -15   9    7.93    1.32
   4  15  -9    9.25    1.36
   3 -15  -9    1.45    0.65
  -3 -15   9    0.60    0.95
   3  15  -9   -0.01    0.85
  -3  15   9    0.63    1.00
   2 -15  -9    4.61    0.80
  -2 -15   9    2.15    1.03
  -2  15   9    4.32    1.15
   2  15  -9    2.45    0.97
   1 -15  -9    8.93    1.15
  -1  15   9    8.74    1.43
   0 -15   9   -0.13    0.89
   0 -15  -9   -0.16    0.50
   0  15  -9    0.24    0.85
   0  15   9   -0.64    0.99
  -1 -15  -9    9.23    1.06
   1  15   9    8.24    1.40
   2 -15   9    3.25    0.99
  -2 -15  -9    1.69    0.49
  -2  15  -9    5.00    1.00
   2  15   9    1.79    1.09
  -3  15  -9   10.31    1.46
   4 -15   9    3.88    1.02
   4  15   9    2.27    1.16
   5 -15   9    1.55    0.97
   5  15   9    4.82    1.22
   6 -15   9    2.30    0.96
   6  15   9    0.27    0.97
   7 -15   9    2.65    1.02
   7  15   9    0.66    1.00
   8 -15   9   -0.40    0.88
   8  15   9   -0.12    0.95
   9 -15   9    0.94    0.91
   9  15   9    0.14    1.00
  10 -15   9    0.66    0.89
   9  16  -9   -0.24    1.04
   8  16  -9    0.81    1.03
   7 -16  -9    8.23    1.31
  -7 -16   9    7.70    1.36
   7  16  -9    9.18    1.45
   6 -16  -9    1.91    0.81
  -6 -16   9    0.46    1.00
   6  16  -9    1.81    1.06
  -5 -16   9   25.82    2.71
   5  16  -9   28.48    2.72
   4 -16  -9   -0.25    0.65
  -4 -16   9   -0.07    0.91
  -4  16   9    0.01    0.95
   4  16  -9    0.21    0.91
   3 -16  -9    7.51    1.16
  -3  16   9    6.73    1.30
  -2 -16   9   11.57    1.85
   2 -16  -9   18.01    1.61
  -2  16   9   17.00    1.95
   2  16  -9   12.70    1.82
  -1 -16   9   69.06    5.96
   1  16  -9   73.98    5.96
   0 -16   9   31.93    2.87
   0 -16  -9   27.37    2.47
   0  16   9   24.78    2.82
   0  16  -9   33.35    2.81
   1 -16   9    3.94    1.07
  -1 -16  -9    1.38    0.53
  -1  16  -9    4.18    1.02
   1  16   9    0.56    0.90
   2 -16   9   36.77    3.37
  -2 -16  -9   35.54    2.94
   2  16   9   35.08    3.36
  -2  16  -9   41.32    3.35
   3 -16   9    3.12    1.06
  -3  16  -9    4.65    0.97
   3  16   9    0.98    0.99
   4 -16   9   22.51    2.37
   4  16   9   23.52    2.48
   5 -16   9    0.68    0.97
   5  16   9   -0.75    0.94
   6 -16   9    6.61    1.24
   6  16   9    7.48    1.44
   7 -16   9    0.75    0.94
   7  16   9    0.07    0.98
   8 -16   9    0.27    0.93
   8  16   9    0.45    1.05
   9 -16   9    0.78    0.91
  10 -16   9    3.91    1.06
   8  17  -9   -0.52    1.03
   7 -17  -9    0.11    0.77
  -7 -17   9    0.09    0.96
   7  17  -9    0.06    1.01
  -6 -17   9    2.11    1.09
   6 -17  -9    3.10    0.89
   6  17  -9    0.90    1.05
  -5 -17   9    1.49    1.04
   5 -17  -9    4.66    0.92
   5  17  -9    2.10    1.11
  -4 -17   9    0.47    0.99
   4 -17  -9    1.34    0.74
  -4  17   9    0.91    0.94
   4  17  -9    0.43    0.99
   3 -17  -9    2.26    0.75
  -3 -17   9    1.59    1.01
  -3  17   9    1.20    1.08
   3  17  -9    2.57    1.05
  -2 -17   9    5.37    1.17
   2  17  -9    5.27    1.24
  -2  17   9    8.61    1.42
  -1 -17   9   -0.05    0.97
   1 -17  -9    3.12    0.72
   1  17  -9    1.52    0.99
  -1  17   9    2.95    1.17
   0 -17  -9    2.03    0.62
   0 -17   9   -0.35    0.96
   0  17   9    0.46    0.95
   0  17  -9    0.48    0.94
   1 -17   9    2.37    1.05
  -1 -17  -9    5.10    0.72
  -1  17  -9    5.05    1.10
   1  17   9    4.46    1.25
   2 -17   9   -0.01    0.90
   2  17   9    0.06    0.95
  -2  17  -9    0.99    0.87
   3 -17   9   -0.05    0.91
   3  17   9   -0.27    0.96
  -3  17  -9    0.56    0.82
   4 -17   9    0.43    0.93
   4  17   9   -0.42    0.96
   5 -17   9    0.79    0.96
   5  17   9   -0.18    0.97
   6 -17   9    4.47    1.18
   6  17   9    7.00    1.41
   7 -17   9   -0.12    0.93
   7  17   9   -0.71    1.01
   8 -17   9   -0.30    0.92
   8  17   9    0.71    1.07
   9 -17   9    0.21    0.91
  10 -17   9    0.77    0.95
   8  18  -9   -0.22    1.05
   7  18  -9   10.87    1.64
   6 -18  -9    1.15    0.83
  -6 -18   9    0.63    1.03
   6  18  -9    1.27    1.09
  -5 -18   9    7.14    1.42
   5  18  -9    8.33    1.41
  -4 -18   9    0.13    0.95
   4 -18  -9    0.88    0.72
   4  18  -9    0.22    0.98
  -3 -18   9    2.34    1.06
   3 -18  -9    2.92    0.80
  -3  18   9    2.44    1.13
   3  18  -9    2.24    1.07
  -2 -18   9    1.74    1.02
  -2  18   9    2.63    1.07
   2  18  -9    1.00    0.98
   1 -18  -9    2.43    0.72
  -1 -18   9    4.87    1.14
  -1  18   9    1.75    1.02
   0 -18   9    1.23    1.02
   0 -18  -9    3.32    0.67
   0  18   9    1.83    1.01
   0  18  -9    3.54    1.06
  -1 -18  -9    2.07    0.59
   1 -18   9    3.02    1.03
   1  18   9    1.76    1.11
  -1  18  -9    4.57    1.07
   2 -18   9    2.43    1.02
  -2  18  -9    3.18    0.98
   2  18   9    0.58    0.98
   3 -18   9    3.89    1.08
   3  18   9    0.45    0.98
   4 -18   9    0.85    0.96
   4  18   9    0.57    1.04
   5 -18   9    9.04    1.27
   5  18   9    1.67    1.12
   6 -18   9   26.09    2.33
   6  18   9   15.86    2.39
   7 -18   9   -0.14    0.97
   7  18   9    0.51    1.08
   8 -18   9   10.43    1.63
   9 -18   9    0.32    0.96
   7  19  -9    0.81    1.09
  -6 -19   9    3.19    1.15
   6  19  -9    4.54    1.24
   5 -19  -9    0.25    0.76
  -5 -19   9    0.64    1.00
   5  19  -9    0.04    1.05
  -4 -19   9   -0.08    1.01
   4 -19  -9    0.37    0.72
   4  19  -9    0.06    1.00
   3 -19  -9    0.22    0.69
  -3 -19   9    0.31    0.96
   3  19  -9    0.87    1.03
  -3  19   9   -0.04    0.95
   2 -19  -9    0.30    0.66
  -2 -19   9    0.27    0.97
   2  19  -9    0.44    0.99
  -2  19   9   -0.42    0.96
   1 -19  -9   -0.29    0.59
  -1 -19   9    1.12    1.01
  -1  19   9    0.22    0.96
   1  19  -9    1.77    1.03
   0 -19  -9    2.22    0.64
   0 -19   9   -0.01    0.97
   0  19   9    1.60    1.03
   0  19  -9    0.62    0.97
   1 -19   9    0.02    0.92
  -1  19  -9    0.04    0.90
   1  19   9    1.70    1.15
   2 -19   9    2.51    1.04
   2  19   9    0.49    0.98
  -2  19  -9    1.81    0.95
   3 -19   9    0.88    0.96
   3  19   9    2.76    1.24
   4 -19   9   -0.01    0.96
   4  19   9    0.77    1.06
   5 -19   9    1.85    1.04
   5  19   9    4.52    1.37
   6 -19   9    1.80    1.04
   6  19   9    1.41    1.12
   7 -19   9    0.11    0.96
   7  19   9   -0.15    1.09
   8 -19   9   -0.15    0.98
   7  20  -9    6.39    1.43
  -6 -20   9    0.89    1.11
   6 -20  -9    0.62    0.80
   6  20  -9    1.40    1.17
  -5 -20   9    6.18    1.32
   5 -20  -9    4.83    1.07
   5  20  -9    7.90    1.44
  -4 -20   9   -0.10    1.01
   4 -20  -9    0.98    0.76
   4  20  -9    1.01    1.06
   3 -20  -9   10.50    1.38
  -3  20   9    8.32    1.49
   2 -20  -9    2.04    0.78
  -2 -20   9    0.79    1.01
   2  20  -9    2.26    1.10
  -2  20   9    1.36    1.04
  -1 -20   9   11.31    1.61
  -1  20   9    2.94    1.38
   1  20  -9   10.86    1.63
   0 -20  -9   16.16    1.61
   0 -20   9   15.20    1.99
   0  20  -9   15.79    2.00
   0  20   9   15.24    2.06
   1 -20   9    7.86    1.39
  -1  20  -9    8.29    1.40
   2 -20   9    5.11    1.24
   2  20   9    6.89    1.47
   3 -20   9   -0.35    0.96
   3  20   9    0.19    1.03
   4 -20   9    1.19    1.02
   4  20   9    2.02    1.11
   5 -20   9    0.47    0.99
   5  20   9    1.20    1.13
   6 -20   9    4.27    1.19
   6  20   9    5.76    1.50
   7 -20   9    0.97    1.03
  -6 -21   9   -0.61    1.06
   6  21  -9   -1.09    1.14
   5 -21  -9    0.80    0.83
  -5 -21   9    0.53    1.10
   5  21  -9    1.88    1.17
   4 -21  -9    1.15    0.78
  -4 -21   9    0.58    1.07
   4  21  -9    0.67    1.15
  -3 -21   9    5.45    1.32
   3 -21  -9    8.60    1.26
   3  21  -9    6.68    1.39
   2 -21  -9    0.70    0.72
  -2 -21   9    0.75    1.05
  -2  21   9    0.99    1.05
   2  21  -9    0.76    1.07
   1 -21  -9    1.23    0.74
  -1 -21   9    0.63    1.06
  -1  21   9    2.32    1.25
   1  21  -9    0.67    1.08
   0 -21   9    4.07    1.20
   0  21   9    1.55    1.10
   0  21  -9    4.53    1.26
   1 -21   9    0.28    1.01
   1  21   9    0.25    1.05
  -1  21  -9    1.52    1.06
   2 -21   9    1.68    1.03
   2  21   9    0.58    1.11
   3 -21   9   -0.15    0.98
   3  21   9   -0.46    1.08
   4 -21   9    0.93    1.03
   4  21   9    0.31    1.13
   5 -21   9    2.40    1.15
   5  21   9    3.20    1.41
   6 -21   9   -0.05    1.01
   6  21   9   -0.60    1.13
  -6 -22   9    0.00    1.12
   6  22  -9    0.43    1.22
  -5 -22   9    7.41    1.53
   5  22  -9    9.64    1.66
  -4 -22   9   -0.70    1.07
   4 -22  -9    1.18    0.82
   4  22  -9   -0.07    1.21
  -3 -22   9    8.14    1.54
   3 -22  -9   12.65    1.49
   3  22  -9   10.70    1.71
   2 -22  -9    1.00    0.73
  -2 -22   9    2.43    1.12
  -2  22   9    0.61    1.06
   2  22  -9    3.63    1.31
  -1 -22   9   12.35    1.91
   1  22  -9   15.20    2.03
  -1  22   9   13.64    2.07
   0 -22   9    2.38    1.14
   0  22   9    0.82    1.04
   0  22  -9    2.37    1.17
   1 -22   9    0.21    1.03
   1  22   9    0.48    1.11
   2 -22   9    2.40    1.14
   2  22   9    1.15    1.12
   3 -22   9    1.30    1.07
   3  22   9    0.67    1.09
   4 -22   9   13.24    1.88
   4  22   9   13.25    2.18
   5 -22   9    1.46    1.08
   5  22   9   -0.14    1.17
  -5 -23   9   -1.23    1.06
   5  23  -9   -0.61    1.20
  -4 -23   9   -0.36    1.07
   4 -23  -9    0.04    0.77
   4  23  -9    0.39    1.24
   3 -23  -9    1.36    0.79
  -3 -23   9   -0.33    1.06
   3  23  -9   -0.69    1.17
  -2 -23   9    1.54    1.13
   2 -23  -9    4.52    0.91
   2  23  -9    1.62    1.24
  -1 -23   9    8.73    1.53
   1  23  -9    9.85    1.62
   0 -23   9    1.30    1.07
   0  23   9    4.75    1.42
   0  23  -9    2.64    1.22
   1 -23   9    1.11    1.03
   1  23   9    0.75    1.14
   2 -23   9   -0.74    0.97
   2  23   9   -0.09    1.14
   3 -23   9    0.44    1.03
   3  23   9    0.94    1.17
   4 -23   9    0.15    1.00
   4  23   9    1.40    1.25
  -5 -24   9    0.74    1.11
   5  24  -9    0.49    1.32
  -4 -24   9    1.83    1.18
   4  24  -9    2.08    1.35
  -3 -24   9   -1.05    1.08
   3 -24  -9   -0.49    0.73
   3  24  -9   -0.59    1.24
  -2 -24   9    0.63    1.09
   2  24  -9    1.13    1.24
  -1 -24   9    0.46    1.07
   1  24  -9    0.01    1.18
  -1  24   9   -0.33    1.07
   0  24   9   13.58    2.09
   1 -24   9    1.42    1.10
   1  24   9    3.40    1.48
   2 -24   9   -0.63    1.02
   2  24   9    0.66    1.21
   3  24   9    0.74    1.19
   4  24   9   -0.55    1.22
  -5 -25   9   -0.28    1.13
  -4 -25   9    1.40    1.17
   4  25  -9    1.96    1.39
  -3 -25   9    0.67    1.16
   3  25  -9    1.64    1.36
  -2 -25   9    3.66    1.31
   2  25  -9    6.25    1.51
  -1 -25   9    0.26    1.13
   1  25  -9    0.24    1.21
   0 -25   9    8.63    1.45
   0  25   9    1.34    1.22
   1  25   9    0.98    1.21
   2  25   9    5.24    1.65
   3  25   9    0.05    1.21
   3  26  -9    3.50    1.47
   2  26  -9   -0.31    1.27
   1  26   9    0.60    1.20
   2  26   9    6.42    1.74
   1  27   9    0.27    1.25
  12   0 -10    3.26    1.02
  11   0 -10    4.48    1.06
  10   0 -10   11.51    1.55
  10   0 -10   10.95    1.52
   9   0 -10   13.77    1.60
   9   0 -10   11.91    1.58
   8   0 -10    6.55    1.11
   8   0 -10    8.72    1.30
   7   0 -10    2.93    0.84
   7   0 -10    2.95    0.89
  -7   0  10    2.92    0.89
   7   0 -10    2.59    0.81
   6   0 -10    5.97    1.02
  -6   0  10    5.60    1.07
   6   0 -10    6.59    1.03
   6   0 -10    6.75    1.01
  -5   0  10   18.53    1.99
   5   0 -10   18.26    1.91
   5   0 -10   20.08    2.02
   5   0 -10   18.44    1.84
   4   0 -10    1.62    0.66
   4   0 -10    0.97    0.73
  -4   0  10    1.01    0.85
   3   0 -10    3.21    0.75
  -3   0  10    2.07    0.93
   3   0 -10    2.64    0.83
  -2   0  10   35.62    3.06
   2   0 -10   35.54    3.02
   2   0 -10   36.77    3.18
  -2   0  10   36.77    3.24
   1   0 -10  100.31    8.04
   1   0 -10  106.61    8.38
  -1   0  10  103.18    8.39
  -1   0  10  107.41    8.08
   0   0 -10    0.49    0.50
   0   0  10    0.04    0.63
   0   0  10    0.77    0.83
   0   0 -10    0.50    0.66
   1   0  10  112.79    8.29
   1   0  10  106.08    8.64
  -1   0 -10  102.88    8.25
  -1   0 -10  108.67    8.62
   2   0  10   13.88    1.71
  -2   0 -10   13.96    1.58
   2   0  10   14.40    1.50
  -3   0 -10   74.21    5.93
   3   0  10   66.94    5.94
   3   0  10   76.39    5.66
  -4   0 -10   37.94    3.34
   4   0  10   41.69    3.16
   4   0  10   35.85    3.37
   5   0  10   32.74    3.14
   5   0  10   37.44    2.92
  -5   0 -10   36.08    3.10
   6   0  10    7.23    1.19
   6   0  10    9.41    1.06
  -6   0 -10    7.27    1.15
   7   0  10    7.60    1.20
   8   0  10   17.26    1.92
   9   0  10    0.39    0.90
  10   0  10   16.85    1.92
  11   0  10    2.03    0.97
  12   0  10    5.32    1.13
  12  -1 -10   -0.16    0.86
  12   1 -10    0.42    0.91
  11  -1 -10    0.71    0.87
  11   1 -10    1.13    0.91
  10  -1 -10    2.01    0.87
  10  -1 -10    2.39    0.94
  10   1 -10    2.91    0.93
  10   1 -10    1.93    0.87
   9  -1 -10    2.52    0.91
   9  -1 -10    1.82    0.85
   9   1 -10    4.79    0.97
   9   1 -10    4.31    0.99
   8  -1 -10    5.32    0.99
   8  -1 -10    4.47    0.95
   8   1 -10    3.96    0.92
   8   1 -10    2.77    0.93
   7  -1 -10    3.60    0.85
   7  -1 -10    3.64    0.89
   7  -1 -10    3.34    0.83
  -7   1  10    2.66    0.89
   6  -1 -10    2.42    0.77
   6  -1 -10    1.71    0.72
   6  -1 -10    2.66    0.79
  -6  -1  10   -0.05    0.83
   6   1 -10    0.79    0.67
   6   1 -10    1.26    0.77
   6   1 -10    0.84    0.72
  -6   1  10    1.84    0.86
   5  -1 -10    0.12    0.67
  -5  -1  10    0.01    0.85
   5  -1 -10    0.24    0.73
   5  -1 -10    0.51    0.65
   5   1 -10    1.85    0.68
  -5   1  10   -0.16    0.81
   5   1 -10    1.27    0.73
  -4  -1  10    4.34    1.02
   4   1 -10    4.94    0.87
   4   1 -10    3.73    0.90
  -4   1  10    7.10    1.08
  -3  -1  10    0.56    0.84
   3  -1 -10    0.14    0.68
   3  -1 -10    0.18    0.56
   3   1 -10    1.46    0.72
  -3   1  10   -0.29    0.86
   3   1 -10    1.11    0.62
   2  -1 -10   11.82    1.44
   2  -1 -10   12.33    1.35
  -2   1  10   12.46    1.65
  -2   1  10   11.85    1.45
  -1  -1  10   42.00    3.00
   1  -1 -10   31.43    2.88
  -1  -1  10   40.09    3.17
   1  -1 -10   27.81    3.01
   1   1 -10   41.06    3.08
  -1   1  10   33.18    2.95
  -1   1  10   28.56    3.07
   1   1 -10   36.48    2.90
   0  -1  10    5.75    0.92
   0  -1  10    5.92    1.09
   0   1 -10    6.93    0.99
   0   1 -10    5.88    0.83
  -1  -1 -10    6.26    0.95
  -1  -1 -10    6.71    0.92
   1  -1  10    7.39    1.14
   1  -1  10    6.77    1.13
  -1   1 -10    8.60    1.18
   1   1  10    4.87    1.09
   1   1  10    6.34    0.95
  -1   1 -10    7.20    0.96
   2  -1  10    4.41    1.00
   2  -1  10    4.28    0.83
  -2   1 -10    5.98    0.92
  -3  -1 -10   16.09    1.69
   3   1  10   13.26    1.76
   3   1  10   17.92    1.58
  -4  -1 -10    2.70    0.76
   4  -1  10    4.21    0.98
  -4   1 -10    5.04    0.80
   4   1  10    1.19    0.58
   4   1  10    1.72    0.91
   5  -1  10    4.49    1.00
   5  -1  10    4.07    0.76
  -5  -1 -10    2.56    0.77
   5   1  10    1.85    0.93
  -5   1 -10    4.21    0.78
   6  -1  10    2.62    0.67
  -6  -1 -10    3.43    0.76
   6  -1  10    1.99    0.93
   6   1  10    3.79    0.98
  -6   1 -10    2.16    0.69
   7  -1  10    0.32    0.90
   7   1  10    0.62    0.87
   8  -1  10    4.67    1.06
   8   1  10    4.36    1.04
   9  -1  10    0.56    0.87
   9   1  10    0.04    0.86
  10  -1  10    1.48    0.95
  10   1  10    1.10    0.98
  11  -1  10   -0.67    0.92
  11   1  10   -0.98    0.92
  12  -1  10   -1.45    0.85
  12   1  10   -1.26    0.90
  12  -2 -10    0.09    0.88
  12   2 -10    0.71    0.92
  11  -2 -10    0.47    0.89
  11   2 -10    1.28    0.94
  10  -2 -10    4.21    1.02
  10  -2 -10    5.04    1.06
  10   2 -10    4.71    1.04
  10   2 -10    5.66    1.10
   9  -2 -10   11.74    1.46
   9  -2 -10   10.37    1.40
   9   2 -10   10.09    1.44
   9   2 -10    7.91    1.29
   8  -2 -10   16.64    1.90
   8  -2 -10   16.23    1.87
   8   2 -10   21.84    1.99
   8   2 -10   19.28    1.90
   7  -2 -10   11.32    1.32
   7  -2 -10   12.28    1.54
  -7  -2  10    7.75    1.26
   7  -2 -10   12.23    1.37
   7   2 -10    9.13    1.47
   7   2 -10    7.63    1.27
  -7   2  10   10.67    1.41
   7   2 -10    8.29    1.40
  -6  -2  10   32.19    2.69
   6  -2 -10   25.87    2.51
   6  -2 -10   25.72    2.60
   6  -2 -10   28.64    2.68
  -6   2  10   24.54    2.60
   6   2 -10   31.96    2.56
   6   2 -10   31.12    2.63
  -5  -2  10   86.37    6.43
   5  -2 -10   71.37    6.17
   5  -2 -10   80.50    6.42
   5  -2 -10   71.55    6.38
   5   2 -10   86.23    6.23
  -5   2  10   68.71    6.37
   5   2 -10   85.37    6.42
   4  -2 -10    8.00    1.15
   4  -2 -10    6.79    1.03
  -4  -2  10    3.96    1.03
  -4   2  10    6.94    1.10
   4   2 -10    3.68    0.86
   4   2 -10    5.22    0.96
   3  -2 -10   74.04    6.30
  -3  -2  10   87.34    6.59
   3  -2 -10   72.75    6.52
   3   2 -10   86.50    6.57
   3   2 -10   85.76    6.34
  -3   2  10   78.31    6.58
   2  -2 -10    5.91    0.85
  -2  -2  10    5.42    1.07
  -2  -2  10    5.41    0.93
   2   2 -10    6.65    1.02
  -2   2  10    4.50    1.09
   2   2 -10    7.06    0.99
  -2   2  10    5.40    0.93
  -1  -2  10   77.27    5.91
   1  -2 -10   76.29    5.88
  -1  -2  10   76.81    6.16
  -1   2  10   73.95    5.89
  -1   2  10   70.06    6.15
   1   2 -10   75.41    6.12
   1   2 -10   76.92    5.89
   0  -2  10    0.34    0.85
   0  -2 -10    0.29    0.50
   0  -2  10   -0.90    0.63
   0   2  10   -0.56    0.60
   0   2 -10   -0.20    0.51
   0   2 -10    0.33    0.62
   0   2  10   -0.24    0.84
  -1  -2 -10   38.25    3.19
   1  -2  10   36.99    3.44
   1  -2  10   42.48    3.29
  -1   2 -10   39.82    3.39
   1   2  10   37.32    3.45
   1   2  10   43.52    3.26
   2  -2  10   27.58    2.40
   2  -2  10   23.51    2.54
   2   2  10   33.27    2.59
  -2   2 -10   25.34    2.44
   3  -2  10    0.76    0.82
   3  -2  10    0.15    0.65
   3   2  10   -0.02    0.84
  -3   2 -10    0.38    0.62
   3   2  10    0.44    0.53
   4  -2  10   64.41    4.90
   4  -2  10   56.16    5.13
  -4   2 -10   59.01    5.08
   4   2  10   59.46    5.15
   4   2  10   70.85    4.86
   5  -2  10    0.04    0.64
  -5  -2 -10    0.17    0.63
   5  -2  10   -0.01    0.81
   5   2  10    0.46    0.90
   5   2  10    1.45    0.54
  -5   2 -10    0.37    0.61
   6  -2  10   20.52    2.20
  -6  -2 -10   23.57    2.15
   6  -2  10   24.19    2.04
   6   2  10   24.51    1.91
   6   2  10   21.35    2.27
  -6   2 -10   20.08    2.07
   7  -2  10    3.39    0.94
   7   2  10    2.19    0.98
   8  -2  10   11.58    1.59
   8   2  10   13.01    1.60
   9  -2  10    0.64    0.89
   9   2  10    0.55    0.91
  10  -2  10    0.17    0.92
  10   2  10    0.47    0.91
  11  -2  10   -1.08    0.87
  11   2  10    0.87    0.96
  12  -2  10   -0.51    0.85
  12   2  10   -0.11    0.97
  12  -3 -10    0.64    0.87
  12   3 -10    0.61    0.94
  11  -3 -10    1.24    0.90
  11   3 -10    1.36    0.94
  10  -3 -10    4.75    1.06
  10  -3 -10    4.31    1.03
  10   3 -10    8.61    1.23
   9  -3 -10    0.60    0.84
   9  -3 -10    1.99    0.82
   9   3 -10    2.42    0.94
   9   3 -10    2.66    0.87
   8  -3 -10    3.26    0.93
   8  -3 -10    3.25    0.90
   8   3 -10    6.01    1.07
   8   3 -10    6.46    1.04
   7  -3 -10    2.72    0.83
  -7  -3  10    1.36    0.85
   7  -3 -10    1.57    0.74
  -7   3  10    1.85    0.84
   7   3 -10    1.31    0.83
   7   3 -10    2.10    0.80
   6  -3 -10    0.83    0.76
   6  -3 -10    0.58    0.69
   6  -3 -10    0.70    0.68
  -6  -3  10    0.25    0.85
   6   3 -10    0.56    0.67
   6   3 -10    0.73    0.78
  -6   3  10   -0.08    0.78
   5  -3 -10    0.91    0.73
   5  -3 -10    1.00    0.66
   5  -3 -10    1.39    0.74
  -5  -3  10    1.35    0.89
   5   3 -10    1.28    0.71
  -5   3  10    0.86    0.85
   5   3 -10    0.96    0.77
   4  -3 -10    4.46    0.84
  -4  -3  10    1.75    0.90
   4  -3 -10    4.53    0.82
   4   3 -10    2.23    0.74
   4   3 -10    2.34    0.82
  -4   3  10    3.45    0.99
  -3  -3  10    2.51    0.95
   3  -3 -10    2.02    0.68
   3   3 -10    3.29    0.74
  -3   3  10    1.77    0.92
   3   3 -10    3.07    0.81
  -2  -3  10    2.24    0.89
   2  -3 -10    1.98    0.63
  -2  -3  10    2.07    0.72
   2   3 -10    2.47    0.78
  -2   3  10    0.38    0.92
   2   3 -10    2.78    0.69
  -2   3  10    1.94    0.75
  -1  -3  10   -0.30    0.65
  -1  -3  10    0.26    0.78
   1  -3 -10    1.49    0.57
  -1   3  10    1.90    0.73
   1   3 -10    0.87    0.66
  -1   3  10   -0.14    0.88
   1   3 -10   -0.14    0.52
   0  -3  10   36.61    3.05
   0  -3  10   36.22    3.22
   0   3 -10   37.33    3.02
   0   3 -10   35.48    3.14
   1  -3  10    6.19    0.92
  -1  -3 -10    5.87    0.87
   1  -3  10    5.48    1.07
  -1   3 -10    5.91    0.92
   1   3  10    5.21    1.07
   1   3  10    7.06    1.05
   2  -3  10    2.70    0.75
   2  -3  10    3.10    0.95
  -2   3 -10    3.27    0.77
   2   3  10    5.83    1.07
   3  -3  10    4.66    0.85
   3  -3  10    3.75    0.98
  -3   3 -10    4.51    0.86
   3   3  10    5.11    1.09
   3   3  10    4.64    0.75
   4  -3  10    0.60    0.84
   4  -3  10    0.86    0.67
  -4   3 -10    1.24    0.66
   4   3  10    0.36    0.88
   4   3  10    0.97    0.56
   5  -3  10    3.87    1.02
   5  -3  10    4.30    0.86
  -5   3 -10    4.87    0.84
   5   3  10    6.36    0.81
   5   3  10    5.26    1.09
   6  -3  10   32.66    2.53
   6  -3  10   29.76    2.71
  -6   3 -10   29.88    2.60
   6   3  10   23.91    2.81
   7  -3  10   10.87    1.50
   7  -3  10   12.73    1.34
   7   3  10    8.13    1.36
   8  -3  10    4.31    1.02
   8   3  10    3.03    1.05
   9  -3  10   -0.25    0.85
   9   3  10    0.47    0.97
  10  -3  10    0.76    0.89
  10   3  10    1.49    0.98
  11  -3  10    1.62    0.93
  11   3  10    1.61    0.95
  12  -3  10   -0.59    0.87
  12   3  10   -0.09    0.96
  12  -4 -10    3.83    1.01
  12   4 -10    2.92    1.08
  11  -4 -10    1.60    0.90
  11   4 -10    0.74    0.94
  10  -4 -10    9.00    1.28
  10  -4 -10    7.33    1.16
  10   4 -10    5.32    1.14
  10   4 -10    3.32    1.04
   9  -4 -10    2.82    0.87
   9  -4 -10    3.70    0.94
   9   4 -10    2.69    0.91
   9   4 -10    2.44    0.94
   8  -4 -10    1.80    0.76
   8  -4 -10    1.36    0.81
   8   4 -10    0.21    0.81
   8   4 -10    0.97    0.77
   7  -4 -10    6.79    1.09
  -7  -4  10    5.71    1.09
   7  -4 -10    6.98    1.03
   7   4 -10    6.77    1.13
  -7   4  10    5.19    1.05
   7   4 -10    6.78    1.07
   6  -4 -10    1.50    0.71
  -6  -4  10    1.39    0.91
   6  -4 -10    0.90    0.69
   6  -4 -10    0.72    0.74
   6   4 -10    1.53    0.83
  -6   4  10    0.57    0.80
   6   4 -10    1.82    0.75
  -5  -4  10    2.71    0.96
   5   4 -10    3.03    0.80
  -5   4  10    5.01    1.02
   5   4 -10    3.64    0.91
  -4  -4  10    7.94    1.31
   4  -4 -10   12.36    1.27
   4   4 -10    8.55    1.35
  -4   4  10   11.26    1.49
   4   4 -10    8.46    1.26
  -3  -4  10   19.90    2.07
   3  -4 -10   20.45    1.86
  -3   4  10   18.95    2.09
   3   4 -10   20.14    1.88
   3   4 -10   19.47    1.98
  -2  -4  10    0.48    0.83
   2  -4 -10    0.25    0.54
   2   4 -10    0.18    0.57
  -2   4  10   -0.24    0.87
  -2   4  10    0.22    0.61
   2   4 -10   -0.12    0.65
  -1  -4  10   10.42    1.36
  -1  -4  10    9.88    1.50
   1   4 -10   11.34    1.26
   1   4 -10   12.53    1.38
   0  -4 -10    1.43    0.53
   0  -4  10    1.79    0.72
   0  -4  10    1.88    0.85
   0   4  10    1.43    0.69
   0   4  10    0.68    0.87
   0   4 -10    3.01    0.74
   0   4 -10    1.71    0.61
   1  -4  10   36.23    3.05
  -1  -4 -10   38.60    2.95
   1  -4  10   33.80    3.23
   1   4  10   39.94    3.29
  -1   4 -10   34.20    3.14
   2  -4  10    5.48    1.05
   2  -4  10    6.51    0.94
  -2   4 -10    6.64    1.08
   3  -4  10   35.58    3.22
   3  -4  10   41.10    3.09
  -3   4 -10   39.25    3.17
   3   4  10   30.53    3.23
   3   4  10   36.26    2.97
   4  -4  10    0.28    0.67
   4  -4  10    0.21    0.81
   4   4  10    1.13    0.54
  -4   4 -10    0.63    0.66
   4   4  10    0.44    0.87
   4   4  10    1.01    0.92
   5  -4  10    8.29    1.12
   5  -4  10    8.09    1.14
   5   4  10    4.15    1.10
   5   4  10    5.79    1.15
  -5   4 -10    7.53    1.11
   6  -4  10    4.31    1.00
   6  -4  10    4.64    0.86
   6   4  10    6.42    1.10
   6   4  10    6.52    1.13
   7  -4  10    5.30    0.85
   7  -4  10    4.66    1.03
   7   4  10    2.57    1.03
   8  -4  10    5.49    1.09
   8   4  10    7.14    1.21
   9  -4  10   -0.16    0.86
   9   4  10    2.14    1.01
  10  -4  10   18.56    1.97
  10   4  10   17.94    2.08
  11  -4  10    2.84    0.99
  11   4  10    3.89    1.07
  12  -4  10    1.94    0.94
  12   4  10    3.36    1.04
  12  -5 -10    1.42    0.89
  12   5 -10    2.42    1.05
  11  -5 -10   -0.01    0.84
  11   5 -10    0.86    0.95
  10  -5 -10    1.34    0.87
  10  -5 -10    0.87    0.80
  10   5 -10    0.28    0.89
  10   5 -10    0.74    0.86
   9  -5 -10    4.13    0.98
   9  -5 -10    3.61    0.97
   9   5 -10    7.40    1.14
   8  -5 -10    0.13    0.68
   8  -5 -10    0.89    0.82
   8   5 -10    0.56    0.85
   8   5 -10    0.69    0.76
  -7  -5  10    7.87    1.16
   7  -5 -10    5.67    1.01
   7  -5 -10    5.40    1.03
  -7   5  10    3.96    1.01
   7   5 -10    8.70    1.25
   7   5 -10    8.22    1.13
   6  -5 -10   20.48    1.82
  -6  -5  10   15.09    1.92
   6   5 -10   15.83    1.82
   6   5 -10   16.25    1.91
  -6   5  10   21.27    1.93
   5  -5 -10   26.87    2.46
   5  -5 -10   25.19    2.30
  -5   5  10   25.36    2.47
  -4  -5  10   20.37    2.06
   4   5 -10   18.33    1.84
   4   5 -10   18.81    1.96
  -3  -5  10    2.67    0.95
   3   5 -10    2.65    0.84
   3   5 -10    2.78    0.71
  -3   5  10    5.48    1.07
   2  -5 -10    6.83    0.96
  -2   5  10    5.01    1.05
  -2   5  10    5.90    0.96
  -1  -5  10    8.55    1.27
  -1  -5  10    8.58    1.26
   1   5 -10    8.62    1.13
   1   5 -10    8.38    1.24
   0  -5 -10   10.17    1.12
   0   5  10   10.29    1.25
   0   5  10    7.63    1.29
   1  -5  10    2.17    0.88
  -1  -5 -10    2.34    0.55
   1  -5  10    2.51    0.74
  -1   5 -10    3.69    0.79
   1   5  10    2.16    0.70
   1   5  10    1.53    0.95
   2  -5  10   12.70    1.46
  -2  -5 -10    9.22    1.04
   2   5  10    8.83    1.48
   2   5  10   10.50    1.19
   3  -5  10    2.52    0.90
   3  -5  10    3.33    0.77
   3   5  10    1.91    0.62
  -3   5 -10    3.71    0.79
   3   5  10    1.65    0.96
   4  -5  10   -0.25    0.82
   4  -5  10    0.50    0.67
   4   5  10    1.56    0.93
  -4   5 -10    0.48    0.65
   5  -5  10    0.16    0.65
   5  -5  10   -0.13    0.80
   5   5  10   -0.26    0.82
   5   5  10   -0.29    0.87
  -5   5 -10    0.20    0.62
   6  -5  10    0.36    0.86
   6  -5  10    1.20    0.68
   6   5  10    0.04    0.91
   6   5  10    0.35    0.93
   7  -5  10    2.23    0.75
   7  -5  10    2.18    0.90
   7   5  10    1.35    0.98
   8  -5  10    0.47    0.85
   8   5  10    1.55    1.01
   9  -5  10   -0.72    0.84
   9   5  10   -0.22    0.95
  10  -5  10    0.85    0.92
  10   5  10   -0.14    1.02
  11  -5  10   11.21    1.57
  11   5  10   10.55    1.66
  12  -5  10   -0.17    0.90
  12  -6 -10    3.15    0.97
  11  -6 -10    0.65    0.85
  11   6 -10    0.82    0.99
  10  -6 -10    0.53    0.84
  10   6 -10    1.83    0.97
  10   6 -10    0.72    0.85
   9  -6 -10    1.06    0.85
   9  -6 -10    0.50    0.76
   9   6 -10    3.36    0.98
   9   6 -10    3.09    0.93
   8  -6 -10    2.17    0.83
   8  -6 -10    1.38    0.84
   8   6 -10    3.99    0.94
   8   6 -10    3.99    0.99
   7  -6 -10    8.31    1.19
  -7  -6  10    6.45    1.15
   7  -6 -10    9.72    1.23
   7   6 -10    6.42    1.11
   7   6 -10    6.88    1.16
   6  -6 -10   13.04    1.78
  -6  -6  10   17.96    1.82
   6  -6 -10   10.83    1.53
   6   6 -10   17.40    1.70
   6   6 -10   16.73    1.63
  -6   6  10   11.51    1.65
   5  -6 -10    1.36    0.70
   5  -6 -10    1.57    0.69
  -5  -6  10    1.07    0.87
   5   6 -10    1.45    0.81
   5   6 -10    0.26    0.61
  -5   6  10    0.33    0.87
  -4  -6  10   18.57    1.94
   4  -6 -10   15.29    1.66
  -4   6  10   15.55    1.92
   4   6 -10   16.27    1.68
   4   6 -10   18.49    1.82
   3  -6 -10   19.75    2.15
  -3  -6  10   28.48    2.44
   3   6 -10   27.04    2.23
  -3   6  10   20.60    2.36
   3   6 -10   29.10    2.39
   2  -6 -10    1.85    0.60
  -2  -6  10   -0.15    0.83
  -2   6  10    2.05    0.74
   2   6 -10    0.43    0.57
   2   6 -10    0.29    0.72
  -2   6  10    0.87    0.88
   1  -6 -10   10.20    1.25
  -1  -6  10   14.21    1.61
  -1   6  10   10.23    1.39
   1   6 -10   14.05    1.34
   1   6 -10   14.29    1.47
  -1   6  10   10.00    1.63
   0  -6 -10    0.25    0.48
   0  -6  10    0.62    0.66
   0  -6  10   -0.47    0.84
   0   6 -10    0.55    0.70
   0   6  10   -0.25    0.86
   0   6  10    0.19    0.55
  -1  -6 -10    4.59    0.71
   1  -6  10    7.70    1.10
   1  -6  10    7.79    1.13
   1   6  10    4.43    0.82
   1   6  10    3.54    1.06
   2  -6  10   20.92    1.87
   2  -6  10   19.07    1.98
  -2  -6 -10   17.25    1.63
  -2   6 -10   20.67    1.91
   2   6  10   17.23    2.03
   2   6  10   18.51    1.71
   3  -6  10   21.50    1.99
   3  -6  10   17.94    2.06
  -3   6 -10   19.38    2.00
   3   6  10   24.53    2.20
   4  -6  10    3.72    0.83
   4  -6  10    3.21    0.94
  -4   6 -10    3.62    0.82
   4   6  10    6.98    1.09
   5  -6  10    5.41    1.04
   5  -6  10    6.11    0.94
  -5   6 -10    5.85    0.91
   5   6  10    6.35    1.14
   6  -6  10    1.88    0.90
   6  -6  10    2.93    0.79
   6   6  10    4.53    1.06
   7  -6  10    7.47    1.21
   7   6  10   10.04    1.49
   8  -6  10    1.84    0.94
   8   6  10    4.28    1.11
   9  -6  10    1.26    0.92
   9   6  10    0.85    1.03
  10  -6  10    1.86    0.96
  10   6  10    5.06    1.17
  11  -6  10    2.41    0.97
  11   6  10    0.84    1.04
  12  -7 -10    2.84    0.98
  11  -7 -10    4.90    1.06
  10  -7 -10    0.68    0.83
  10   7 -10    0.63    0.86
  10   7 -10    0.52    0.92
   9  -7 -10    0.67    0.74
   9  -7 -10    1.53    0.89
   9   7 -10    2.52    0.96
   9   7 -10    2.34    0.87
   8  -7 -10    0.94    0.77
   8  -7 -10    0.95    0.73
   8   7 -10    1.69    0.83
   8   7 -10    1.56    0.90
   7  -7 -10   -0.12    0.64
  -7  -7  10   -0.02    0.82
   7   7 -10   -0.29    0.78
   7   7 -10   -0.49    0.65
  -6  -7  10    0.04    0.85
   6  -7 -10    0.32    0.66
   6  -7 -10   -0.03    0.68
   6   7 -10    0.12    0.63
  -6   7  10   -0.29    0.80
   6   7 -10    0.21    0.77
   5  -7 -10    8.05    1.07
  -5  -7  10    4.26    1.08
   5   7 -10    5.31    1.05
  -5   7  10    7.06    1.11
   5   7 -10    4.75    0.91
  -4  -7  10    2.52    0.96
   4  -7 -10    3.94    0.77
   4   7 -10    2.00    0.71
   4   7 -10    2.36    0.83
  -4   7  10    2.63    0.95
   3  -7 -10    0.77    0.59
  -3  -7  10    1.29    0.91
  -3   7  10    1.16    0.89
   3   7 -10    0.88    0.64
   3   7 -10    1.35    0.79
   2  -7 -10    0.22    0.55
  -2  -7  10    0.16    0.89
   2   7 -10    0.90    0.61
  -2   7  10    0.75    0.73
  -2   7  10    0.35    0.92
   2   7 -10    1.02    0.78
   1  -7 -10    6.73    0.94
  -1  -7  10    4.82    1.09
  -1   7  10    6.22    1.15
  -1   7  10    6.83    0.97
   1   7 -10    6.51    1.07
   0  -7  10    1.53    0.89
   0  -7 -10    0.22    0.49
   0   7  10    0.84    0.66
   0   7  10    0.28    0.89
   0   7 -10    1.03    0.75
  -1  -7 -10   13.46    1.40
   1  -7  10   16.96    1.78
  -1   7 -10   18.52    1.69
   1   7  10   12.48    1.48
   1   7  10   13.78    1.79
  -2  -7 -10    3.23    0.54
   2   7  10    2.43    0.66
   2   7  10    2.68    0.99
   3  -7  10    4.51    1.03
   3  -7  10    4.93    0.88
  -3   7 -10    4.52    0.86
   4  -7  10   27.62    2.63
  -4   7 -10   29.14    2.57
   5  -7  10    1.04    0.88
   5   7  10    0.97    0.92
  -5   7 -10    2.01    0.69
   6  -7  10    9.30    1.41
   6   7  10    5.42    1.17
   7  -7  10    7.28    1.15
   7   7  10    4.88    1.15
   8  -7  10    4.00    1.03
   8   7  10    4.40    1.15
   9  -7  10    6.15    1.11
   9   7  10    4.37    1.20
  10  -7  10   -0.52    0.91
  10   7  10   -1.30    1.04
  11  -7  10   -0.26    0.90
  11   7  10   -0.36    0.99
  12  -8 -10    5.73    1.11
  11  -8 -10    0.91    0.86
  11   8 -10    1.26    1.03
  10  -8 -10    6.56    1.11
  10   8 -10    4.98    1.19
  10   8 -10    4.20    1.04
   9  -8 -10    1.55    0.85
   9  -8 -10    1.32    0.76
   9   8 -10    1.95    0.97
   9   8 -10    0.81    0.81
   8   8 -10    7.97    1.29
   8   8 -10    8.84    1.42
   7  -8 -10   -0.12    0.64
  -7  -8  10    0.45    0.85
   7   8 -10    0.03    0.71
   7   8 -10    0.33    0.85
  -6  -8  10    3.48    1.03
   6  -8 -10    5.86    0.93
   6   8 -10    3.85    0.98
  -6   8  10    4.76    0.99
   6   8 -10    3.58    0.87
  -5  -8  10   -0.38    0.85
   5  -8 -10   -0.02    0.58
   5   8 -10   -0.31    0.76
  -5   8  10    0.26    0.87
   5   8 -10    0.16    0.60
   4  -8 -10    5.78    0.88
  -4  -8  10    3.64    1.05
   4   8 -10    4.51    0.98
   4   8 -10    4.36    0.86
  -4   8  10    3.73    1.01
  -3  -8  10   15.01    1.82
   3   8 -10   14.29    1.54
   3   8 -10   15.70    1.74
  -2  -8  10    9.84    1.51
   2   8 -10    8.68    1.16
   2   8 -10    9.17    1.33
   1  -8 -10    3.35    0.63
  -1  -8  10    2.02    0.94
   1   8 -10    1.42    0.75
  -1   8  10    2.57    0.98
  -1   8  10    2.77    0.75
   0  -8 -10    5.74    0.85
   0   8  10    4.31    0.82
   0   8  10    6.08    1.12
  -1  -8 -10   30.00    2.46
   1   8  10   29.81    2.81
  -2  -8 -10   -0.17    0.39
   2  -8  10    0.97    0.84
  -2   8 -10    0.35    0.70
   2   8  10   -0.71    0.84
  -3  -8 -10    6.27    0.68
   3  -8  10    4.02    1.01
  -3   8 -10    4.83    0.92
   3   8  10    4.70    1.11
   4  -8  10    0.97    0.86
   4   8  10   -0.81    0.91
  -4   8 -10    0.72    0.68
   5  -8  10    9.70    1.46
  -5   8 -10   11.41    1.33
   5   8  10    6.52    1.32
   6  -8  10   19.49    2.02
   6   8  10   17.62    2.06
   7  -8  10    6.85    1.12
   7   8  10    3.12    1.15
   8  -8  10   18.62    1.96
   8   8  10   15.64    2.01
   9  -8  10    1.08    0.94
   9   8  10    0.09    0.98
  10  -8  10    4.54    1.10
  10   8  10    5.48    1.26
  11  -8  10    2.18    0.95
  11   8  10    2.78    1.16
  12  -9 -10    1.64    0.94
  11  -9 -10    6.60    1.15
  11   9 -10    7.90    1.35
  10  -9 -10    1.05    0.91
  10   9 -10    2.68    1.08
   9  -9 -10    3.31    0.94
   9  -9 -10    3.71    0.95
   9   9 -10    6.26    1.11
   9   9 -10    6.43    1.20
   8  -9 -10    0.29    0.73
   8   9 -10    1.16    0.92
   8   9 -10    1.24    0.78
   7  -9 -10    6.25    1.17
  -7  -9  10   10.19    1.57
   7   9 -10   10.15    1.34
   7   9 -10   10.04    1.47
  -6  -9  10    3.23    1.03
  -6   9  10    1.75    0.86
   6   9 -10    3.98    0.86
   6   9 -10    3.71    1.01
   5  -9 -10    6.96    1.01
  -5  -9  10    5.67    1.13
   5   9 -10    5.60    1.08
   5   9 -10    5.22    0.93
  -5   9  10    6.17    1.11
  -4  -9  10    6.59    1.18
   4  -9 -10    4.64    0.88
   4   9 -10    8.12    1.12
   4   9 -10    6.91    1.06
  -4   9  10    4.13    1.07
  -3  -9  10    4.69    1.08
   3   9 -10    5.50    1.04
   3   9 -10    5.54    0.90
   2  -9 -10   22.77    2.23
   2   9 -10   32.06    2.47
  -2   9  10   22.73    2.48
  -1  -9  10    2.25    0.96
   1   9 -10    2.75    0.84
   0  -9  10   -0.73    0.83
   0  -9 -10    0.15    0.48
   0   9 -10    0.21    0.73
   0   9  10   -0.45    0.87
   1  -9  10   -0.22    0.87
  -1  -9 -10    0.20    0.44
  -1   9 -10   -0.27    0.70
   1   9  10    0.08    0.90
  -2  -9 -10    8.26    0.96
   2  -9  10    9.64    1.45
  -2   9 -10   10.23    1.34
   2   9  10    7.78    1.29
   3  -9  10    1.23    0.88
   3   9  10    0.17    0.97
  -3   9 -10    1.37    0.73
   4  -9  10   -0.09    0.86
   4   9  10    1.08    0.98
  -4   9 -10    0.01    0.70
   5  -9  10    9.00    1.47
  -5   9 -10    9.88    1.34
   6  -9  10    0.20    0.90
   6   9  10    1.46    1.05
   7  -9  10    0.50    0.92
   7   9  10    1.21    1.02
   8  -9  10    0.76    0.90
   8   9  10    0.63    0.95
   9  -9  10    4.17    1.04
   9   9  10    1.71    1.05
  10  -9  10    0.75    0.92
  10   9  10    0.01    0.93
  11  -9  10   -1.06    0.85
  11 -10 -10    0.30    0.86
  10 -10 -10    8.45    1.37
  10  10 -10    7.95    1.38
   9 -10 -10    4.74    1.03
   9  10 -10    2.35    1.05
   9  10 -10    1.72    0.87
   8 -10 -10    9.59    1.31
   8  10 -10    8.06    1.32
   8  10 -10    6.92    1.18
  -7 -10  10    2.39    0.99
   7  10 -10    2.95    1.00
   7  10 -10    3.18    0.84
  -6 -10  10    0.58    0.91
   6 -10 -10   -0.09    0.66
   6  10 -10    0.20    0.83
  -6  10  10   -0.55    0.82
   6  10 -10    0.46    0.68
  -5 -10  10    5.16    1.13
   5  10 -10    5.51    1.10
   5  10 -10    5.43    0.91
  -4 -10  10    3.04    1.02
   4 -10 -10    6.02    0.94
  -4  10  10    4.90    1.04
   4  10 -10    2.93    0.97
   4  10 -10    3.72    0.82
  -3 -10  10    1.94    0.95
   3 -10 -10    2.99    0.73
   3  10 -10    2.44    0.92
  -3  10  10    3.16    1.03
   2 -10 -10    1.40    0.63
  -2 -10  10    3.22    0.98
  -2  10  10    3.27    1.02
   2  10 -10    4.17    0.92
   1 -10 -10    0.09    0.53
  -1 -10  10    0.44    0.90
   1  10 -10    1.55    0.80
  -1  10  10    0.43    0.97
   0 -10 -10    2.84    0.64
   0 -10  10    5.27    1.09
   0  10  10    2.71    1.03
   1 -10  10    3.05    1.01
  -1  10 -10    3.67    0.88
   1  10  10    0.36    0.95
   2 -10  10    3.63    0.98
  -2 -10 -10    1.94    0.51
   2  10  10    2.68    1.07
  -2  10 -10    4.64    0.93
   3 -10  10    2.57    0.95
   3  10  10    1.80    1.03
  -3  10 -10    3.26    0.85
   4 -10  10    7.13    1.26
  -4  10 -10    8.30    1.35
   4  10  10   12.39    1.55
   5 -10  10   13.90    1.79
   5  10  10   16.02    1.87
   6 -10  10   11.57    1.68
   6  10  10   16.29    1.84
   7 -10  10    1.14    0.95
   7  10  10    1.25    0.94
   8 -10  10    2.85    1.03
   8  10  10    4.39    1.20
   9 -10  10    0.46    0.91
   9  10  10   -0.23    1.00
  10 -10  10    1.33    0.95
  10  10  10    3.00    1.17
  11 -10  10   -0.31    0.86
  11 -11 -10    0.19    0.89
  10 -11 -10    3.33    0.94
  10  11 -10    2.95    1.12
   9  11 -10    3.50    1.12
   9  11 -10    3.49    0.92
   8 -11 -10    6.69    1.17
   8  11 -10    8.19    1.33
   8  11 -10    6.76    1.13
   7 -11 -10    9.20    1.44
  -7 -11  10   12.68    1.66
   7  11 -10   12.06    1.64
   7  11 -10   12.54    1.48
  -6 -11  10   -0.12    0.94
   6 -11 -10    1.22    0.74
   6  11 -10    0.22    0.67
   6  11 -10    0.81    0.88
   5 -11 -10   10.38    1.36
  -5 -11  10   11.48    1.63
   5  11 -10   11.27    1.33
   5  11 -10   11.64    1.59
  -5  11  10    8.91    1.50
  -4 -11  10   16.24    1.86
   4 -11 -10   15.34    1.62
  -4  11  10   13.51    1.86
   4  11 -10   13.85    1.77
   3 -11 -10   26.74    2.37
  -3 -11  10   25.49    2.60
  -3  11  10   26.37    2.62
   3  11 -10   28.26    2.59
   2 -11 -10    2.55    0.69
  -2 -11  10    3.80    1.04
  -2  11  10    3.83    1.07
   2  11 -10    4.36    0.97
  -1 -11  10    3.53    1.03
   1 -11 -10    1.56    0.61
   1  11 -10    5.50    1.01
  -1  11  10    3.13    1.05
   0 -11 -10   25.93    2.39
   0 -11  10   30.06    2.71
   0  11 -10   33.86    2.73
   0  11  10   25.80    2.72
   1 -11  10    2.55    1.03
  -1  11 -10    3.66    0.94
   1  11  10    7.09    1.20
   2 -11  10   23.03    2.35
  -2  11 -10   23.73    2.30
   3 -11  10   13.34    1.80
   3  11  10   16.26    1.87
  -3  11 -10   15.22    1.73
   4 -11  10   21.43    2.21
  -4  11 -10   20.42    2.07
   5 -11  10   12.71    1.85
   5  11  10   18.81    1.99
   6 -11  10   -0.92    0.90
   6  11  10    0.16    0.92
   7 -11  10    1.49    0.96
   7  11  10    2.61    1.15
   8 -11  10   -0.50    0.89
   8  11  10    0.94    0.98
   9 -11  10   10.39    1.45
   9  11  10    6.09    1.41
  10 -11  10   -0.20    0.90
  10  11  10    1.26    1.06
  11 -11  10    1.70    0.92
  11 -12 -10    0.42    0.88
  10  12 -10    1.01    1.06
   9  12 -10   -0.18    0.77
   9  12 -10   -1.11    0.91
   8 -12 -10    5.68    1.04
   8  12 -10    3.04    1.07
   8  12 -10    2.56    0.90
  -7 -12  10    3.71    1.07
   7 -12 -10    3.92    0.93
   7  12 -10    4.11    1.12
   7  12 -10    3.54    0.91
   6 -12 -10    2.45    0.82
  -6 -12  10    0.77    0.97
   6  12 -10    0.86    0.95
   6  12 -10    0.68    0.71
   5 -12 -10    4.64    0.93
  -5 -12  10    4.14    1.14
   5  12 -10    5.00    0.91
   5  12 -10    4.93    1.08
  -5  12  10    4.23    1.04
  -4 -12  10    1.91    1.00
   4 -12 -10    1.20    0.68
   4  12 -10    2.82    0.98
  -4  12  10    1.27    0.96
   3 -12 -10    8.81    1.19
  -3  12  10    7.30    1.30
  -2 -12  10    0.55    0.92
   2 -12 -10    2.12    0.67
  -2  12  10    1.26    1.01
   2  12 -10    0.47    0.83
  -1  12  10   61.53    4.46
   1  12 -10   42.47    4.38
   0 -12 -10   14.18    1.43
   0  12  10   14.40    1.86
   1 -12  10    1.38    0.94
  -1  12 -10    1.94    0.88
   1  12  10    3.79    1.12
   2 -12  10    3.10    1.02
   2  12  10    6.82    1.22
  -2  12 -10    3.43    0.92
   3 -12  10    0.76    0.91
   3  12  10    1.98    1.09
  -3  12 -10    0.18    0.77
   4 -12  10   17.82    2.06
   4  12  10   23.35    2.22
  -4  12 -10   17.37    1.99
   5 -12  10    0.74    0.92
   5  12  10    0.55    0.96
   6 -12  10    7.61    1.32
   6  12  10   10.15    1.60
   7 -12  10    2.29    1.01
   7  12  10    3.98    1.21
   8 -12  10    2.99    1.04
   8  12  10    4.07    1.29
   9 -12  10    0.82    0.94
   9  12  10   -0.12    1.02
  10 -12  10    0.56    0.95
  11 -12  10   -1.01    0.89
   9  13 -10    5.44    1.26
   8 -13 -10    2.84    0.91
   8  13 -10    2.15    1.03
   8  13 -10    1.19    0.83
  -7 -13  10    4.54    1.13
   7  13 -10    4.17    0.94
   7  13 -10    4.25    1.15
   6 -13 -10    8.65    1.41
  -6 -13  10   13.61    1.75
   6  13 -10   14.50    1.75
   5 -13 -10    0.97    0.70
  -5 -13  10    2.78    1.07
  -5  13  10    1.39    0.93
   5  13 -10    3.43    1.03
   4 -13 -10   16.95    1.74
  -4  13  10   16.54    1.97
   3 -13 -10   13.33    1.47
  -3  13  10   12.56    1.77
   2 -13 -10   13.70    1.52
  -2  13  10   14.04    1.83
  -1 -13  10    1.99    0.99
   1 -13 -10    1.56    0.63
  -1  13  10    1.26    1.06
   1  13 -10    2.23    0.91
   0 -13 -10   33.17    3.02
   0 -13  10   47.02    3.43
   0  13  10   33.05    3.38
  -1 -13 -10    4.81    0.66
   1 -13  10    2.56    1.01
   1  13  10    3.96    1.17
  -1  13 -10    2.65    0.96
  -2 -13 -10    0.57    0.42
   2 -13  10    1.69    0.95
   2  13  10    0.96    1.11
  -2  13 -10    2.36    0.88
   3 -13  10    2.69    1.01
  -3  13 -10    3.79    0.94
   3  13  10    1.31    0.96
   4 -13  10   12.88    1.64
  -4  13 -10   14.43    1.58
   4  13  10    8.64    1.60
   5 -13  10    8.46    1.27
   5  13  10    4.77    1.30
   6  13  10    4.41    1.27
   7 -13  10    5.82    1.13
   7  13  10    2.68    1.25
   8 -13  10    5.52    1.12
   8  13  10    3.14    1.27
   9 -13  10    5.00    1.12
   9  13  10    4.79    1.37
  10 -13  10    2.46    1.06
  11 -13  10   -1.03    0.85
   9  14 -10    2.28    1.14
   8  14 -10    1.00    0.80
   8  14 -10   -0.79    0.97
  -7 -14  10    4.56    1.17
   7  14 -10    4.21    1.12
  -6 -14  10   -0.36    0.94
   6 -14 -10   -0.26    0.69
   6  14 -10    0.05    0.98
  -5 -14  10    1.18    1.01
   5 -14 -10    3.04    0.82
   5  14 -10    2.29    1.04
  -4 -14  10    1.35    1.02
   4 -14 -10    0.78    0.67
   4  14 -10    1.17    0.96
  -4  14  10    0.99    0.95
   3 -14 -10   11.80    1.39
  -3  14  10   10.97    1.72
   2 -14 -10    0.92    0.65
  -2 -14  10    1.50    0.98
  -2  14  10    1.48    1.02
   2  14 -10    1.28    0.95
  -1 -14  10    2.46    1.09
   1  14 -10    3.78    1.05
   0 -14 -10   11.01    1.15
   0  14  10   11.52    1.68
   0  14 -10    8.00    1.39
   1 -14  10    1.05    0.95
  -1 -14 -10    1.80    0.53
  -1  14 -10    1.43    0.92
   1  14  10    1.16    0.98
   2 -14  10    6.15    1.15
   2  14  10    1.32    1.04
  -2  14 -10    6.96    1.11
   3 -14  10    8.26    1.29
   3  14  10    4.59    1.32
  -3  14 -10    9.11    1.34
   4 -14  10    0.01    0.92
   4  14  10    0.18    0.94
   5 -14  10    1.69    0.96
   5  14  10    0.56    0.96
   6 -14  10    0.52    0.92
   6  14  10    0.70    1.00
   7 -14  10    0.50    0.96
   7  14  10   -1.23    0.92
   8 -14  10   -0.19    0.92
   8  14  10   -1.24    1.00
   9 -14  10    0.14    0.98
  10 -14  10    2.26    1.04
   9  15 -10    4.86    1.29
   8  15 -10   -0.27    1.01
  -7 -15  10   12.91    1.85
   7  15 -10   13.40    1.84
  -6 -15  10    5.57    1.25
   6  15 -10    6.47    1.30
  -5 -15  10    7.10    1.34
   5  15 -10    8.22    1.36
   4 -15 -10    9.40    1.24
  -4 -15  10    6.98    1.36
   4  15 -10    8.09    1.36
  -4  15  10    8.34    1.35
   3 -15 -10    0.62    0.67
  -3 -15  10    3.10    1.10
   3  15 -10    3.35    1.06
  -3  15  10    0.01    1.07
  -2 -15  10   61.92    4.77
   2 -15 -10   46.62    4.38
   2  15 -10   63.46    4.73
  -2  15  10   48.19    4.67
   1 -15 -10    0.64    0.61
  -1 -15  10    1.09    1.02
  -1  15  10    1.11    1.10
   1  15 -10    3.13    0.99
   0 -15  10   35.08    2.91
   0 -15 -10   27.39    2.49
   0  15  10   27.07    2.87
  -1 -15 -10    1.61    0.53
   1 -15  10    0.92    0.96
  -1  15 -10    0.61    0.88
   1  15  10    0.80    0.98
   2 -15  10   41.92    3.55
   2  15  10   31.35    3.55
  -2  15 -10   43.70    3.49
   3 -15  10    1.18    0.97
   3  15  10    3.93    1.19
  -3  15 -10    1.88    0.86
   4  15  10    4.43    1.27
   5 -15  10    3.51    1.10
   5  15  10    6.75    1.37
   6 -15  10    1.26    1.00
   6  15  10    0.48    1.02
   7 -15  10    5.19    1.16
   7  15  10    5.28    1.33
   8 -15  10   -0.33    1.00
   8  15  10   -0.48    1.03
   9 -15  10    1.61    1.01
  10 -15  10    6.65    1.24
   8  16 -10    0.03    1.06
   7 -16 -10   -0.54    0.73
   7  16 -10    0.06    1.03
  -6 -16  10    3.28    1.18
   6 -16 -10    4.57    1.00
   6  16 -10    5.52    1.26
  -5 -16  10   10.79    1.65
   5 -16 -10    6.98    1.18
   5  16 -10   11.18    1.62
  -4 -16  10    2.43    1.08
  -4  16  10    5.01    1.17
   4  16 -10    2.19    1.07
   3 -16 -10   13.69    1.53
  -3  16  10   13.49    1.86
   2 -16 -10    5.37    0.93
  -2 -16  10    7.31    1.33
   2  16 -10    8.09    1.27
  -2  16  10    4.49    1.30
   1 -16 -10   10.03    1.23
  -1  16  10    9.31    1.53
   0 -16  10    0.29    0.97
   0 -16 -10    0.41    0.56
   0  16  10   -0.82    0.93
   0  16 -10   -0.49    0.90
  -1 -16 -10    2.13    0.55
   1 -16  10    0.58    0.95
  -1  16 -10    1.10    0.90
   1  16  10    0.82    1.00
   2 -16  10    0.66    0.93
  -2  16 -10    0.61    0.86
   2  16  10   -0.19    0.97
   3 -16  10    1.12    0.95
   3  16  10    0.80    1.00
   4 -16  10    1.14    0.96
   4  16  10    1.26    1.02
   5 -16  10   -0.56    0.94
   5  16  10    0.20    0.96
   6 -16  10   10.38    1.71
   6  16  10   11.92    1.79
   7 -16  10    0.80    1.02
   7  16  10    0.17    1.04
   8 -16  10   -0.89    0.98
   9 -16  10    0.19    0.94
   8  17 -10    7.00    1.42
   7  17 -10    0.10    1.05
   6 -17 -10   10.90    1.44
  -6 -17  10    8.64    1.53
   6  17 -10    9.98    1.57
   5 -17 -10    0.93    0.76
  -5 -17  10    2.02    1.12
   5  17 -10    2.48    1.12
  -4 -17  10    4.41    1.19
   4 -17 -10    4.12    0.92
   4  17 -10    5.64    1.25
  -3 -17  10    6.18    1.33
   3  17 -10    9.00    1.39
   2 -17 -10    7.18    1.12
  -2 -17  10    6.34    1.30
   2  17 -10    8.19    1.31
  -2  17  10    5.74    1.37
  -1 -17  10    3.69    1.13
   1  17 -10    5.36    1.15
  -1  17  10    1.16    1.03
   0 -17 -10   -0.35    0.54
   0 -17  10    0.10    0.99
   0  17  10   -0.09    0.99
   0  17 -10    0.19    0.95
   1 -17  10    0.96    1.01
  -1  17 -10    0.23    0.91
   1  17  10    0.48    1.01
   2 -17  10    2.96    1.10
   2  17  10    0.84    1.03
  -2  17 -10    4.18    1.02
   3 -17  10   -0.14    0.97
   3  17  10   -0.59    0.97
   4 -17  10    2.33    1.08
   4  17  10    1.17    1.02
   5 -17  10    0.55    1.02
   5  17  10    0.30    1.01
   6 -17  10   12.10    1.76
   7 -17  10    4.26    1.16
   7  17  10    2.28    1.27
   8 -17  10    7.83    1.34
   7  18 -10    1.11    1.13
  -6 -18  10    0.71    1.10
   6 -18 -10    0.31    0.77
   6  18 -10    0.68    1.10
  -5 -18  10    2.44    1.15
   5 -18 -10    2.03    0.83
   5  18 -10    3.75    1.21
  -4 -18  10    2.37    1.12
   4 -18 -10    2.25    0.82
   4  18 -10    3.51    1.17
  -3 -18  10    3.99    1.13
   3 -18 -10    0.96    0.73
  -3  18  10    2.36    1.16
   2 -18 -10    1.04    0.69
  -2 -18  10    1.10    1.01
  -2  18  10    1.41    1.05
   2  18 -10    1.95    1.07
  -1 -18  10   -0.44    0.96
   1 -18 -10   -0.57    0.58
   1  18 -10   -0.74    0.96
  -1  18  10   -0.14    0.97
   0 -18 -10    4.79    0.80
   0 -18  10    3.61    1.17
   0  18  10    5.41    1.34
   0  18 -10    3.85    1.17
   1 -18  10   -0.42    0.97
   1  18  10   -0.51    0.94
  -1  18 -10   -0.29    0.91
   2 -18  10    0.60    1.01
   2  18  10    0.28    1.00
  -2  18 -10    1.54    0.94
   3 -18  10    3.85    1.12
   3  18  10    2.31    1.23
   4 -18  10    7.18    1.28
   4  18  10    3.34    1.31
   5 -18  10    1.92    1.10
   5  18  10    3.81    1.29
   6 -18  10    1.76    1.05
   6  18  10    0.93    1.05
   7 -18  10   -0.63    0.98
   7  18  10   -0.32    1.06
   8 -18  10    0.34    1.00
   7  19 -10    3.44    1.27
  -6 -19  10   -0.37    1.03
   6  19 -10    0.27    1.12
  -5 -19  10    3.51    1.25
   5  19 -10    3.03    1.20
   4 -19 -10   -0.59    0.66
  -4 -19  10    0.27    1.03
   4  19 -10    0.53    1.05
  -3 -19  10   -0.26    1.04
   3 -19 -10    1.25    0.73
   3  19 -10    0.01    1.05
  -3  19  10    0.77    1.02
  -2 -19  10   14.38    1.93
   2 -19 -10   14.49    1.61
   2  19 -10   14.81    1.92
  -2  19  10   14.02    1.99
  -1 -19  10    0.54    1.03
   1 -19 -10   -0.38    0.64
   1  19 -10   -0.31    0.98
  -1  19  10    0.87    1.07
   0 -19  10   27.51    2.83
   0  19 -10   30.13    2.83
   0  19  10   27.23    2.91
   1 -19  10    3.42    1.11
  -1  19 -10    3.80    1.14
   1  19  10    4.09    1.33
   2 -19  10   11.03    1.65
   2  19  10    8.71    1.60
   3 -19  10    1.27    1.04
   3  19  10    3.00    1.27
   4 -19  10    1.49    1.05
   4  19  10    0.84    1.05
   5 -19  10    1.37    1.05
   5  19  10    2.09    1.10
   6 -19  10    2.02    1.08
   6  19  10    0.40    1.06
   7 -19  10   -0.26    1.00
  -6 -20  10    0.32    1.10
   6  20 -10    0.28    1.12
  -5 -20  10    1.69    1.12
   5 -20 -10    1.69    0.83
   5  20 -10    1.72    1.17
  -4 -20  10    5.17    1.35
   4 -20 -10    5.57    1.02
   4  20 -10    4.59    1.33
   3 -20 -10    0.50    0.72
  -3 -20  10    0.81    1.08
   3  20 -10    1.98    1.14
   2 -20 -10    3.36    0.84
  -2 -20  10    1.00    1.10
   2  20 -10    1.41    1.10
  -2  20  10    2.98    1.29
  -1 -20  10    0.41    1.04
  -1  20  10    0.69    1.11
   1  20 -10    0.55    1.07
   0 -20  10    5.57    1.28
   0  20 -10    6.28    1.30
   0  20  10    2.98    1.39
   1 -20  10    2.47    1.11
  -1  20 -10    3.06    1.10
   1  20  10    0.64    1.08
   2 -20  10    2.06    1.10
   2  20  10    2.71    1.30
   3 -20  10    1.06    1.03
   3  20  10   -0.02    1.02
   4 -20  10    1.60    1.07
   4  20  10    1.83    1.13
   5 -20  10    6.22    1.28
   5  20  10    2.34    1.35
   6 -20  10    0.06    1.04
  -6 -21  10    6.54    1.47
   6  21 -10    7.93    1.54
  -5 -21  10    1.53    1.14
   5  21 -10    1.80    1.21
  -4 -21  10    1.91    1.19
   4 -21 -10    3.22    0.91
   4  21 -10    2.94    1.22
  -3 -21  10   18.04    2.34
   3  21 -10   20.08    2.33
   2 -21 -10    0.87    0.71
  -2 -21  10    4.30    1.24
  -2  21  10    1.57    1.27
   2  21 -10    4.62    1.28
  -1 -21  10   12.75    1.89
   1  21 -10   12.73    1.90
   0 -21  10    0.36    1.08
   0  21  10    0.83    1.09
   0  21 -10    1.20    1.10
   1 -21  10    2.27    1.15
   1  21  10    2.06    1.33
   2 -21  10    1.87    1.10
   2  21  10    0.65    1.09
   3 -21  10    1.38    1.09
   3  21  10    1.35    1.12
   4  21  10    5.46    1.47
   5 -21  10    3.18    1.17
   5  21  10    3.53    1.45
  -5 -22  10    1.35    1.19
   5  22 -10    0.55    1.23
  -4 -22  10    4.39    1.29
   4 -22 -10    2.00    0.87
   4  22 -10    4.59    1.34
   3 -22 -10    0.46    0.74
  -3 -22  10    0.31    1.11
   3  22 -10    0.78    1.19
  -2 -22  10    4.16    1.30
   2  22 -10    3.94    1.30
  -1 -22  10    0.03    1.11
  -1  22  10   -0.64    1.08
   1  22 -10    0.67    1.13
   0 -22  10    5.19    1.31
   0  22 -10    7.14    1.41
   0  22  10    2.94    1.46
   1 -22  10    2.31    1.14
   1  22  10    0.70    1.13
   2 -22  10    1.32    1.09
   2  22  10    0.96    1.14
   3 -22  10    1.15    1.07
   3  22  10   -0.18    1.11
   4  22  10    6.88    1.63
  -5 -23  10   -0.50    1.11
  -4 -23  10    7.90    1.56
   4  23 -10    8.26    1.67
  -3 -23  10   -0.56    1.07
   3  23 -10   -0.43    1.20
  -2 -23  10    1.59    1.16
   2  23 -10    2.82    1.30
  -1 -23  10    5.10    1.36
   1  23 -10    5.63    1.42
  -1  23  10    7.42    1.57
   0  23  10    9.81    1.76
   1 -23  10    4.55    1.31
   1  23  10    4.31    1.52
   2 -23  10    3.66    1.27
   2  23  10    5.25    1.52
   3  23  10    2.01    1.20
  -5 -24  10   -0.33    1.17
  -4 -24  10   -0.54    1.12
   4  24 -10    0.80    1.30
  -3 -24  10    0.20    1.15
   3  24 -10    0.23    1.22
  -2 -24  10    0.36    1.14
   2  24 -10    2.02    1.31
  -1 -24  10    2.50    1.23
   1  24 -10    2.95    1.32
   0  24  10   -0.20    1.18
   1  24  10    0.36    1.19
   2  24  10    1.58    1.20
   3  25 -10    3.14    1.44
   2  25 -10    0.52    1.32
   0  25  10    0.19    1.19
   1  25  10    1.98    1.25
   2  25  10    0.60    1.18
   1  26  10    0.11    1.21
  11   0 -11   -0.30    0.89
  10   0 -11    0.14    0.91
   9   0 -11    0.66    0.78
   9   0 -11    1.03    0.89
   8   0 -11    1.02    0.77
   8   0 -11    1.29    0.87
  -7   0  11    0.44    0.89
   7   0 -11    0.98    0.82
   7   0 -11    0.61    0.73
  -6   0  11    1.46    0.88
   6   0 -11    0.80    0.77
   6   0 -11    0.86    0.69
  -5   0  11    1.08    0.94
   5   0 -11    1.10    0.78
   5   0 -11    1.44    0.69
  -4   0  11    1.63    0.94
   4   0 -11    2.21    0.73
   4   0 -11    1.48    0.80
   3   0 -11    0.62    0.62
   3   0 -11    1.02    0.73
  -3   0  11    0.18    0.91
   2   0 -11    3.18    0.75
   2   0 -11    3.55    0.88
  -2   0  11    3.98    1.03
  -1   0  11    0.52    0.66
   1   0 -11    0.78    0.75
   1   0 -11    0.63    0.56
  -1   0  11    0.91    0.90
   0   0 -11    6.90    1.03
   0   0  11    4.52    1.08
   0   0 -11    4.81    0.79
   0   0  11    5.45    0.94
  -1   0 -11    0.97    0.56
   1   0  11    0.51    0.89
  -1   0 -11    1.04    0.74
   1   0  11    0.48    0.63
   2   0  11    3.60    1.05
  -2   0 -11    3.89    0.87
   2   0  11    2.44    0.78
   3   0  11    1.15    0.61
  -3   0 -11    0.35    0.71
   3   0  11    0.52    0.92
   4   0  11    0.87    0.57
  -4   0 -11    0.13    0.67
   4   0  11   -0.38    0.93
   5   0  11    0.33    0.90
   5   0  11    0.09    0.54
  -5   0 -11    0.92    0.67
   6   0  11   -0.10    0.92
   7   0  11    3.32    1.07
   8   0  11    0.49    0.99
   9   0  11    1.53    1.01
  10   0  11   -0.31    0.95
  11   0  11   -0.50    0.98
  11  -1 -11    1.55    0.95
  11   1 -11    1.64    0.95
  10  -1 -11    1.22    0.94
  10   1 -11    1.15    0.92
   9  -1 -11   13.93    1.72
   9  -1 -11   13.16    1.68
   9   1 -11   16.01    1.75
   9   1 -11   12.98    1.66
   8  -1 -11    0.56    0.74
   8  -1 -11   -0.03    0.80
   8   1 -11   -0.18    0.83
   8   1 -11   -0.12    0.69
  -7  -1  11   21.60    2.26
   7  -1 -11   22.35    2.22
   7  -1 -11   22.69    2.18
  -7   1  11   22.94    2.27
   7   1 -11   22.42    2.23
   7   1 -11   22.10    2.16
   6  -1 -11    1.48    0.79
   6  -1 -11    1.43    0.74
  -6  -1  11    3.53    0.98
  -6   1  11    1.03    0.91
   6   1 -11    3.57    0.90
   6   1 -11    3.10    0.82
   5  -1 -11   10.21    1.52
  -5  -1  11   13.17    1.71
   5  -1 -11   11.68    1.45
   5   1 -11   13.99    1.55
   5   1 -11   14.87    1.53
  -5   1  11   10.50    1.61
   4  -1 -11   14.35    1.45
  -4  -1  11    9.90    1.66
   4  -1 -11   15.04    1.60
   4   1 -11   10.67    1.44
   4   1 -11   11.61    1.52
  -4   1  11   14.61    1.71
   3  -1 -11   35.26    2.67
   3  -1 -11   35.33    2.81
  -3  -1  11   26.51    2.80
  -3   1  11   33.57    2.86
   3   1 -11   25.48    2.70
   3   1 -11   26.57    2.62
  -2  -1  11   26.52    2.53
   2   1 -11   25.92    2.42
   2   1 -11   25.21    2.29
   1  -1 -11   19.11    1.87
  -1  -1  11   14.36    1.94
   1  -1 -11   18.13    1.67
  -1  -1  11   15.35    1.80
  -1   1  11   20.13    1.80
   1   1 -11   15.19    1.64
   1   1 -11   16.67    1.82
  -1   1  11   19.43    2.00
   0  -1  11   18.38    1.89
   0  -1  11   16.92    2.06
   0  -1 -11   19.23    1.74
   0  -1 -11   19.95    1.95
   0   1 -11   16.84    1.76
   0   1  11   21.14    1.87
   0   1  11   19.33    2.07
   0   1 -11   19.16    1.93
  -1  -1 -11   21.05    2.01
   1  -1  11   23.26    2.36
  -1  -1 -11   24.47    2.25
   1  -1  11   25.04    2.16
   1   1  11   22.23    2.36
  -1   1 -11   23.00    2.23
   1   1  11   24.55    2.15
  -2  -1 -11   68.95    5.95
   2  -1  11   67.88    5.98
   2  -1  11   80.61    5.74
   2   1  11   65.99    5.98
   2   1  11   77.96    5.72
  -2   1 -11   74.68    5.96
  -3  -1 -11    0.05    0.69
   3  -1  11   -0.20    0.85
   3  -1  11    0.13    0.58
   3   1  11   -0.19    0.89
   3   1  11   -0.36    0.56
  -3   1 -11    0.52    0.69
  -4  -1 -11   26.07    2.69
   4  -1  11   31.82    2.76
  -4   1 -11   33.39    2.69
   4   1  11   27.21    2.50
   5  -1  11    0.34    0.88
   5  -1  11    0.49    0.58
  -5  -1 -11    1.09    0.70
   5   1  11    1.52    0.55
  -5   1 -11    0.64    0.66
   5   1  11    0.67    0.87
   6  -1  11    4.09    1.05
   6   1  11    2.77    1.00
   7  -1  11    0.25    0.93
   7   1  11    0.34    0.94
   8  -1  11    3.30    1.06
   8   1  11    3.79    1.08
   9  -1  11    4.24    1.13
   9   1  11    4.80    1.16
  10  -1  11   -0.45    0.97
  10   1  11   -0.30    1.01
  11  -1  11    3.11    1.06
  11   1  11    2.69    1.07
  11   2 -11    2.11    0.97
  10  -2 -11    1.70    0.96
  10   2 -11    4.15    1.06
   9  -2 -11    0.63    0.77
   9  -2 -11    0.53    0.86
   9   2 -11    0.93    0.90
   9   2 -11    0.72    0.80
   8  -2 -11    7.14    1.18
   8  -2 -11    6.83    1.22
   8   2 -11   11.17    1.44
   8   2 -11    9.75    1.34
  -7  -2  11   -0.38    0.85
   7  -2 -11    1.33    0.82
   7  -2 -11    1.49    0.75
   7   2 -11    1.18    0.77
   7   2 -11    1.11    0.86
   6  -2 -11    8.29    1.21
   6  -2 -11    7.77    1.28
  -6  -2  11    9.22    1.43
   6   2 -11    8.41    1.30
   6   2 -11    8.80    1.32
  -6   2  11    7.28    1.23
  -5  -2  11    0.75    0.91
   5  -2 -11    1.73    0.72
   5  -2 -11    1.57    0.83
   5   2 -11    1.25    0.72
  -5   2  11    1.61    0.92
   5   2 -11    0.62    0.77
  -4  -2  11    3.60    1.05
  -4   2  11    6.97    1.14
   4   2 -11    4.06    0.92
   4   2 -11    3.68    0.84
   3  -2 -11    4.36    0.91
   3  -2 -11    3.35    0.77
  -3   2  11    3.46    1.07
   2  -2 -11    0.16    0.58
   2  -2 -11   -0.07    0.66
  -2  -2  11    0.10    0.85
  -2   2  11   -0.54    0.89
   2   2 -11    0.02    0.57
   2   2 -11    0.52    0.72
   1  -2 -11    5.51    0.82
   1  -2 -11    5.52    0.92
  -1  -2  11    3.28    1.04
  -1   2  11    4.95    1.09
   1   2 -11    4.38    0.88
   1   2 -11    3.26    0.75
  -1   2  11    5.46    0.92
   0  -2 -11    0.51    0.55
   0  -2 -11   -0.03    0.65
   0  -2  11    0.28    0.88
   0  -2  11   -0.34    0.66
   0   2 -11    0.51    0.66
   0   2  11    0.04    0.90
   0   2 -11    0.00    0.52
   0   2  11   -0.23    0.59
  -1  -2 -11    5.44    0.85
  -1  -2 -11    5.08    0.89
   1   2  11    4.69    0.86
   1   2  11    3.52    1.06
  -2  -2 -11    3.67    0.84
   2  -2  11    5.61    0.90
   2  -2  11    5.20    1.10
   2   2  11    3.52    0.81
  -2   2 -11    5.70    0.91
   2   2  11    3.29    1.03
  -3  -2 -11    8.74    1.17
   3   2  11    5.66    1.13
   3   2  11    6.08    0.93
   4  -2  11   11.49    1.63
   4  -2  11   14.29    1.47
  -4  -2 -11   12.22    1.53
   4   2  11   14.10    1.39
  -4   2 -11   12.57    1.51
   4   2  11   11.66    1.68
   5  -2  11    4.45    0.83
   5  -2  11    3.03    0.99
  -5  -2 -11    3.77    0.84
   5   2  11    2.96    0.72
   5   2  11    3.21    1.02
  -5   2 -11    4.20    0.83
   6  -2  11    0.19    0.91
   6   2  11    0.35    0.93
   7  -2  11   12.47    1.67
   7   2  11   11.92    1.64
   8  -2  11   -0.71    0.93
   8   2  11   -1.28    0.89
   9  -2  11   -0.31    0.96
   9   2  11    0.13    0.96
  10  -2  11   -0.30    0.94
  10   2  11   -0.49    0.99
  11  -2  11   -1.41    0.93
  11   2  11   -0.17    1.02
  11  -3 -11    5.30    1.11
  11   3 -11    4.43    1.13
  10  -3 -11    0.45    0.90
  10   3 -11    1.25    0.94
   9  -3 -11    4.11    1.03
   9  -3 -11    3.79    0.97
   9   3 -11    2.82    0.99
   9   3 -11    3.22    0.96
   8  -3 -11    0.39    0.80
   8  -3 -11    0.28    0.72
   8   3 -11   -0.15    0.84
   8   3 -11    0.04    0.73
   7  -3 -11    4.93    1.04
   7  -3 -11    5.76    1.02
  -7  -3  11    5.55    1.10
   7   3 -11    6.54    1.12
   7   3 -11    5.46    1.05
   6  -3 -11    0.63    0.78
  -6  -3  11    0.48    0.89
   6  -3 -11    0.66    0.66
   6   3 -11    0.29    0.70
   6   3 -11    0.45    0.80
  -6   3  11    0.31    0.84
   5  -3 -11   63.42    5.29
   5  -3 -11   62.33    5.46
  -5  -3  11   73.20    5.55
   5   3 -11   69.05    5.32
  -5   3  11   61.74    5.47
   5   3 -11   66.93    5.48
   4  -3 -11   24.85    2.58
  -4  -3  11   34.34    2.83
   4  -3 -11   23.76    2.67
   4   3 -11   34.90    2.67
   4   3 -11   35.86    2.75
  -4   3  11   26.45    2.79
  -3  -3  11   16.31    1.84
   3  -3 -11   13.20    1.63
   3  -3 -11   14.68    1.54
  -3   3  11   14.06    1.84
   3   3 -11   15.12    1.66
   3   3 -11   15.86    1.59
  -2  -3  11    1.78    0.93
   2  -3 -11    1.23    0.63
  -2   3  11    0.71    0.94
   2   3 -11    1.07    0.75
   2   3 -11    1.45    0.64
   1  -3 -11   21.98    2.01
  -1  -3  11   21.39    2.23
  -1   3  11   24.06    2.14
   1   3 -11   20.45    2.12
   1   3 -11   22.79    2.03
  -1   3  11   21.81    2.30
   0  -3  11    6.92    1.04
   0  -3  11    7.24    1.20
   0  -3 -11    6.88    1.01
   0   3 -11    7.47    1.04
   0   3  11    8.28    1.21
   0   3 -11    7.07    1.17
   0   3  11    6.44    1.21
  -1  -3 -11   14.91    1.47
   1  -3  11   16.47    1.85
   1  -3  11   15.78    1.69
  -1   3 -11   15.47    1.68
   1   3  11   14.24    1.81
   1   3  11   17.26    1.64
   2  -3  11    3.34    0.80
  -2  -3 -11    4.06    0.64
   2  -3  11    1.22    0.95
   2   3  11    5.79    0.80
   2   3  11    3.37    1.03
  -2   3 -11    1.42    0.77
   3  -3  11   13.12    1.45
   3  -3  11   10.20    1.61
   3   3  11   11.68    1.34
  -3   3 -11   11.04    1.46
   3   3  11   12.29    1.60
   4  -3  11   16.35    1.71
   4  -3  11   16.62    1.91
   4   3  11   19.33    1.92
  -4   3 -11   15.11    1.73
  -5  -3 -11    0.90    0.65
   5  -3  11    0.68    0.60
   5  -3  11    1.03    0.94
   5   3  11    0.84    0.93
  -5   3 -11    1.01    0.67
   5   3  11    0.01    0.54
   6  -3  11   17.76    2.19
   6  -3  11   22.08    2.02
   6   3  11   25.10    2.29
   7  -3  11    3.42    1.05
   7   3  11    2.23    1.05
   8  -3  11    9.85    1.54
   8   3  11    9.94    1.57
   9  -3  11    4.24    1.10
   9   3  11    5.92    1.22
  10  -3  11   10.20    1.49
  10   3  11    5.86    1.26
  11  -3  11    5.18    1.12
  11   3  11    5.87    1.24
  12  -3  11   -0.83    0.93
  11  -4 -11    0.42    0.92
  11   4 -11    0.72    0.96
  10  -4 -11   12.08    1.74
  10   4 -11   17.17    1.82
   9  -4 -11    3.63    1.00
   9  -4 -11    3.23    0.92
   9   4 -11    3.63    0.99
   9   4 -11    4.30    1.05
   8  -4 -11    0.28    0.80
   8  -4 -11    1.13    0.75
   8   4 -11    0.17    0.76
   8   4 -11    0.57    0.85
   7  -4 -11    3.71    0.88
   7  -4 -11    2.46    0.89
  -7  -4  11    1.33    0.92
   7   4 -11    1.91    0.89
   7   4 -11    1.20    0.79
  -6  -4  11    1.79    0.97
   6  -4 -11    2.38    0.84
   6  -4 -11    1.90    0.74
   6   4 -11    2.39    0.86
  -6   4  11    1.25    0.88
   6   4 -11    1.49    0.76
  -5  -4  11    1.00    0.94
   5  -4 -11    2.24    0.76
   5  -4 -11    2.61    0.79
   5   4 -11    1.45    0.73
  -5   4  11    1.91    0.95
   5   4 -11    1.25    0.85
   4  -4 -11    1.05    0.65
  -4  -4  11    1.33    0.94
   4   4 -11    0.96    0.67
  -4   4  11    0.34    0.94
   4   4 -11    1.58    0.80
  -3  -4  11    0.79    0.88
   3  -4 -11    0.94    0.61
   3   4 -11    0.28    0.72
   3   4 -11    0.73    0.63
  -3   4  11   -0.02    0.92
  -2  -4  11    2.62    0.99
   2   4 -11    3.04    0.83
  -2   4  11    4.84    1.09
   2   4 -11    2.27    0.67
   1  -4 -11    6.15    0.85
  -1  -4  11    4.51    1.05
  -1   4  11    6.22    0.98
   1   4 -11    4.93    0.84
   1   4 -11    4.78    0.95
  -1   4  11    4.97    1.13
   0  -4 -11    6.96    0.98
   0   4  11    5.80    0.97
   0   4  11    6.98    1.18
   1  -4  11    2.45    0.76
  -1  -4 -11    0.73    0.49
   1  -4  11    3.12    0.94
   1   4  11    0.47    0.94
  -1   4 -11    1.87    0.73
   1   4  11    0.31    0.60
  -2  -4 -11   15.77    1.53
   2   4  11   17.80    1.69
   2   4  11   16.51    1.90
   3  -4  11   10.71    1.52
   3  -4  11   12.32    1.40
   3   4  11    9.34    1.25
  -3   4 -11   11.00    1.36
   3   4  11    9.04    1.45
   4  -4  11   -0.06    0.86
   4  -4  11   -0.27    0.59
   4   4  11    0.10    0.92
   4   4  11    0.90    0.59
  -4   4 -11    0.09    0.66
   5  -4  11    2.28    0.75
   5  -4  11    1.41    0.92
   5   4  11    1.65    0.95
  -5   4 -11    1.74    0.72
   6  -4  11    0.10    0.63
   6  -4  11    0.81    0.92
   6   4  11    0.63    0.95
   7  -4  11    6.48    1.12
   7   4  11    2.85    1.12
   8  -4  11    0.60    0.95
   8   4  11    0.15    1.03
   9  -4  11    0.80    0.93
   9   4  11    0.83    1.07
  10  -4  11    0.14    0.92
  10   4  11   -0.73    1.00
  11  -4  11    3.66    1.07
  11   4  11    2.68    1.08
  12  -4  11    0.64    0.93
  11  -5 -11    0.59    0.91
  11   5 -11   -0.21    0.97
  10  -5 -11    0.15    0.90
  10   5 -11    2.08    1.01
   9  -5 -11    5.00    1.05
   9  -5 -11    5.48    1.05
   9   5 -11    4.70    1.08
   9   5 -11    4.66    1.10
   8  -5 -11   -0.41    0.82
   8  -5 -11    0.24    0.72
   8   5 -11    0.02    0.76
   8   5 -11    0.03    0.86
   7  -5 -11   19.24    1.89
  -7  -5  11   18.32    2.03
   7  -5 -11   19.90    1.96
   7   5 -11   16.57    1.96
   7   5 -11   16.87    1.93
   6  -5 -11    0.71    0.67
  -6  -5  11    0.00    0.87
   6  -5 -11    0.46    0.73
   6   5 -11   -0.10    0.81
   6   5 -11    0.47    0.71
  -6   5  11   -0.22    0.84
  -5  -5  11   16.37    1.92
   5   5 -11   15.94    1.72
   5   5 -11   15.70    1.80
  -4  -5  11    2.70    1.01
   4   5 -11    2.79    0.78
   4   5 -11    2.49    0.88
  -3  -5  11   -0.33    0.89
   3  -5 -11    0.91    0.63
  -3   5  11    1.04    0.98
   3   5 -11    1.27    0.66
   3   5 -11    0.53    0.77
  -2  -5  11   15.03    1.90
   2   5 -11   15.76    1.66
   2   5 -11   14.73    1.80
  -2   5  11   21.87    1.97
  -1  -5  11    3.93    1.07
  -1   5  11    6.95    1.12
   1   5 -11    4.23    0.83
   1   5 -11    4.45    0.93
   0  -5 -11   21.41    1.77
   0  -5  11   15.09    2.02
   0   5  11   19.31    2.06
   0   5 -11   16.47    1.90
   0   5  11   21.88    1.87
  -1  -5 -11    1.34    0.52
   1  -5  11    2.27    0.92
  -1   5 -11    2.89    0.80
   1   5  11    0.91    0.60
   1   5  11    1.70    1.02
  -2  -5 -11   29.81    2.65
   2  -5  11   34.72    2.98
   2   5  11   30.44    2.99
   2   5  11   30.77    2.73
  -2   5 -11   38.57    2.96
   3  -5  11   19.31    1.85
   3  -5  11   17.54    1.98
  -3   5 -11   17.58    1.86
   4  -5  11    1.05    0.75
   4  -5  11    1.94    0.92
   4   5  11    2.68    0.59
   4   5  11    0.50    0.94
  -4   5 -11    1.47    0.72
   5  -5  11    0.00    0.66
   5  -5  11   -0.22    0.87
   5   5  11    1.32    0.94
  -5   5 -11    0.76    0.68
   6  -5  11    7.35    1.06
   6  -5  11    5.66    1.17
   6   5  11    8.37    1.30
   7  -5  11    0.50    0.90
   7   5  11    0.63    1.00
   8  -5  11   -0.02    0.91
   8   5  11    0.16    1.02
   9  -5  11   -0.12    0.92
   9   5  11    0.64    1.04
  10  -5  11    1.76    1.02
  10   5  11    3.74    1.20
  11  -5  11    0.90    0.96
  12  -5  11    0.65    0.97
  11  -6 -11    0.10    0.89
  11   6 -11   -0.74    0.94
  10  -6 -11    0.98    0.90
  10   6 -11    1.87    1.02
   9  -6 -11    4.28    0.99
   9  -6 -11    5.49    1.05
   9   6 -11    3.50    1.00
   9   6 -11    4.08    1.10
   8  -6 -11    0.50    0.87
   8  -6 -11    0.78    0.73
   8   6 -11    1.81    0.84
   8   6 -11    2.75    0.96
   7  -6 -11    1.02    0.80
  -7  -6  11    1.58    0.93
   7  -6 -11    0.54    0.70
   7   6 -11    2.08    0.93
   7   6 -11    2.35    0.83
   6  -6 -11    1.56    0.72
  -6  -6  11    0.32    0.91
   6   6 -11    0.74    0.83
  -6   6  11    1.36    0.89
   6   6 -11    1.16    0.72
  -5  -6  11    9.66    1.56
   5   6 -11    8.14    1.19
   5   6 -11    9.03    1.40
  -4  -6  11    4.81    1.09
   4   6 -11    4.18    0.87
   4   6 -11    5.22    1.04
  -3  -6  11   12.99    1.76
   3   6 -11   13.20    1.63
   3   6 -11   13.61    1.47
  -2  -6  11    3.51    1.03
   2   6 -11    4.34    0.80
   2   6 -11    4.54    0.92
  -2   6  11    1.28    0.95
   1  -6 -11    3.81    0.70
  -1  -6  11    2.21    0.98
   1   6 -11    1.30    0.78
  -1   6  11    2.93    1.01
  -1   6  11    3.72    0.84
   0  -6 -11    0.26    0.51
   0  -6  11   -0.60    0.89
   0   6  11    1.11    0.99
   0   6 -11    0.10    0.71
   0   6  11   -0.14    0.58
  -1  -6 -11    4.05    0.65
   1  -6  11    1.80    0.95
   1   6  11    3.17    1.02
   1   6  11    4.98    0.82
  -1   6 -11    1.75    0.78
  -2  -6 -11   23.84    2.16
   2  -6  11   29.68    2.54
   2   6  11   24.24    2.55
   2   6  11   25.09    2.25
  -2   6 -11   28.89    2.46
   3  -6  11   11.79    1.44
   3   6  11    8.00    1.06
   3   6  11    6.82    1.29
   4  -6  11    0.83    0.90
   4   6  11    0.67    0.97
  -4   6 -11    1.85    0.75
   5  -6  11    3.12    0.99
  -5   6 -11    4.58    0.84
   5   6  11    1.37    1.03
   6  -6  11    6.38    1.12
   6   6  11    3.54    1.16
   7  -6  11    8.24    1.25
   7   6  11    6.13    1.27
   8  -6  11    1.07    0.97
   8   6  11    1.42    1.05
   9  -6  11    3.49    1.07
   9   6  11    1.96    1.12
  10  -6  11    1.76    0.99
  10   6  11    2.21    1.13
  11  -6  11   -0.83    0.95
  11  -7 -11    2.29    0.97
  10  -7 -11   -0.51    0.84
  10   7 -11    0.03    0.97
   9  -7 -11    0.13    0.88
   9   7 -11    0.71    0.93
   9   7 -11    0.23    0.79
   8  -7 -11    0.64    0.84
   8  -7 -11    0.35    0.75
   8   7 -11    0.33    0.88
   8   7 -11   -0.09    0.75
   7  -7 -11    1.34    0.76
  -7  -7  11    0.52    0.91
   7   7 -11    0.49    0.71
   7   7 -11    0.09    0.87
  -6  -7  11    1.77    0.99
   6  -7 -11    2.26    0.78
   6   7 -11    2.11    0.78
   6   7 -11    2.15    0.91
  -6   7  11    1.79    0.95
  -5  -7  11    0.86    0.93
   5  -7 -11    0.16    0.64
   5   7 -11   -0.15    0.63
  -5   7  11   -0.67    0.87
   5   7 -11    0.35    0.81
   4  -7 -11    3.01    0.80
  -4  -7  11    4.71    1.13
  -4   7  11    1.92    1.04
   4   7 -11    5.12    0.99
   4   7 -11    3.38    0.79
  -3  -7  11    7.03    1.24
   3   7 -11    7.70    1.19
   3   7 -11    6.13    0.99
  -2  -7  11    0.39    0.93
   2  -7 -11    0.15    0.56
  -2   7  11    0.76    0.94
   2   7 -11    0.04    0.60
   2   7 -11    0.05    0.74
   1  -7 -11    8.13    1.04
  -1  -7  11    4.81    1.19
  -1   7  11   10.09    1.51
   1   7 -11    6.46    1.11
  -1   7  11    9.55    1.24
   0  -7 -11    2.16    0.60
   0   7  11    2.81    1.01
   0   7  11    2.15    0.74
  -1  -7 -11   20.65    1.81
   1  -7  11   18.52    2.11
  -1   7 -11   20.86    2.07
   1   7  11   20.99    2.19
   1   7  11   20.45    1.90
  -2  -7 -11    0.90    0.45
   2  -7  11    0.12    0.91
   2   7  11    0.23    0.63
   2   7  11    0.73    0.99
  -2   7 -11    0.87    0.75
   3  -7  11    2.22    1.00
   3   7  11    6.43    1.19
  -3   7 -11    3.96    0.87
   4  -7  11    1.93    0.99
   4   7  11    5.59    1.14
  -4   7 -11    2.26    0.79
   5  -7  11   -1.00    0.89
   5   7  11   -0.30    0.96
   6  -7  11    7.17    1.28
   6   7  11    9.50    1.41
   7  -7  11    0.21    0.95
   7   7  11    0.46    1.03
   8  -7  11   21.99    2.22
   8   7  11   19.47    2.29
   9  -7  11   -1.21    0.92
   9   7  11    0.15    1.07
  10  -7  11   -0.04    0.98
  10   7  11    0.83    1.08
  11  -7  11   -0.64    0.94
  11  -8 -11    9.56    1.46
  10  -8 -11    1.76    0.93
  10   8 -11    0.68    1.00
   9  -8 -11   -0.36    0.86
   9   8 -11    0.58    0.83
   9   8 -11    0.59    0.95
   8  -8 -11    3.43    0.94
   8  -8 -11    3.81    0.94
   8   8 -11    4.66    1.01
   8   8 -11    5.05    1.11
   7  -8 -11    0.60    0.73
  -7  -8  11    0.54    0.92
   7   8 -11   -0.32    0.86
   7   8 -11    0.08    0.71
  -6  -8  11    4.93    1.11
   6  -8 -11    2.54    0.84
   6   8 -11    5.52    0.97
  -6   8  11    2.28    0.98
   6   8 -11    5.57    1.08
   5  -8 -11    2.89    0.81
  -5  -8  11    3.05    1.05
   5   8 -11    3.83    0.82
  -5   8  11    2.50    0.99
   5   8 -11    3.69    0.98
   4  -8 -11   20.95    2.26
  -4  -8  11   28.53    2.56
   4   8 -11   30.29    2.53
  -4   8  11   19.77    2.50
   4   8 -11   29.12    2.37
  -3  -8  11   30.11    2.64
   3  -8 -11   22.37    2.28
   3   8 -11   27.86    2.38
   3   8 -11   29.58    2.54
  -3   8  11   21.84    2.51
   2  -8 -11   17.97    1.71
  -2   8  11   17.45    2.00
  -1  -8  11    8.45    1.35
   1  -8 -11    7.90    1.06
  -1   8  11    8.60    1.27
  -1   8  11    8.18    1.32
   1   8 -11    9.53    1.31
   0  -8 -11    0.55    0.52
   0  -8  11    2.00    0.99
   0   8  11    0.77    0.96
   0   8  11    0.13    0.69
   0   8 -11    2.81    0.83
   1  -8  11    9.27    1.50
  -1  -8 -11    9.48    1.09
  -1   8 -11    9.81    1.37
   1   8  11    8.06    1.37
  -2  -8 -11    0.75    0.44
   2  -8  11    0.44    0.89
  -2   8 -11    0.65    0.74
   2   8  11    0.44    1.01
   3  -8  11    0.35    0.89
  -3   8 -11    0.33    0.73
   3   8  11   -0.11    0.97
   4  -8  11   12.97    1.66
   4   8  11   11.74    1.74
  -4   8 -11   13.97    1.57
   5  -8  11   -0.21    0.92
   5   8  11    0.99    1.03
   6  -8  11   -0.05    0.92
   6   8  11    0.07    1.01
   7  -8  11    7.16    1.20
   7   8  11    3.71    1.20
   8  -8  11    0.42    0.97
   8   8  11    0.12    0.98
   9  -8  11    2.21    1.04
   9   8  11    0.28    1.02
  10  -8  11   -1.33    0.92
  10   8  11   -0.29    0.99
  11  -8  11   -0.75    0.95
  11  -9 -11    3.84    1.03
  10  -9 -11    5.30    1.13
  10   9 -11    5.48    1.26
   9  -9 -11    6.90    1.16
   9   9 -11    5.58    1.21
   8  -9 -11    3.85    0.96
   8   9 -11    4.51    1.01
   8   9 -11    5.06    1.16
  -7  -9  11    8.29    1.38
   7  -9 -11   12.44    1.41
   7   9 -11    8.69    1.34
   7   9 -11    9.19    1.51
   6  -9 -11    0.30    0.67
  -6  -9  11    0.43    0.97
   6   9 -11    0.37    0.65
   6   9 -11   -0.02    0.86
  -5  -9  11    6.03    1.23
   5   9 -11    6.89    1.16
   5   9 -11    6.19    1.02
  -4  -9  11   10.30    1.53
   4  -9 -11    7.94    1.18
   4   9 -11    9.97    1.41
  -4   9  11    5.05    1.20
   4   9 -11    7.88    1.16
  -3  -9  11    2.17    0.99
   3  -9 -11    1.31    0.65
   3   9 -11    1.42    0.81
  -3   9  11    1.72    0.99
   3   9 -11    0.86    0.66
   2  -9 -11   11.31    1.25
  -2  -9  11    8.54    1.44
  -2   9  11   11.72    1.63
   2   9 -11    9.88    1.47
   1  -9 -11    1.33    0.60
  -1  -9  11    2.54    1.04
   1   9 -11    3.38    0.90
  -1   9  11    1.26    0.98
   0  -9  11   14.32    2.00
   0  -9 -11   18.69    1.64
   0   9  11   20.42    2.01
   0   9 -11   16.33    1.90
   1  -9  11    8.42    1.30
  -1  -9 -11    6.31    0.96
  -1   9 -11    9.76    1.37
   1   9  11    6.47    1.27
  -2  -9 -11    9.42    0.90
   2  -9  11    5.41    1.21
   2   9  11   10.07    1.52
  -2   9 -11    5.71    1.08
   3  -9  11    2.70    1.01
  -3   9 -11    3.12    0.84
   3   9  11    1.71    1.08
   4  -9  11   17.64    2.11
   4   9  11   21.23    2.17
  -4   9 -11   20.29    2.04
   5  -9  11    2.63    1.01
   5   9  11    1.63    1.04
   6  -9  11    3.60    1.08
   6   9  11    2.99    1.09
   7  -9  11    2.69    1.07
   7   9  11    1.73    1.05
   8  -9  11    3.98    1.16
   8   9  11    6.35    1.31
   9  -9  11   -1.03    0.97
   9   9  11   -0.43    0.99
  10  -9  11   -0.13    0.96
  11  -9  11   -0.77    0.94
  10 -10 -11    5.91    1.21
  10  10 -11   10.25    1.60
   9 -10 -11    0.16    0.82
   9  10 -11    0.54    1.01
   8  10 -11    8.54    1.34
   8  10 -11   10.47    1.57
   7 -10 -11    0.57    0.72
  -7 -10  11    2.04    1.05
   7  10 -11    2.40    0.83
   7  10 -11    2.70    1.01
   6 -10 -11    2.19    0.79
  -6 -10  11    3.95    1.10
   6  10 -11    3.48    0.86
   6  10 -11    4.42    1.07
  -5 -10  11   10.44    1.59
   5 -10 -11    8.85    1.28
  -5  10  11    8.35    1.38
   5  10 -11   10.10    1.29
   5  10 -11   13.42    1.60
   4 -10 -11    3.72    0.84
  -4 -10  11    5.40    1.16
   4  10 -11    4.14    1.05
   4  10 -11    5.22    0.90
  -4  10  11    2.83    1.05
   3 -10 -11    1.10    0.66
  -3 -10  11    3.42    1.05
  -3  10  11    0.03    1.02
   3  10 -11    3.89    0.96
   2 -10 -11    3.12    0.70
  -2 -10  11    0.43    0.94
  -2  10  11    2.68    1.06
   2  10 -11    2.10    0.88
   1 -10 -11    1.18    0.62
  -1 -10  11    3.62    1.08
   1  10 -11    4.80    0.97
  -1  10  11    1.89    1.03
   0 -10 -11   13.68    1.42
   0  10  11   15.50    1.87
  -1 -10 -11   41.47    3.68
   1 -10  11   50.81    4.07
  -1  10 -11   53.32    4.03
   1  10  11   41.79    4.05
  -2 -10 -11    2.28    0.51
   2 -10  11    1.89    0.98
   2  10  11    2.91    1.10
  -2  10 -11    2.01    0.85
   3 -10  11   13.52    1.77
  -3  10 -11   14.88    1.72
   4 -10  11    2.15    1.03
  -4  10 -11    2.67    0.85
   4  10  11    0.19    1.05
   5  10  11   24.66    2.53
   6 -10  11   -0.14    0.94
   6  10  11    0.25    0.93
   7 -10  11    5.71    1.18
   7  10  11    5.19    1.26
   8 -10  11    3.95    1.16
   8  10  11    5.08    1.27
   9 -10  11    1.01    1.01
   9  10  11    0.67    1.01
  10 -10  11    2.98    1.06
  11 -10  11   -0.82    0.92
  10 -11 -11    0.91    0.89
   9  11 -11    1.15    1.07
   8 -11 -11    0.36    0.79
   8  11 -11    0.41    0.99
   8  11 -11    1.17    0.81
  -7 -11  11    1.64    1.01
   7 -11 -11    2.72    0.85
   7  11 -11    1.66    0.99
   7  11 -11    2.04    0.81
   6 -11 -11    1.97    0.80
  -6 -11  11    1.14    1.03
   6  11 -11    1.26    0.98
   6  11 -11    0.94    0.75
   5 -11 -11   -0.55    0.62
  -5 -11  11   -0.83    0.94
  -5  11  11    0.08    0.89
   5  11 -11    0.16    0.65
   5  11 -11   -0.41    0.88
   4 -11 -11    2.80    0.76
  -4 -11  11    0.45    0.97
   4  11 -11    1.63    0.92
  -4  11  11    2.58    1.04
   3 -11 -11   11.74    1.25
  -3 -11  11    6.71    1.37
  -3  11  11   11.39    1.66
   3  11 -11    8.51    1.35
  -2 -11  11    1.78    1.03
   2  11 -11    1.85    0.90
  -2  11  11    3.97    1.13
   1 -11 -11   17.60    1.73
  -1  11  11   19.44    2.08
   0 -11  11   10.23    1.72
   0 -11 -11   14.15    1.36
   0  11  11   15.61    1.82
   0  11 -11   10.84    1.66
  -1 -11 -11    0.94    0.50
   1 -11  11    1.20    1.00
  -1  11 -11    0.75    0.82
   1  11  11    0.81    1.06
  -2 -11 -11    7.13    0.84
   2 -11  11    4.98    1.19
   2  11  11    5.82    1.25
  -2  11 -11    4.63    1.04
   3 -11  11    3.24    1.07
   3  11  11    1.30    1.09
  -3  11 -11    3.74    0.92
   4 -11  11   13.27    1.77
   4  11  11   14.07    1.86
   5 -11  11    1.22    1.01
   5  11  11    1.93    1.14
   6 -11  11   18.64    2.06
   6  11  11   15.84    2.06
   7 -11  11    7.11    1.27
   7  11  11    6.53    1.38
   8 -11  11    8.27    1.37
   8  11  11    9.17    1.52
   9 -11  11    3.93    1.12
   9  11  11    4.53    1.30
  10 -11  11    3.23    1.07
  10 -12 -11    2.36    0.94
   9  12 -11    2.53    1.12
   8  12 -11    9.00    1.49
  -7 -12  11    0.47    0.99
   7 -12 -11   -0.29    0.76
   7  12 -11   -0.78    0.95
   7  12 -11    0.03    0.71
  -6 -12  11   29.63    2.83
   6  12 -11   26.24    2.53
   6  12 -11   28.06    2.75
   5 -12 -11    1.98    0.81
  -5 -12  11    1.98    1.04
  -5  12  11    2.52    0.97
   5  12 -11    2.21    1.03
  -4 -12  11   23.99    2.49
   4  12 -11   22.96    2.42
   3 -12 -11   21.60    2.09
  -3  12  11   24.39    2.42
   2 -12 -11    9.54    1.31
  -2 -12  11   14.94    1.74
  -2  12  11   10.77    1.68
   1 -12 -11    9.78    1.25
  -1 -12  11   12.29    1.70
  -1  12  11   11.17    1.71
   1  12 -11   11.86    1.63
   0 -12 -11    7.60    1.07
   0 -12  11   11.82    1.60
   0  12  11    7.20    1.39
   1 -12  11   15.13    1.84
  -1 -12 -11   13.74    1.38
   1  12  11   11.87    1.85
  -1  12 -11   17.42    1.84
   2 -12  11   -0.39    0.95
   2  12  11   -0.70    1.06
  -2  12 -11    0.53    0.83
   3 -12  11    1.11    0.99
   3  12  11    0.94    1.07
  -3  12 -11    1.67    0.83
   4 -12  11    0.20    0.96
   4  12  11    1.03    0.99
   5 -12  11    4.51    1.12
   5  12  11    3.67    1.24
   6 -12  11    2.31    1.08
   6  12  11    6.04    1.33
   7 -12  11    3.25    1.09
   7  12  11    0.69    1.04
   8 -12  11    0.96    1.00
   8  12  11    2.13    1.12
   9 -12  11    3.35    1.09
  10 -12  11   -1.43    0.97
   9  13 -11   11.65    1.80
   8  13 -11    0.90    1.04
   7 -13 -11   11.92    1.48
   7  13 -11    8.30    1.36
   7  13 -11    9.72    1.54
  -6 -13  11    0.22    1.05
   6 -13 -11    0.99    0.79
   6  13 -11    1.33    1.03
  -5 -13  11    1.45    1.12
   5 -13 -11    4.22    0.92
   5  13 -11    1.62    1.04
  -4 -13  11    3.95    1.15
  -4  13  11    6.34    1.21
   4  13 -11    3.70    1.10
  -3 -13  11   11.23    1.88
   3 -13 -11   15.60    1.58
  -3  13  11   18.07    1.94
   3  13 -11   12.98    1.85
  -2 -13  11    0.61    1.01
  -2  13  11    4.26    1.22
   2  13 -11    2.35    0.98
   1 -13 -11   -0.25    0.57
  -1 -13  11   -0.56    0.95
  -1  13  11    0.45    1.05
   1  13 -11   -0.33    0.86
   0 -13  11   25.38    2.79
   0 -13 -11   29.70    2.45
   0  13  11   30.17    2.81
   0  13 -11   29.03    2.77
   1 -13  11    2.08    1.02
  -1 -13 -11    0.41    0.47
  -1  13 -11    1.67    0.89
   1  13  11    1.45    1.13
   2  13  11   17.36    2.12
   3 -13  11    3.41    1.10
  -3  13 -11    4.50    1.01
   3  13  11    4.18    1.26
   4 -13  11    4.62    1.18
   4  13  11    7.23    1.34
   5 -13  11    0.94    0.99
   5  13  11    1.17    0.99
   6 -13  11    0.70    0.98
   6  13  11    3.35    1.21
   7 -13  11    1.26    1.04
   7  13  11    1.24    1.07
   8 -13  11    1.33    1.01
   8  13  11   -0.16    1.02
   9 -13  11   -0.36    0.98
   8  14 -11    3.25    1.17
   7 -14 -11    0.23    0.79
   7  14 -11    1.57    1.05
   6 -14 -11    2.73    0.94
  -6 -14  11    5.29    1.25
   6  14 -11    6.22    1.28
  -5 -14  11    0.32    1.03
   5 -14 -11    0.54    0.75
   5  14 -11    0.38    0.99
   4 -14 -11    9.53    1.32
  -4  14  11    8.44    1.39
   3 -14 -11    5.22    0.93
  -3 -14  11    3.16    1.12
  -3  14  11    4.85    1.21
   3  14 -11    3.47    1.12
  -2 -14  11   20.53    2.32
   2  14 -11   21.59    2.31
  -1 -14  11    4.16    1.20
   1 -14 -11    7.53    1.01
  -1  14  11    8.70    1.41
   1  14 -11    4.99    1.18
   0 -14  11   10.46    1.67
   0  14 -11   11.98    1.70
  -1 -14 -11    2.47    0.58
   1 -14  11    2.82    1.03
   1  14  11    2.13    1.18
  -1  14 -11    3.17    1.01
   2 -14  11   10.14    1.64
  -2  14 -11   11.45    1.62
   3 -14  11   32.68    3.20
   3  14  11   30.04    3.23
  -3  14 -11   39.95    3.16
   4 -14  11    4.16    1.11
   4  14  11    1.95    1.24
   5 -14  11    6.89    1.23
   5  14  11    3.13    1.30
   6 -14  11   -0.67    0.97
   6  14  11    0.15    1.05
   7  14  11    5.28    1.40
   8 -14  11   -0.23    0.99
   9 -14  11    0.37    0.98
   8  15 -11    1.13    1.09
   7  15 -11    3.56    1.20
   6 -15 -11    2.35    0.88
  -6 -15  11    0.11    1.05
   6  15 -11    0.94    1.05
   5 -15 -11    2.76    0.85
  -5 -15  11   -0.24    1.04
   5  15 -11    0.67    1.01
  -4 -15  11    4.68    1.22
   4  15 -11    5.31    1.21
   3 -15 -11   13.81    1.46
  -3 -15  11    8.09    1.58
  -3  15  11   13.97    1.82
   3  15 -11   10.34    1.74
  -2 -15  11    2.84    1.09
   2 -15 -11    1.63    0.71
   2  15 -11    2.26    1.04
  -2  15  11    1.64    1.17
  -1 -15  11    4.02    1.20
   1 -15 -11    7.50    1.00
   1  15 -11    4.68    1.20
  -1  15  11    6.71    1.31
   0 -15 -11    1.84    0.61
   0 -15  11    0.11    0.99
   0  15  11    0.80    1.02
   0  15 -11    0.65    0.92
   1 -15  11    1.17    1.01
   1  15  11   -0.46    0.96
  -1  15 -11    0.86    0.89
   2 -15  11    0.56    0.94
  -2  15 -11    0.77    0.87
   2  15  11   -0.81    0.95
   3 -15  11    0.15    0.94
   3  15  11   -0.53    0.96
   4 -15  11    1.18    0.98
   4  15  11    1.30    1.10
   5 -15  11    0.62    1.00
   5  15  11    1.96    1.09
   6 -15  11    5.62    1.27
   6  15  11    5.37    1.44
   7 -15  11    2.46    1.10
   7  15  11    3.68    1.38
   8 -15  11   -1.21    0.97
   7  16 -11    1.31    1.11
  -6 -16  11   12.11    1.88
   6  16 -11   13.90    1.89
  -5 -16  11    2.74    1.16
   5 -16 -11    2.71    0.86
   5  16 -11    3.15    1.16
  -4 -16  11   11.96    1.80
   4 -16 -11   10.24    1.46
   4  16 -11   13.27    1.77
  -3 -16  11    0.03    1.01
   3 -16 -11    2.40    0.80
   3  16 -11    0.38    0.98
  -3  16  11    1.52    1.16
  -2 -16  11    6.32    1.35
   2 -16 -11    4.82    0.93
  -2  16  11    4.09    1.31
   2  16 -11    8.65    1.30
   1 -16 -11    2.20    0.68
  -1 -16  11    2.32    1.12
  -1  16  11    2.38    1.18
   1  16 -11    2.82    1.06
   0 -16  11    1.71    1.05
   0 -16 -11    2.22    0.64
   0  16 -11    2.79    1.03
   0  16  11    3.10    1.26
   1 -16  11    0.66    1.01
  -1  16 -11    0.70    0.90
   1  16  11    0.69    0.99
   2 -16  11    1.24    1.02
   2  16  11    0.17    1.01
  -2  16 -11    2.24    0.96
   3 -16  11    0.09    0.95
   3  16  11    0.53    1.06
   4 -16  11    0.44    1.00
   4  16  11   -0.27    1.01
   5 -16  11    2.51    1.11
   5  16  11    1.65    1.11
   6 -16  11    0.37    1.02
   6  16  11    1.49    1.10
   7 -16  11    0.83    1.07
   7  16  11    0.94    1.13
   7  17 -11    0.46    1.12
  -6 -17  11    1.16    1.10
   6 -17 -11    0.44    0.80
   6  17 -11    0.40    1.09
  -5 -17  11    0.72    1.05
   5 -17 -11    0.46    0.76
   5  17 -11    0.16    1.04
  -4 -17  11    3.43    1.22
   4  17 -11    4.32    1.23
   3 -17 -11   -0.16    0.68
  -3 -17  11   -1.08    1.02
   3  17 -11   -0.63    1.00
  -3  17  11   -0.25    1.10
   2 -17 -11    1.80    0.78
  -2 -17  11    1.88    1.09
   2  17 -11    1.95    1.04
  -2  17  11    2.59    1.17
   1 -17 -11    0.12    0.63
  -1 -17  11    1.83    1.11
  -1  17  11   -0.04    0.98
   1  17 -11    1.81    1.04
   0 -17  11   -0.33    1.03
   0  17  11    0.49    1.02
   0  17 -11    0.04    0.98
   1 -17  11    3.86    1.21
   1  17  11    2.98    1.30
  -1  17 -11    3.36    1.08
   2 -17  11    0.22    1.03
   2  17  11    0.30    1.07
   3 -17  11   -0.29    0.97
   3  17  11    1.04    1.10
   4 -17  11    1.78    1.08
   4  17  11   -0.11    1.04
   5 -17  11    1.09    1.07
   5  17  11    0.89    1.12
   6 -17  11    1.16    1.11
   6  17  11    0.35    1.12
   7 -17  11   -0.12    1.00
  -6 -18  11    1.97    1.18
   6  18 -11    1.88    1.22
  -5 -18  11    0.99    1.12
   5 -18 -11    0.57    0.80
   5  18 -11    2.09    1.17
   4 -18 -11    1.15    0.80
  -4 -18  11    1.28    1.13
   4  18 -11    1.81    1.15
   3 -18 -11    1.91    0.78
  -3 -18  11    0.28    1.06
  -3  18  11    2.03    1.20
   3  18 -11    0.94    1.08
  -2 -18  11    9.88    1.61
   2  18 -11   10.35    1.71
  -1 -18  11    1.64    1.13
   1  18 -11    1.82    1.09
  -1  18  11    3.67    1.35
   0 -18  11   13.09    1.95
   0  18 -11   15.23    1.92
   1 -18  11   14.57    1.99
  -1  18 -11   15.38    1.96
   1  18  11   15.02    2.10
   2 -18  11    2.64    1.16
   2  18  11    1.18    1.11
   3 -18  11    6.86    1.40
   3  18  11    8.94    1.60
   4 -18  11    2.65    1.11
   4  18  11    0.16    1.09
   5 -18  11    7.45    1.40
   5  18  11    7.47    1.57
   6 -18  11   -0.41    1.05
  -6 -19  11    0.82    1.16
   6  19 -11    0.25    1.14
  -5 -19  11   -0.07    1.10
   5 -19 -11    1.15    0.80
   5  19 -11   -0.58    1.08
  -4 -19  11    1.64    1.19
   4 -19 -11    0.17    0.74
   4  19 -11    1.56    1.18
  -3 -19  11    1.31    1.11
   3 -19 -11    0.72    0.75
   3  19 -11    1.81    1.21
   2 -19 -11    1.83    0.76
  -2 -19  11    0.69    1.05
  -2  19  11    1.10    1.09
   2  19 -11    0.75    1.11
  -1 -19  11   -0.71    1.04
   1  19 -11   -0.05    1.06
  -1  19  11    0.34    1.09
   0 -19  11    0.86    1.09
   0  19 -11    1.10    1.06
   0  19  11    0.61    1.07
   1 -19  11   -0.36    1.04
   1  19  11    0.56    1.15
  -1  19 -11    0.57    0.99
   2 -19  11    1.47    1.13
   2  19  11    4.01    1.38
   3 -19  11    0.71    1.07
   3  19  11   -0.09    1.09
   4 -19  11   -0.46    1.05
   4  19  11    0.19    1.11
   5 -19  11    0.63    1.11
   5  19  11   -0.30    1.09
  -5 -20  11    0.08    1.17
   5  20 -11    0.01    1.12
  -4 -20  11    0.90    1.16
   4 -20 -11   -0.15    0.76
   4  20 -11    0.05    1.13
   3 -20 -11    0.80    0.75
  -3 -20  11    2.89    1.22
   3  20 -11    2.49    1.20
  -2 -20  11   -0.22    1.07
   2  20 -11    0.43    1.06
  -2  20  11    0.42    1.10
  -1 -20  11   -0.58    1.02
   1  20 -11    1.21    1.10
  -1  20  11    0.11    1.09
   0 -20  11   -0.81    1.01
   0  20 -11   -0.22    1.01
   0  20  11   -0.14    1.10
   1 -20  11   -0.04    1.03
   1  20  11    0.29    1.15
   2 -20  11    1.47    1.11
   2  20  11   -0.68    1.11
   3 -20  11    1.94    1.15
   3  20  11    2.80    1.39
   4 -20  11    4.84    1.27
   4  20  11    1.47    1.21
  -5 -21  11    0.28    1.16
   5  21 -11   -0.01    1.18
   4 -21 -11    0.33    0.79
  -4 -21  11    0.59    1.21
   4  21 -11    1.13    1.18
  -3 -21  11    2.21    1.20
   3  21 -11    1.65    1.25
  -2 -21  11    1.09    1.15
   2  21 -11    0.22    1.16
  -1 -21  11   -0.01    1.08
   1  21 -11    0.33    1.09
  -1  21  11   -0.22    1.10
   0 -21  11    2.65    1.23
   0  21 -11    4.01    1.24
   0  21  11    0.97    1.21
   1 -21  11   -0.92    1.05
   1  21  11    0.40    1.18
   2 -21  11    2.71    1.17
   2  21  11    0.76    1.16
   3 -21  11    0.71    1.10
   3  21  11    0.35    1.12
   4  21  11    0.97    1.20
  -5 -22  11    1.48    1.19
  -4 -22  11    2.75    1.29
   4  22 -11    3.53    1.35
  -3 -22  11   -0.28    1.15
   3  22 -11    0.27    1.17
  -2 -22  11    2.58    1.30
   2  22 -11    3.19    1.29
  -1 -22  11    6.16    1.46
   1  22 -11    8.04    1.52
  -1  22  11    8.87    1.68
   0 -22  11    3.11    1.24
   0  22  11    1.27    1.25
   1 -22  11    4.18    1.33
   1  22  11    7.81    1.66
   2  22  11    0.92    1.19
   3  22  11    4.11    1.54
  -5 -23  11    0.43    1.20
  -4 -23  11    0.99    1.16
  -3 -23  11    0.69    1.16
   3  23 -11    1.58    1.28
  -2 -23  11    0.13    1.19
   2  23 -11    1.73    1.26
   0  23  11    0.32    1.21
   1  23  11   -0.27    1.18
   2  23  11   -0.79    1.17
   3  24 -11    0.43    1.29
   2  24 -11    2.47    1.37
   0  24  11    0.89    1.27
   1  24  11    3.37    1.59
  10   0 -12    2.48    1.05
   9   0 -12    4.62    1.11
   8   0 -12    0.35    0.73
   8   0 -12    0.55    0.87
   7   0 -12    5.05    1.07
   7   0 -12    4.44    0.97
  -6   0  12    2.03    0.98
   6   0 -12    2.36    0.84
   6   0 -12    2.85    0.94
   5   0 -12    8.53    1.33
   5   0 -12    8.96    1.31
  -5   0  12    7.94    1.35
   4   0 -12   37.06    3.19
  -4   0  12   38.61    3.39
   4   0 -12   36.01    3.29
  -3   0  12    3.72    1.11
   3   0 -12    3.82    0.93
   3   0 -12    4.20    0.87
   2   0 -12   19.98    1.93
  -2   0  12   21.17    2.21
   2   0 -12   19.76    2.07
  -1   0  12   -0.77    0.93
   1   0 -12    0.63    0.73
   1   0 -12    0.14    0.56
   0   0 -12   29.78    2.78
   0   0 -12   29.83    2.59
   0   0  12   32.13    2.93
   1   0  12    0.47    0.99
  -1   0 -12    1.67    0.77
  -1   0 -12    1.27    0.59
   1   0  12    0.62    0.69
  -2   0 -12   33.53    2.98
   2   0  12   35.26    2.87
   2   0  12   29.57    3.03
   3   0  12    2.09    0.68
  -3   0 -12    2.65    0.84
   3   0  12    1.58    1.04
   4   0  12    9.72    1.24
   4   0  12    7.45    1.34
  -4   0 -12    9.39    1.33
   5   0  12   11.58    1.67
  -5   0 -12   12.38    1.49
   6   0  12   10.40    1.62
   7   0  12   25.89    2.59
   8   0  12    1.10    1.04
   9   0  12    2.91    1.15
  10   0  12    0.49    1.05
  10  -1 -12    2.28    1.04
  10   1 -12    4.47    1.11
   9  -1 -12    3.62    1.12
   9   1 -12    7.30    1.22
   8  -1 -12    0.28    0.85
   8  -1 -12    0.67    0.78
   8   1 -12    0.69    0.89
   8   1 -12    0.50    0.80
   7  -1 -12    1.84    0.79
   7  -1 -12    1.97    0.91
   6  -1 -12    0.49    0.68
  -6  -1  12    0.88    0.96
   6  -1 -12    0.12    0.80
   6   1 -12    1.67    0.81
   6   1 -12    1.65    0.88
  -6   1  12   -0.32    0.92
   5  -1 -12    4.81    0.98
   5  -1 -12    3.83    0.88
  -5   1  12    3.12    1.07
   4  -1 -12    0.20    0.66
  -4  -1  12    0.53    0.94
   4  -1 -12   -0.43    0.74
   4   1 -12   -0.15    0.65
   4   1 -12   -0.14    0.75
  -4   1  12    0.34    0.93
   3  -1 -12    1.87    0.88
  -3  -1  12    3.44    1.06
   3  -1 -12    1.81    0.74
   3   1 -12    4.17    0.92
  -3   1  12    1.88    1.04
   3   1 -12    3.77    0.82
  -2  -1  12    1.42    0.99
   2  -1 -12    0.44    0.61
   2  -1 -12    1.21    0.79
  -2   1  12    0.12    0.99
   2   1 -12    0.96    0.73
   2   1 -12    1.00    0.63
  -1  -1  12    4.65    1.14
   1   1 -12    4.89    0.84
   1   1 -12    5.26    0.97
   0  -1 -12   -0.04    0.71
   0  -1  12    0.21    0.96
   0  -1 -12   -0.19    0.51
   0   1  12    0.71    0.96
   0   1 -12    0.19    0.56
   0   1 -12    0.22    0.70
   1  -1  12    3.27    1.09
   1  -1  12    3.59    0.89
  -1  -1 -12    4.62    0.76
  -1  -1 -12    4.92    0.96
  -1   1 -12    3.57    0.89
   1   1  12    3.80    1.14
   1   1  12    5.65    0.92
  -2  -1 -12    0.58    0.74
   2  -1  12    0.71    0.65
   2  -1  12    0.94    0.97
  -2   1 -12    1.11    0.74
   2   1  12    0.66    0.67
   2   1  12   -0.31    1.02
   3  -1  12    0.40    0.64
   3  -1  12   -0.08    0.93
  -3  -1 -12    2.26    0.83
  -3   1 -12    0.22    0.71
   3   1  12    1.01    1.01
   3   1  12    0.95    0.65
   4  -1  12    0.18    0.95
  -4  -1 -12    0.45    0.72
   4  -1  12    1.16    0.62
   4   1  12   -0.13    0.96
  -4   1 -12    1.39    0.72
   4   1  12    0.35    0.60
   5  -1  12    2.17    1.01
  -5  -1 -12    1.83    0.76
   5   1  12    0.67    0.99
  -5   1 -12    3.48    0.81
   6  -1  12   -0.30    0.95
   6   1  12    1.20    1.03
   7  -1  12    5.84    1.21
   7   1  12    3.35    1.19
   8  -1  12   -0.66    1.01
   8   1  12    0.46    1.05
   9  -1  12    2.53    1.14
   9   1  12    2.02    1.15
  10  -1  12   -0.87    1.01
  10   1  12   -0.06    1.01
  10  -2 -12    3.14    1.04
  10   2 -12    1.55    1.02
   9  -2 -12    4.97    1.10
   9   2 -12    3.50    1.08
   8  -2 -12    4.51    1.09
   8  -2 -12    4.40    1.01
   8   2 -12    6.58    1.14
   8   2 -12    6.60    1.18
   7  -2 -12    8.39    1.33
   7  -2 -12    9.01    1.42
   7   2 -12    9.81    1.41
   7   2 -12   10.75    1.47
   6  -2 -12    9.01    1.29
   6  -2 -12    7.67    1.24
  -6  -2  12   10.08    1.59
  -6   2  12    7.46    1.32
   6   2 -12    9.80    1.39
   6   2 -12   10.10    1.41
   5  -2 -12    7.45    1.17
  -5  -2  12    5.94    1.22
   5  -2 -12    6.51    1.03
   5   2 -12    6.55    1.14
   5   2 -12    6.08    1.05
  -5   2  12    6.14    1.22
   4  -2 -12   27.30    2.41
  -4  -2  12   25.68    2.63
   4  -2 -12   27.30    2.56
   4   2 -12   25.59    2.53
   4   2 -12   26.19    2.43
  -4   2  12   27.16    2.63
  -3  -2  12   -0.15    0.93
   3  -2 -12    1.11    0.69
   3  -2 -12    1.10    0.79
   3   2 -12    0.22    0.63
   3   2 -12    0.31    0.74
  -3   2  12    0.36    1.01
   2  -2 -12   25.91    2.36
   2  -2 -12   25.67    2.20
  -2  -2  12   21.08    2.40
   2   2 -12   21.30    2.15
   2   2 -12   22.09    2.29
  -2   2  12   28.11    2.51
   1  -2 -12    2.49    0.80
   1  -2 -12    2.32    0.67
  -1  -2  12    1.87    1.02
  -1   2  12    2.17    1.00
   1   2 -12    2.08    0.79
   1   2 -12    1.60    0.67
   0  -2 -12   14.49    1.51
   0  -2 -12   14.77    1.68
   0   2  12   15.43    1.90
   0   2  12   16.80    1.69
  -1  -2 -12    3.01    0.82
  -1  -2 -12    2.90    0.67
   1  -2  12    4.91    1.13
   1   2  12    3.69    1.13
  -1   2 -12    5.26    0.93
   1   2  12    1.65    0.74
   2  -2  12   18.83    2.30
   2  -2  12   23.63    2.12
  -2  -2 -12   23.00    2.18
   2   2  12   19.49    2.29
   2   2  12   23.77    2.08
  -2   2 -12   21.79    2.16
  -3  -2 -12    3.33    0.87
   3  -2  12    3.91    1.11
   3  -2  12    4.73    0.89
   3   2  12    2.82    1.06
  -3   2 -12    4.29    0.91
   4  -2  12    0.92    0.64
  -4  -2 -12    2.01    0.79
   4  -2  12   -0.39    0.93
   4   2  12    1.39    0.60
   4   2  12    1.40    1.00
  -4   2 -12    0.77    0.72
   5  -2  12   -0.64    0.95
  -5  -2 -12    1.01    0.75
   5   2  12    0.46    0.95
  -5   2 -12    0.84    0.70
   6  -2  12    3.13    1.07
   6   2  12    1.94    1.03
   7  -2  12    4.65    1.21
   7   2  12    6.08    1.25
   8  -2  12    0.14    1.03
   8   2  12    0.93    1.05
   9  -2  12    8.60    1.39
   9   2  12    7.50    1.40
  10  -2  12   -1.09    0.96
  10   2  12   -0.20    1.07
  10  -3 -12    1.12    0.96
  10   3 -12    2.58    1.01
   9  -3 -12    0.18    0.89
   9   3 -12    0.06    0.89
   8  -3 -12    1.64    0.82
   8  -3 -12    1.63    0.90
   8   3 -12    0.61    0.82
   8   3 -12    0.54    0.90
   7  -3 -12    7.11    1.11
   7  -3 -12    6.95    1.12
   7   3 -12    4.62    1.04
   7   3 -12    4.22    1.09
  -6  -3  12    5.21    1.17
   6   3 -12    6.66    1.13
   6   3 -12    5.00    1.03
   5  -3 -12    0.72    0.70
   5  -3 -12    0.61    0.84
  -5  -3  12    2.39    1.04
  -5   3  12    0.48    0.96
   5   3 -12    2.16    0.79
   5   3 -12    2.56    0.90
   4  -3 -12    3.70    0.92
  -4  -3  12   -0.10    0.95
   4  -3 -12    2.71    0.75
   4   3 -12    1.03    0.80
  -4   3  12    1.93    1.04
   4   3 -12    1.17    0.71
  -3  -3  12    3.65    1.10
   3  -3 -12    1.43    0.70
   3  -3 -12    1.65    0.79
  -3   3  12    1.56    1.04
   3   3 -12    3.93    0.92
   3   3 -12    2.97    0.78
   2  -3 -12    0.61    0.71
   2  -3 -12   -0.09    0.58
  -2  -3  12    0.96    0.94
   2   3 -12    0.65    0.62
   2   3 -12    1.36    0.79
  -2   3  12    0.00    0.97
   1  -3 -12    9.57    1.31
   1  -3 -12    9.02    1.16
  -1   3  12    7.10    1.33
   0  -3  12   -0.14    0.94
   0  -3 -12    0.05    0.54
   0   3  12   -0.18    1.00
   0   3 -12   -0.05    0.72
   0   3  12    0.08    0.68
   0   3 -12    0.17    0.59
  -1  -3 -12   24.36    2.34
   1  -3  12   34.51    2.70
   1   3  12   24.69    2.67
   1   3  12   28.13    2.49
   2   3  12    3.04    1.10
   2   3  12    3.90    0.83
   3  -3  12   21.06    1.97
  -3  -3 -12   16.25    1.78
   3   3  12   15.28    1.68
   3   3  12   14.70    1.91
   4  -3  12    0.92    0.67
   4  -3  12    0.18    0.93
  -4  -3 -12    1.28    0.72
   4   3  12    1.86    1.00
  -4   3 -12    0.93    0.71
  -5  -3 -12    0.26    0.69
   5  -3  12   -0.08    0.97
   5   3  12   -0.17    0.93
   6  -3  12    0.50    0.98
   6   3  12    1.14    1.00
   7  -3  12    0.81    1.00
   7   3  12   -0.53    0.99
   8  -3  12    2.30    1.07
   8   3  12    0.60    1.03
   9  -3  12   -0.09    1.00
   9   3  12   -0.82    1.01
  10  -3  12    0.54    0.99
  10   3  12    0.78    1.08
  10  -4 -12    3.96    1.07
  10   4 -12    2.33    1.04
   9  -4 -12    0.95    0.93
   9   4 -12    0.37    0.93
   8  -4 -12    2.72    0.87
   8  -4 -12    2.79    0.95
   8   4 -12    3.23    1.01
   8   4 -12    1.64    0.90
   7  -4 -12    6.60    1.08
   7  -4 -12    6.26    1.13
   7   4 -12    5.34    1.09
   7   4 -12    5.24    1.15
   6  -4 -12    7.90    1.13
  -6  -4  12    4.36    1.19
   6  -4 -12    8.39    1.29
   6   4 -12    4.85    1.08
  -6   4  12    6.77    1.18
   6   4 -12    4.52    1.01
   5  -4 -12   26.64    2.26
   5  -4 -12   26.34    2.15
  -5  -4  12   17.90    2.28
  -5   4  12   26.82    2.36
   5   4 -12   16.49    2.07
   5   4 -12   18.74    2.18
  -4  -4  12    4.27    1.14
   4  -4 -12    3.92    0.94
   4  -4 -12    5.05    0.90
  -4   4  12    4.28    1.17
   4   4 -12    4.13    0.90
   4   4 -12    4.32    1.03
   3  -4 -12    8.69    1.14
  -3  -4  12    5.57    1.25
   3  -4 -12    8.95    1.26
   3   4 -12    6.72    1.06
   3   4 -12    7.20    1.16
  -3   4  12    7.42    1.31
   2  -4 -12   10.70    1.24
  -2  -4  12    8.50    1.39
   2   4 -12    8.55    1.23
   2   4 -12   10.19    1.35
  -2   4  12    9.80    1.59
  -1  -4  12    7.88    1.28
   1   4 -12    7.05    1.12
   1   4 -12    7.93    1.16
   0  -4  12   15.67    1.87
   0  -4 -12   14.31    1.54
   0   4 -12   18.19    1.77
   0   4  12   14.01    1.90
   0   4  12   17.33    1.74
  -1  -4 -12    0.52    0.51
   1  -4  12    0.44    0.93
   1   4  12    0.71    0.64
   1   4  12    0.30    0.92
  -1   4 -12    0.30    0.73
   2  -4  12   11.29    1.65
   2   4  12   11.90    1.41
   2   4  12   10.86    1.66
  -2   4 -12   11.66    1.45
   3  -4  12   17.94    2.09
  -3   4 -12   20.05    1.98
   4  -4  12    9.29    1.55
   4   4  12   10.95    1.61
  -4   4 -12   10.24    1.42
   5  -4  12    9.32    1.58
  -5  -4 -12   11.28    1.40
   5   4  12   11.77    1.64
   6  -4  12    3.27    1.08
   6   4  12    4.85    1.14
   7  -4  12   10.56    1.64
   7   4  12   11.37    1.66
   8  -4  12    0.59    1.02
   8   4  12    1.93    1.11
   9  -4  12    2.33    1.06
   9   4  12    1.60    1.11
  10  -4  12   -0.47    0.97
  10   4  12    0.81    1.04
  10  -5 -12    0.80    0.93
  10   5 -12    1.22    1.03
   9  -5 -12    0.92    0.91
   9   5 -12    1.66    0.98
   8  -5 -12    1.27    0.90
   8  -5 -12    0.57    0.79
   8   5 -12    3.15    1.01
   8   5 -12    3.10    0.95
   7  -5 -12    1.61    0.80
   7  -5 -12    1.04    0.91
   7   5 -12    3.13    0.89
   7   5 -12    3.58    1.00
  -6  -5  12    0.27    0.96
   6  -5 -12    0.01    0.79
   6  -5 -12   -0.46    0.67
   6   5 -12    1.19    0.88
   6   5 -12    1.31    0.76
  -6   5  12   -1.02    0.89
   5  -5 -12    3.05    0.89
   5  -5 -12    3.06    0.85
  -5  -5  12    5.63    1.17
   5   5 -12    6.20    1.00
  -5   5  12    1.74    1.04
   5   5 -12    6.17    1.08
   4  -5 -12    9.31    1.28
  -4  -5  12   11.57    1.67
   4   5 -12   10.22    1.29
   4   5 -12    9.87    1.42
  -4   5  12    7.60    1.42
   3  -5 -12    6.94    1.05
  -3  -5  12    4.31    1.18
   3   5 -12    4.81    0.90
  -3   5  12    6.87    1.23
   3   5 -12    5.64    1.09
   2  -5 -12    0.74    0.59
  -2  -5  12   -0.50    0.91
   2   5 -12    0.20    0.61
  -2   5  12    0.33    1.02
   2   5 -12    0.65    0.79
   1  -5 -12    1.61    0.63
  -1  -5  12    1.19    1.03
   1   5 -12    2.55    0.88
  -1   5  12    0.59    0.96
   1   5 -12    1.57    0.67
   0  -5  12    2.11    1.03
   0  -5 -12    2.58    0.65
   0   5  12    2.02    0.74
   0   5 -12    2.60    0.85
   0   5  12    2.62    1.04
   1  -5  12    1.56    1.00
  -1  -5 -12    2.60    0.62
  -1   5 -12    1.80    0.83
   1   5  12    2.89    1.09
   1   5  12    1.78    0.70
  -2  -5 -12    6.51    0.89
   2   5  12    6.39    0.94
  -2   5 -12    3.56    0.93
   2   5  12    5.33    1.20
   3  -5  12    0.60    0.90
  -3   5 -12    0.73    0.73
   3   5  12    0.45    0.66
   3   5  12    0.53    1.04
   4  -5  12   -0.25    0.89
   4   5  12    1.09    1.05
  -4   5 -12    0.01    0.71
   5  -5  12    3.85    1.08
   5   5  12    2.04    1.10
   6  -5  12   -0.85    0.90
   6   5  12   -0.21    1.02
   7  -5  12    3.10    1.08
   7   5  12    3.28    1.20
   8  -5  12    4.11    1.12
   8   5  12    2.04    1.21
   9  -5  12    6.97    1.23
   9   5  12    3.74    1.24
  10  -5  12    0.60    1.03
  10  -6 -12    0.98    0.93
  10   6 -12    0.47    0.99
   9  -6 -12    4.40    1.09
   9   6 -12    5.93    1.22
   8  -6 -12    2.01    0.89
   8  -6 -12    3.04    1.02
   8   6 -12    4.92    1.12
   8   6 -12    4.57    1.00
   7  -6 -12    0.43    0.84
   7  -6 -12    0.53    0.72
   7   6 -12    0.58    0.91
   7   6 -12    0.24    0.70
   6  -6 -12    6.54    1.08
  -6  -6  12    6.26    1.25
   6  -6 -12    5.01    1.05
   6   6 -12    7.42    1.20
   6   6 -12    6.49    1.10
   5  -6 -12    0.19    0.68
  -5  -6  12    0.39    0.99
   5   6 -12    0.25    0.84
  -5   6  12   -0.80    0.95
   5   6 -12    0.01    0.65
  -4  -6  12   11.02    1.68
   4  -6 -12   10.56    1.35
  -4   6  12   10.77    1.66
   4   6 -12   11.05    1.54
   4   6 -12   10.36    1.35
   3  -6 -12    7.98    1.17
  -3  -6  12    8.39    1.40
   3   6 -12    8.86    1.35
   3   6 -12    8.45    1.21
  -3   6  12    7.50    1.38
  -2  -6  12    0.84    0.98
   2   6 -12    2.96    0.89
   2   6 -12    2.27    0.75
  -1  -6  12   -0.25    0.94
   1  -6 -12    0.34    0.57
  -1   6  12    0.63    0.94
   1   6 -12    0.57    0.78
   0  -6 -12   23.49    2.17
   0   6  12   26.22    2.29
   0   6  12   24.85    2.48
   1  -6  12    5.02    1.18
  -1  -6 -12    4.59    0.78
   1   6  12    6.62    1.24
   1   6  12    5.11    0.93
  -1   6 -12    6.68    1.07
  -2  -6 -12    1.77    0.54
   2  -6  12    0.66    0.98
  -2   6 -12    1.38    0.78
   2   6  12    2.31    1.08
   2   6  12    1.32    0.61
   3  -6  12    1.26    0.95
  -3   6 -12    0.93    0.77
   3   6  12   -0.06    0.99
   4  -6  12    1.25    0.98
  -4   6 -12    2.01    0.81
   4   6  12    3.17    1.11
   5  -6  12    0.58    1.00
   5   6  12    0.49    1.05
   6  -6  12   -0.95    0.94
   6   6  12    0.16    1.03
   7  -6  12    2.44    1.08
   7   6  12    5.19    1.23
   8  -6  12    2.22    1.09
   8   6  12    0.80    1.12
   9  -6  12    1.25    1.06
   9   6  12    3.25    1.23
  10  -6  12   -0.19    1.00
  10  -7 -12    0.50    0.91
   9  -7 -12   -0.09    0.88
   9   7 -12    0.62    0.97
   8  -7 -12    0.74    0.91
   8  -7 -12    1.06    0.81
   8   7 -12    1.11    0.81
   8   7 -12    1.17    0.98
   7  -7 -12   -0.34    0.78
   7  -7 -12    0.20    0.72
   7   7 -12   -0.49    0.87
   7   7 -12    0.09    0.72
  -6  -7  12    2.36    1.06
   6  -7 -12    1.01    0.73
   6   7 -12    2.68    0.98
   6   7 -12    3.09    0.84
  -5  -7  12    2.15    1.05
   5  -7 -12    1.65    0.75
  -5   7  12    1.10    1.02
   5   7 -12    2.57    0.95
   5   7 -12    3.42    0.82
  -4  -7  12   16.08    1.97
   4   7 -12   14.15    1.63
   4   7 -12   15.97    1.82
   3  -7 -12    1.20    0.68
  -3  -7  12    2.89    1.09
   3   7 -12    3.97    0.99
  -3   7  12    0.40    1.04
   3   7 -12    3.47    0.79
  -2  -7  12    2.61    1.10
   2  -7 -12    0.63    0.62
   2   7 -12    2.72    0.75
   2   7 -12    2.75    0.91
  -2   7  12    0.46    0.95
   1  -7 -12    8.64    1.13
  -1   7  12   10.14    1.58
   0  -7  12   -1.32    0.93
   0  -7 -12   -0.38    0.52
   0   7  12   -0.14    0.64
   0   7  12   -0.63    0.97
   0   7 -12    0.62    0.78
  -1  -7 -12    9.09    1.11
   1   7  12    9.91    1.59
   1   7  12    8.37    1.27
   2  -7  12    1.39    1.03
  -2  -7 -12    0.67    0.49
  -2   7 -12    2.45    0.85
   2   7  12    1.12    1.03
   2   7  12    1.10    0.70
   3  -7  12    2.85    1.10
  -3   7 -12    3.02    0.87
   3   7  12    6.60    1.22
   4  -7  12    8.81    1.39
  -4   7 -12    8.98    1.36
   5  -7  12   -0.49    0.99
   5   7  12    0.37    1.03
   6  -7  12    0.64    1.02
   6   7  12    0.74    1.04
   7  -7  12    0.79    1.05
   7   7  12    1.26    1.01
   8  -7  12    3.12    1.11
   8   7  12    1.64    1.06
   9  -7  12   -0.19    0.99
   9   7  12   -0.50    1.00
  10  -7  12   -2.35    0.99
  10  -8 -12    0.58    0.90
   9  -8 -12    1.25    0.95
   9   8 -12    0.14    0.99
   8  -8 -12    6.68    1.15
   8   8 -12    3.58    1.14
   7  -8 -12    4.53    0.96
   7   8 -12    3.72    1.09
   7   8 -12    3.64    0.94
  -6  -8  12    1.21    1.02
   6   8 -12    2.24    0.79
   6   8 -12    1.77    0.95
   5  -8 -12    2.09    0.76
  -5  -8  12    0.72    1.01
   5   8 -12    1.53    0.90
   5   8 -12    0.43    0.70
  -5   8  12    1.46    1.00
   4  -8 -12    5.23    0.90
  -4  -8  12    2.51    1.08
   4   8 -12    3.88    0.98
   4   8 -12    2.99    0.83
  -4   8  12    3.60    1.17
   3  -8 -12    1.83    0.69
  -3  -8  12    1.07    1.07
   3   8 -12    1.00    0.83
   3   8 -12    0.57    0.66
  -3   8  12    1.11    1.02
  -2  -8  12    2.10    1.09
   2  -8 -12    2.31    0.72
   2   8 -12    3.74    0.96
  -2   8  12    2.78    1.07
   1  -8 -12    0.45    0.59
  -1  -8  12   -0.24    1.02
   1   8 -12   -0.39    0.77
  -1   8  12    1.11    1.02
   0  -8 -12    2.08    0.64
   0  -8  12    3.43    1.12
   0   8 -12    5.32    1.00
   0   8  12    2.69    0.82
   0   8  12    2.57    1.12
  -1  -8 -12   24.87    1.96
   1  -8  12   18.09    2.27
  -1   8 -12   18.72    2.18
   1   8  12   25.43    2.39
  -2  -8 -12    2.04    0.54
   2  -8  12    2.89    1.05
   2   8  12    2.63    1.12
  -2   8 -12    3.91    0.91
   3  -8  12    3.29    1.10
  -3   8 -12    3.72    0.93
   3   8  12    7.03    1.23
   4  -8  12    8.56    1.38
  -4   8 -12    9.71    1.40
   5  -8  12   11.97    1.80
   5   8  12   16.95    1.90
   6  -8  12    0.36    0.99
   6   8  12    1.55    1.11
   7  -8  12   -0.24    1.00
   7   8  12   -0.27    0.98
   8  -8  12    1.84    1.07
   8   8  12    1.13    1.03
   9  -8  12   -1.31    1.00
   9   8  12    0.50    1.01
  10  -8  12   -0.80    0.99
   9  -9 -12    0.60    0.92
   9   9 -12    1.34    1.05
   8   9 -12    5.44    1.22
   7  -9 -12    0.04    0.73
   7   9 -12    1.12    0.75
   7   9 -12    1.04    0.97
   6  -9 -12    4.40    0.99
  -6  -9  12    5.43    1.24
   6   9 -12    7.64    1.27
   6   9 -12    6.11    1.06
  -5  -9  12    0.26    1.02
   5  -9 -12   -0.59    0.64
   5   9 -12    0.27    0.66
   5   9 -12   -0.32    0.84
  -5   9  12    0.05    0.95
  -4  -9  12    1.26    1.04
   4  -9 -12    2.57    0.78
   4   9 -12    1.64    0.93
   4   9 -12    2.03    0.77
  -4   9  12    1.32    1.04
  -3  -9  12    4.24    1.24
   3   9 -12    6.23    1.14
   2  -9 -12    0.84    0.63
  -2  -9  12    4.11    1.16
  -2   9  12    1.65    1.06
  -1  -9  12    5.57    1.19
   1  -9 -12    2.19    0.67
  -1   9  12    2.06    1.12
   0  -9  12    0.53    1.04
   0  -9 -12    1.26    0.59
   0   9 -12    1.41    0.88
   0   9  12    1.31    1.08
  -1  -9 -12   21.25    2.13
   1  -9  12   29.23    2.60
  -1   9 -12   30.29    2.50
   1   9  12   21.41    2.52
  -2  -9 -12    7.99    0.94
   2  -9  12    5.90    1.29
  -2   9 -12    7.44    1.15
   2   9  12    7.48    1.36
   3  -9  12    4.55    1.16
  -3   9 -12    5.48    0.99
   3   9  12    1.96    1.18
   4  -9  12    1.15    1.00
   4   9  12    1.43    1.11
   5  -9  12    4.85    1.16
   5   9  12    2.33    1.18
   6  -9  12    0.10    1.02
   6   9  12    1.05    1.01
   7  -9  12    8.41    1.39
   7   9  12    6.52    1.41
   8  -9  12    3.68    1.16
   8   9  12    2.09    1.22
   9  -9  12   -0.20    1.02
   9 -10 -12    1.56    0.93
   9  10 -12    0.10    1.05
   8  10 -12   -0.50    0.96
   7 -10 -12   -0.02    0.76
   7  10 -12   -0.15    0.94
   7  10 -12    0.28    0.75
   6 -10 -12   -0.03    0.73
  -6 -10  12    0.26    1.05
   6  10 -12    0.59    0.96
   6  10 -12    1.93    0.79
   5 -10 -12    3.53    0.89
  -5 -10  12    2.73    1.10
  -5  10  12    2.95    1.12
   5  10 -12    3.12    0.85
   5  10 -12    3.00    1.04
   4 -10 -12   -0.07    0.63
  -4 -10  12   -0.49    0.99
  -4  10  12    0.47    0.99
   4  10 -12   -0.27    0.63
   4  10 -12   -0.08    0.88
   3 -10 -12    0.95    0.70
  -3 -10  12    4.34    1.17
  -3  10  12    1.67    1.06
   3  10 -12    3.86    1.04
  -2 -10  12    8.61    1.44
   2  10 -12    9.49    1.48
  -1 -10  12   -0.89    0.98
   1 -10 -12   -0.14    0.56
  -1  10  12    0.15    1.03
   1  10 -12   -0.31    0.80
   0 -10  12   16.13    2.30
   0 -10 -12   24.63    1.94
   0  10  12   26.34    2.37
   0  10 -12   17.38    2.16
   1 -10  12    2.66    1.08
  -1 -10 -12    3.55    0.66
   1  10  12    3.97    1.22
  -1  10 -12    2.13    0.90
   2 -10  12    2.39    1.07
  -2  10 -12    3.10    0.91
   3 -10  12   -0.35    0.98
   3  10  12    0.55    1.13
  -3  10 -12    0.18    0.78
   4 -10  12   12.39    1.77
   4  10  12   13.56    1.85
   5 -10  12    3.67    1.14
   6 -10  12    2.80    1.11
   6  10  12    1.68    1.04
   7 -10  12    2.94    1.14
   7  10  12    3.95    1.27
   8 -10  12    7.06    1.30
   8  10  12    2.83    1.30
   9 -10  12    1.90    1.10
   9 -11 -12    1.20    0.90
   8  11 -12    7.10    1.38
   7 -11 -12    3.01    0.96
   7  11 -12    5.58    1.24
  -6 -11  12   16.04    2.08
   6  11 -12   16.14    1.80
   6  11 -12   17.91    2.04
   5 -11 -12    0.11    0.72
  -5 -11  12    1.51    1.12
   5  11 -12    1.39    0.97
   5  11 -12    2.37    0.79
   4 -11 -12    4.03    0.87
  -4 -11  12    1.15    1.04
  -4  11  12    3.06    1.06
   4  11 -12    1.52    0.99
   3 -11 -12   12.47    1.47
  -3  11  12   14.18    1.85
   2 -11 -12    4.29    0.83
  -2 -11  12    2.74    1.14
   2  11 -12    4.30    1.08
  -2  11  12    4.03    1.19
  -1 -11  12   11.04    1.63
   1 -11 -12    8.35    1.18
  -1  11  12    7.96    1.47
   1  11 -12   12.89    1.59
   0 -11 -12    0.23    0.55
   0 -11  12    0.46    1.03
   0  11 -12    0.60    0.86
   0  11  12    0.45    1.07
   1 -11  12   19.48    2.25
  -1  11 -12   20.30    2.17
   2 -11  12    0.84    1.06
   2  11  12    0.24    1.13
  -2  11 -12    1.32    0.87
   3 -11  12    0.28    1.03
   3  11  12   -0.36    1.11
  -3  11 -12    0.98    0.83
   4 -11  12    3.55    1.14
   4  11  12    2.84    1.19
   5 -11  12    5.76    1.23
   5  11  12    2.57    1.17
   6 -11  12   10.54    1.62
   6  11  12    5.37    1.36
   7 -11  12    3.83    1.20
   7  11  12    2.50    1.24
   8 -11  12    6.47    1.27
   8  11  12    4.48    1.38
   9 -11  12   -1.35    0.99
   8  12 -12    2.58    1.14
   7  12 -12    2.93    1.11
   6 -12 -12    5.67    1.01
  -6 -12  12    2.51    1.18
   6  12 -12    2.35    0.84
   6  12 -12    2.25    1.09
  -5 -12  12    0.97    1.05
   5 -12 -12    1.66    0.77
   5  12 -12    0.10    0.95
  -4 -12  12   13.84    2.12
   4 -12 -12   22.46    1.93
   4  12 -12   14.16    2.07
  -4  12  12   21.39    2.14
   3 -12 -12    2.84    0.83
  -3 -12  12    4.64    1.20
   3  12 -12    6.84    1.20
  -3  12  12    3.55    1.24
   2 -12 -12   10.05    1.22
  -2 -12  12    6.62    1.40
  -2  12  12   11.93    1.69
   2  12 -12    7.36    1.30
   1 -12 -12    4.23    0.77
  -1 -12  12    1.61    1.07
  -1  12  12    3.71    1.21
   1  12 -12    2.50    0.98
   0 -12  12    8.14    1.43
   0 -12 -12    8.09    1.10
   0  12  12    8.49    1.50
   0  12 -12   10.87    1.53
  -1  12 -12    3.84    1.04
   1  12  12    6.55    1.34
   2 -12  12   12.62    1.75
  -2  12 -12   13.68    1.68
   2  12  12    9.46    1.67
   3 -12  12    1.85    1.09
  -3  12 -12    1.41    0.87
   3  12  12    4.40    1.23
   4 -12  12    0.65    1.03
   4  12  12    0.06    0.93
   5 -12  12    0.77    1.04
   5  12  12    1.12    1.01
   6 -12  12    1.22    1.06
   6  12  12    1.36    1.03
   7 -12  12    1.20    1.08
   7  12  12    0.92    1.04
   8 -12  12    0.64    1.04
   8  13 -12    6.18    1.39
   7  13 -12    4.84    1.29
  -6 -13  12    1.98    1.14
   6 -13 -12    0.29    0.73
   6  13 -12    2.16    1.13
  -5 -13  12    2.48    1.16
   5 -13 -12    1.52    0.79
   5  13 -12    3.58    1.12
   4 -13 -12    2.40    0.82
  -4 -13  12    4.67    1.21
  -4  13  12    3.17    1.14
   3 -13 -12    8.04    1.20
  -3  13  12    7.14    1.39
   2 -13 -12    0.62    0.64
  -2 -13  12    1.79    1.09
  -2  13  12    1.25    1.12
   2  13 -12    2.60    1.01
   1 -13 -12    8.88    1.17
  -1  13  12    8.33    1.47
   0 -13  12    0.22    1.01
   0 -13 -12    0.03    0.52
   0  13  12    1.24    1.17
   0  13 -12   -0.03    0.88
   1 -13  12   26.75    2.75
  -1  13 -12   28.42    2.73
   2 -13  12    0.97    1.01
  -2  13 -12    0.53    0.84
   2  13  12    0.31    1.09
   3  13  12    8.98    1.51
   4 -13  12    0.63    1.01
   4  13  12    0.15    1.04
   5 -13  12    1.52    1.07
   5  13  12    0.12    1.03
   6 -13  12    1.51    1.09
   6  13  12    2.11    1.10
   7 -13  12   -0.31    1.01
   7  13  12    0.55    1.09
   8 -13  12    0.91    1.06
   7  14 -12    1.78    1.11
  -6 -14  12   -0.03    1.09
   6 -14 -12   -0.04    0.74
   6  14 -12    0.35    1.06
  -5 -14  12    0.03    1.09
   5 -14 -12    1.60    0.76
   5  14 -12    0.71    1.04
   4 -14 -12    2.87    0.83
  -4 -14  12    1.10    1.11
   4  14 -12    1.06    1.05
  -3 -14  12    2.81    1.15
   3 -14 -12    2.19    0.78
   3  14 -12    4.14    1.11
  -3  14  12    2.65    1.19
  -2 -14  12    0.82    1.07
   2 -14 -12    2.59    0.76
   2  14 -12    1.48    1.00
  -2  14  12    2.98    1.21
  -1 -14  12    1.26    1.03
   1 -14 -12   -0.21    0.57
  -1  14  12    0.07    1.03
   1  14 -12    1.33    0.95
   0 -14 -12    1.61    0.60
   0 -14  12    0.16    1.02
   0  14 -12    0.94    0.93
   0  14  12    1.52    1.06
   1 -14  12    0.46    1.03
  -1  14 -12    1.29    0.97
   1  14  12    0.28    0.99
   2 -14  12    1.06    1.03
  -2  14 -12    1.70    0.93
   3 -14  12    1.94    1.08
   3  14  12    2.44    1.25
   4 -14  12    1.96    1.08
   4  14  12    0.94    1.08
   5 -14  12    2.75    1.16
   5  14  12    4.52    1.36
   6 -14  12    3.34    1.15
   6  14  12    1.29    1.16
   7 -14  12    4.68    1.21
   7  15 -12   11.58    1.82
  -6 -15  12    1.50    1.13
   6 -15 -12    0.12    0.79
   6  15 -12    1.40    1.12
  -5 -15  12    9.00    1.64
   5 -15 -12   11.96    1.49
   5  15 -12   11.45    1.81
  -4 -15  12    7.87    1.55
   4  15 -12    9.36    1.50
  -3 -15  12    4.46    1.30
   3 -15 -12    5.54    0.98
   3  15 -12    5.89    1.28
  -3  15  12    5.06    1.30
   2 -15 -12   -0.09    0.64
  -2 -15  12    0.90    1.06
  -2  15  12    1.05    1.06
   2  15 -12    0.54    1.00
   1 -15 -12    0.75    0.64
  -1 -15  12   -0.06    1.04
  -1  15  12    0.63    1.04
   1  15 -12    0.71    0.99
   0 -15  12   -0.38    1.03
   0  15  12   -0.83    0.96
   0  15 -12   -0.26    0.93
   1 -15  12   -1.05    0.99
   1  15  12    0.35    1.04
  -1  15 -12   -0.36    0.95
   2 -15  12    1.18    1.05
   2  15  12    2.01    1.12
  -2  15 -12    2.09    0.95
   3 -15  12    1.80    1.08
   3  15  12    1.20    1.09
   4 -15  12    1.78    1.07
   4  15  12    2.61    1.30
   5 -15  12    2.62    1.11
   5  15  12    1.80    1.31
   6 -15  12    1.93    1.11
   6  15  12    0.74    1.13
  -6 -16  12    1.88    1.18
   6  16 -12    2.96    1.20
   5 -16 -12    0.73    0.82
  -5 -16  12    2.27    1.21
   5  16 -12    3.48    1.20
   4 -16 -12   -0.44    0.72
  -4 -16  12   -0.48    1.10
   4  16 -12    1.05    1.09
   3 -16 -12    0.31    0.67
  -3 -16  12   -0.48    1.10
  -3  16  12    1.01    1.15
   3  16 -12    0.44    1.05
   2 -16 -12    1.44    0.71
  -2 -16  12    0.70    1.12
  -2  16  12    1.58    1.10
   2  16 -12    1.13    1.01
  -1 -16  12    3.26    1.19
   1  16 -12    3.15    1.12
  -1  16  12    4.94    1.34
   0 -16  12   -0.41    1.04
   0  16 -12   -0.59    0.93
   0  16  12   -0.36    0.96
   1 -16  12    0.59    1.08
   1  16  12    0.59    1.09
  -1  16 -12    0.47    0.97
   2 -16  12    0.73    1.06
   2  16  12    0.31    1.06
   3 -16  12   -0.04    1.02
   3  16  12    1.79    1.13
   4 -16  12    1.67    1.11
   4  16  12   -0.03    1.11
   5 -16  12    3.01    1.18
   5  16  12    0.51    1.13
   6 -16  12    3.09    1.19
  -6 -17  12    3.09    1.27
   6  17 -12    3.85    1.28
  -5 -17  12    6.16    1.43
   5  17 -12    6.65    1.42
  -4 -17  12    1.41    1.16
   4 -17 -12    0.65    0.81
   4  17 -12    2.12    1.15
  -3 -17  12    3.73    1.29
   3  17 -12    4.72    1.26
  -2 -17  12   -0.25    1.10
   2 -17 -12   -0.46    0.63
  -2  17  12   -0.36    1.06
   2  17 -12    0.45    1.01
  -1 -17  12   16.46    2.18
   1  17 -12   17.50    2.07
  -1  17  12   14.53    2.15
   0 -17  12    3.12    1.21
   0  17  12    1.00    1.11
   0  17 -12    4.03    1.15
   1 -17  12    8.53    1.52
  -1  17 -12   10.49    1.51
   2 -17  12    1.28    1.09
   2  17  12   -0.30    1.06
   3 -17  12   13.01    1.79
   3  17  12    9.76    1.75
   4 -17  12    0.38    1.07
   4  17  12    1.02    1.13
   5 -17  12    2.68    1.16
   5  17  12    1.85    1.17
  -5 -18  12    0.00    1.14
   5  18 -12    0.79    1.14
  -4 -18  12    0.81    1.13
   4 -18 -12   -0.84    0.74
   4  18 -12    1.35    1.16
   3 -18 -12    2.70    0.87
  -3 -18  12    2.02    1.19
   3  18 -12    2.32    1.16
  -2 -18  12   -0.02    1.09
  -2  18  12    1.32    1.12
   2  18 -12   -0.27    1.05
  -1 -18  12    0.57    1.14
  -1  18  12    0.88    1.09
   1  18 -12    1.54    1.07
   0 -18  12    0.18    1.13
   0  18  12    0.17    1.12
   0  18 -12    0.56    1.01
   1 -18  12   -0.39    1.08
   1  18  12   -0.03    1.10
   2 -18  12    1.45    1.14
   2  18  12    2.39    1.21
   3 -18  12    0.00    1.10
   3  18  12   -0.45    1.11
   4 -18  12   -0.89    1.09
   4  18  12   -0.51    1.11
  -5 -19  12   12.71    2.03
   5  19 -12   14.00    2.06
  -4 -19  12    1.01    1.17
   4 -19 -12    1.61    0.89
   4  19 -12    2.72    1.24
   3  19 -12    3.34    1.26
  -2 -19  12    0.83    1.14
   2  19 -12    0.65    1.12
  -2  19  12    0.75    1.13
  -1 -19  12    0.02    1.09
   1  19 -12    0.51    1.12
  -1  19  12   -0.94    1.03
   0 -19  12    1.40    1.14
   0  19  12    2.73    1.38
   0  19 -12    1.45    1.13
   1 -19  12    0.73    1.13
   1  19  12    0.17    1.12
   2 -19  12   -0.48    1.04
   2  19  12   -0.23    1.12
   3 -19  12    3.94    1.23
   3  19  12    1.13    1.20
   4  19  12    0.91    1.17
  -5 -20  12    3.35    1.33
  -4 -20  12    0.24    1.13
   4 -20 -12    0.34    0.83
   4  20 -12    0.72    1.16
  -3 -20  12    7.20    1.59
   3  20 -12   11.73    1.72
  -2 -20  12    0.69    1.14
   2  20 -12    0.43    1.14
  -1 -20  12    0.10    1.14
   1  20 -12    0.68    1.06
  -1  20  12    0.35    1.13
   0 -20  12   -0.11    1.14
   0  20  12    0.87    1.19
   1 -20  12    1.76    1.21
   1  20  12    2.27    1.43
   2 -20  12    0.61    1.15
   2  20  12    0.90    1.16
   3  20  12    1.47    1.24
  -5 -21  12    1.46    1.27
  -4 -21  12   -0.39    1.17
   4  21 -12    0.32    1.23
  -3 -21  12    3.95    1.39
   3  21 -12    5.56    1.41
  -2 -21  12    1.28    1.23
   2  21 -12    2.22    1.23
  -1 -21  12    9.30    1.66
   1  21 -12   13.53    1.86
  -1  21  12    6.11    1.69
   0 -21  12    2.32    1.24
   0  21  12    3.64    1.49
   1  21  12    6.59    1.64
   2  21  12   -0.33    1.18
   3  22 -12    2.97    1.34
   2  22 -12    3.53    1.35
   0  22  12   -1.06    1.15
   1  22  12    0.80    1.22
   2  23 -12    0.61    1.25
   0  23  12    0.85    1.27
   1  23  12    1.02    1.25
   9   0 -13    2.13    0.99
   8   0 -13    0.42    0.93
   7   0 -13    3.30    0.96
   7   0 -13    2.73    0.99
   6   0 -13    0.92    0.89
  -6   0  13    0.17    0.99
   6   0 -13    1.00    0.80
   5   0 -13    2.72    0.92
  -5   0  13    2.20    1.11
   5   0 -13    2.62    0.84
  -4   0  13    0.75    1.01
   4   0 -13    0.50    0.71
   4   0 -13    0.03    0.78
   3   0 -13    0.51    0.77
  -3   0  13    0.63    1.01
   3   0 -13    0.24    0.65
   2   0 -13    0.10    0.63
  -2   0  13   -0.04    0.98
   2   0 -13    0.20    0.75
  -1   0  13    1.11    1.03
   1   0 -13    2.04    0.68
   1   0 -13    2.20    0.84
   0   0 -13    5.93    1.05
   0   0 -13    4.71    0.84
   0   0  13    3.89    1.19
  -1   0 -13   -0.52    0.75
   1   0  13   -1.79    1.03
  -2   0 -13    3.28    0.91
   2   0  13    1.94    1.11
   3   0  13   -0.58    0.67
  -3   0 -13   -0.18    0.71
   3   0  13   -1.47    0.98
   4   0  13   -0.20    1.01
  -4   0 -13    0.19    0.72
   5   0  13    0.43    1.01
   6   0  13    0.37    1.03
   7   0  13   -0.54    1.06
   8   0  13   -0.67    1.08
   9   0  13   -0.28    1.09
   9  -1 -13    2.63    1.06
   9   1 -13    2.71    1.04
   8  -1 -13    1.32    0.94
   8   1 -13    0.95    0.96
   7  -1 -13   -0.49    0.86
   7  -1 -13    0.12    0.76
   7   1 -13    0.08    0.86
   7   1 -13   -0.31    0.73
   6  -1 -13   18.11    1.91
   6  -1 -13   17.63    1.91
  -6  -1  13   15.96    2.02
   6   1 -13   17.09    1.92
  -6   1  13   16.92    2.06
   6   1 -13   15.61    1.88
   5  -1 -13    3.34    0.96
   5  -1 -13    4.05    0.90
  -5  -1  13    1.24    1.04
   5   1 -13    1.68    0.89
   5   1 -13    1.41    0.78
  -5   1  13    2.94    1.11
   4  -1 -13   11.05    1.62
  -4  -1  13   15.96    1.88
   4  -1 -13   13.03    1.60
  -4   1  13   11.38    1.81
   4   1 -13   14.83    1.68
   4   1 -13   15.17    1.62
   3  -1 -13    1.93    0.73
   3  -1 -13    1.93    0.84
  -3  -1  13   -0.02    0.99
   3   1 -13    0.71    0.65
   3   1 -13    0.38    0.79
  -3   1  13    1.82    1.05
   2  -1 -13    9.61    1.44
   2  -1 -13    9.96    1.27
  -2   1  13    8.89    1.47
   1  -1 -13    4.86    1.03
  -1  -1  13    6.80    1.26
   1   1 -13    6.32    1.09
  -1   1  13    4.06    1.25
   1   1 -13    6.22    0.94
   0  -1 -13    7.18    1.07
   0  -1 -13    7.14    1.16
   0  -1  13    6.22    1.30
   0   1 -13    6.84    0.99
   0   1  13    5.91    1.31
   0   1 -13    7.37    1.13
   1  -1  13    9.53    1.52
  -1  -1 -13    8.51    1.13
  -1  -1 -13   10.01    1.44
  -1   1 -13    9.33    1.37
   1   1  13    7.97    1.44
  -2  -1 -13    3.30    0.91
   2  -1  13    1.94    1.11
   2   1  13    0.73    1.05
  -2   1 -13    2.84    0.86
   2   1  13    2.21    0.73
  -3  -1 -13    0.03    0.76
   3  -1  13   -0.62    1.03
  -3   1 -13    0.91    0.79
   3   1  13   -0.39    1.00
   4  -1  13    1.38    1.09
  -4  -1 -13    0.23    0.71
  -4   1 -13    0.77    0.74
   4   1  13   -0.13    1.04
   5  -1  13    6.41    1.30
   5   1  13    6.15    1.31
   6  -1  13    0.49    1.08
   6   1  13    1.20    1.10
   7  -1  13   12.19    1.90
   7   1  13   15.57    1.92
   8  -1  13    9.66    1.57
   8   1  13   11.06    1.71
   9  -1  13    0.88    1.13
   9   1  13    0.18    1.07
   9  -2 -13    1.44    0.99
   9   2 -13    2.64    1.05
   8  -2 -13    0.55    0.91
   8   2 -13   -0.01    0.90
   7  -2 -13    0.02    0.85
   7  -2 -13    0.82    0.76
   7   2 -13    0.58    0.89
   7   2 -13    0.99    0.81
   6  -2 -13    0.32    0.81
  -6  -2  13    0.47    1.03
   6  -2 -13    0.53    0.73
   6   2 -13    0.83    0.80
  -6   2  13    0.67    1.03
   6   2 -13    1.38    0.89
  -5  -2  13    4.90    1.19
   5  -2 -13    2.36    0.95
   5  -2 -13    2.61    0.87
  -5   2  13    2.74    1.10
   5   2 -13    5.30    1.05
   5   2 -13    4.80    0.96
   4  -2 -13    0.51    0.81
  -4  -2  13    0.22    1.02
   4  -2 -13    0.70    0.72
  -4   2  13    0.80    1.04
   4   2 -13    0.20    0.69
   4   2 -13    0.81    0.83
   3  -2 -13    1.01    0.70
   3  -2 -13    1.16    0.83
  -3  -2  13    0.53    1.03
   3   2 -13    2.09    0.86
   3   2 -13    2.27    0.74
  -3   2  13    1.23    1.07
   2  -2 -13    2.81    0.76
   2  -2 -13    3.43    0.93
  -2  -2  13    1.55    1.05
  -2   2  13    2.59    1.13
   2   2 -13    1.08    0.67
   2   2 -13    2.10    0.84
   1  -2 -13    2.66    0.74
  -1  -2  13    6.14    1.20
   1  -2 -13    3.19    0.89
  -1   2  13    2.51    1.14
   0  -2  13    1.71    1.06
   0  -2 -13    1.44    0.83
   0  -2 -13    1.81    0.63
   0   2 -13    1.99    0.69
   0   2 -13    2.64    0.86
   0   2  13    1.21    1.07
   1  -2  13    6.25    1.25
  -1  -2 -13    3.75    0.93
  -1  -2 -13    2.99    0.73
   1   2  13    2.79    1.13
   2  -2  13   -1.24    0.98
  -2  -2 -13   -0.04    0.75
   2   2  13   -0.83    0.62
   2   2  13   -0.79    1.05
  -2   2 -13    0.10    0.76
   3  -2  13    0.37    1.05
  -3  -2 -13    0.60    0.79
   3   2  13   -0.84    0.99
  -3   2 -13    0.03    0.75
   4  -2  13    2.36    1.11
  -4  -2 -13    1.39    0.81
   4   2  13    1.49    1.07
  -4   2 -13    3.78    0.88
   5  -2  13    0.29    1.05
   5   2  13   -0.57    1.03
   6  -2  13   -0.83    1.04
   6   2  13   -0.12    1.06
   7  -2  13   -0.08    1.09
   7   2  13    0.17    1.12
   8  -2  13    2.47    1.14
   8   2  13    2.00    1.21
   9  -2  13   -1.16    1.02
   9   2  13    0.18    1.12
   9  -3 -13    0.37    0.93
   9   3 -13    0.55    0.96
   8  -3 -13    9.49    1.51
   8   3 -13   10.41    1.58
   7  -3 -13    1.68    0.92
   7  -3 -13    0.54    0.80
   7   3 -13    1.24    0.93
   7   3 -13    0.58    0.80
  -6  -3  13    8.84    1.47
   6  -3 -13   13.85    1.56
   6   3 -13    9.12    1.50
   6   3 -13    9.54    1.47
  -5  -3  13    1.89    1.09
   5  -3 -13    1.84    0.80
   5  -3 -13    1.92    0.90
  -5   3  13    0.86    1.01
   5   3 -13    1.80    0.78
   5   3 -13    2.09    0.91
  -4  -3  13    2.97    1.13
   4   3 -13    3.07    0.86
  -4   3  13    6.26    1.23
   4   3 -13    2.42    0.93
   3  -3 -13    0.44    0.67
  -3  -3  13   -0.04    1.04
   3  -3 -13    0.38    0.80
   3   3 -13    0.77    0.68
   3   3 -13   -0.06    0.77
  -3   3  13   -0.09    1.03
  -2  -3  13    3.78    1.17
   2   3 -13    4.40    0.88
   2   3 -13    4.34    1.00
  -2   3  13    8.40    1.35
   1  -3 -13    8.03    1.26
  -1  -3  13    4.59    1.22
   1  -3 -13    7.47    1.07
  -1   3  13    8.33    1.35
   1   3 -13    5.10    0.95
   1   3 -13    5.21    1.06
   0  -3  13    1.40    1.04
   0  -3 -13    5.64    0.98
   0  -3 -13    3.56    0.75
   0   3  13    4.30    1.16
   0   3 -13    2.25    0.89
   1  -3  13   18.99    2.26
  -1  -3 -13   20.49    1.88
  -1  -3 -13   22.41    2.12
   1   3  13   22.92    2.32
  -1   3 -13   17.95    2.08
   2  -3  13    5.04    1.20
  -2  -3 -13    5.80    1.02
   2   3  13    5.06    0.99
  -2   3 -13    5.34    1.01
   2   3  13    5.09    1.26
   3  -3  13   17.19    2.14
  -3  -3 -13   22.57    2.06
   3   3  13   20.45    2.17
  -3   3 -13   16.91    1.98
   4  -3  13    2.75    1.09
  -4  -3 -13    1.43    0.82
  -4   3 -13    2.50    0.82
   4   3  13    0.95    1.04
   5  -3  13   10.09    1.62
   5   3  13   10.17    1.62
   6  -3  13    0.79    1.08
   6   3  13    2.48    1.11
   7  -3  13    1.97    1.14
   7   3  13    4.79    1.26
   8  -3  13    0.64    1.08
   8   3  13    2.01    1.19
   9  -3  13    0.08    1.05
   9  -4 -13    1.00    0.96
   9   4 -13    1.40    1.04
   8  -4 -13    1.54    0.96
   8   4 -13    4.08    1.07
   7  -4 -13    0.45    0.77
   7  -4 -13    1.05    0.88
   7   4 -13    1.01    0.93
   7   4 -13    0.68    0.82
   6  -4 -13    2.35    0.82
  -6  -4  13   -0.01    1.05
   6  -4 -13    1.82    0.93
   6   4 -13    1.17    0.90
   6   4 -13    0.65    0.78
   5  -4 -13    2.61    0.99
  -5  -4  13    4.58    1.22
   5   4 -13    4.89    1.06
   5   4 -13    3.88    0.91
  -4  -4  13    1.64    1.07
   4  -4 -13    1.76    0.88
   4  -4 -13    1.29    0.73
   4   4 -13    2.83    0.96
  -4   4  13    0.68    1.07
   4   4 -13    3.45    0.84
   3  -4 -13    1.22    0.71
  -3  -4  13   -0.30    0.97
   3  -4 -13    1.25    0.80
   3   4 -13   -0.02    0.63
   3   4 -13    0.52    0.82
  -3   4  13    0.43    1.06
   2  -4 -13    3.19    0.88
   2  -4 -13    3.02    0.80
  -2  -4  13    5.55    1.19
  -2   4  13    2.24    1.12
  -1  -4  13   -0.17    0.99
   1  -4 -13    0.58    0.61
   1  -4 -13    0.07    0.72
   1   4 -13    0.68    0.63
   1   4 -13   -0.08    0.77
  -1   4  13   -0.65    0.99
   0  -4 -13   11.39    1.30
   0   4  13   12.24    1.78
   1  -4  13   11.51    1.66
  -1  -4 -13    8.72    1.16
   1   4  13    9.24    1.42
  -1   4 -13   11.04    1.42
   1   4  13    8.38    1.45
   2  -4  13   12.74    1.79
  -2   4 -13   13.74    1.64
   3  -4  13    0.37    1.03
  -3  -4 -13    0.72    0.74
  -3   4 -13    0.32    0.76
   3   4  13    1.14    1.01
  -4  -4 -13    0.66    0.76
   4  -4  13    2.27    1.09
   4   4  13    1.43    1.03
  -4   4 -13    2.47    0.84
   5  -4  13    2.48    1.11
   5   4  13    3.47    1.13
   6  -4  13   -0.76    1.02
   6   4  13    0.65    1.03
   7  -4  13   -0.87    1.02
   7   4  13   -0.02    1.06
   8  -4  13    1.37    1.10
   8   4  13    2.51    1.17
   9  -4  13    0.27    1.03
   9  -5 -13   -0.13    0.92
   9   5 -13    0.36    0.97
   8  -5 -13    6.31    1.18
   8   5 -13    5.18    1.22
   7  -5 -13    2.48    0.90
   7  -5 -13    3.70    1.01
   7   5 -13    2.32    0.89
   7   5 -13    1.52    0.96
  -6  -5  13    2.71    1.16
   6  -5 -13    4.44    1.08
   6  -5 -13    4.87    1.01
   6   5 -13    3.42    0.95
   6   5 -13    4.43    1.11
   5  -5 -13    4.49    0.94
   5  -5 -13    4.41    1.00
  -5  -5  13    3.43    1.18
   5   5 -13    3.81    0.91
  -5   5  13    3.61    1.15
   5   5 -13    4.34    1.05
   4  -5 -13    3.37    0.86
   4  -5 -13    3.60    0.97
  -4  -5  13    6.12    1.30
   4   5 -13    6.19    1.12
  -4   5  13    2.66    1.18
   4   5 -13    6.11    1.00
   3  -5 -13    3.00    0.79
   3  -5 -13    2.43    0.86
  -3  -5  13    1.92    1.06
  -3   5  13    2.86    1.15
   3   5 -13    3.45    0.85
   3   5 -13    3.23    0.99
  -2  -5  13    5.27    1.23
   2   5 -13    6.74    1.15
  -2   5  13    3.20    1.21
   2   5 -13    6.61    1.01
  -1  -5  13    0.06    1.03
   1  -5 -13    1.11    0.64
  -1   5  13    1.34    1.08
   1   5 -13    0.39    0.81
   0  -5  13    3.93    1.15
   0  -5 -13    3.36    0.73
   0   5 -13    6.53    1.09
   0   5  13    2.91    1.17
   1  -5  13   -0.20    0.99
  -1  -5 -13    0.34    0.54
   1   5  13   -0.30    0.66
   1   5  13    0.38    0.98
  -1   5 -13    0.80    0.82
   2  -5  13    4.15    1.16
   2   5  13    2.00    1.10
  -2   5 -13    5.88    1.05
   3  -5  13    0.21    0.97
   3   5  13    1.19    1.07
  -3   5 -13    0.73    0.79
   4  -5  13   -1.30    0.95
   4   5  13    1.63    1.08
   5  -5  13    1.49    1.03
   5   5  13    3.87    1.16
   6  -5  13    1.13    1.04
   6   5  13   -0.04    1.04
   7  -5  13    4.58    1.21
   7   5  13    5.01    1.29
   8  -5  13   -0.79    1.05
   8   5  13   -1.38    1.09
   9  -5  13    2.82    1.16
   9  -6 -13    1.92    0.98
   8  -6 -13    0.71    0.91
   8   6 -13    0.24    0.94
   7  -6 -13    2.16    0.97
   7  -6 -13    1.34    0.84
   6  -6 -13    0.15    0.84
  -6  -6  13    0.22    1.02
   6  -6 -13    0.12    0.73
   6   6 -13    0.39    0.89
   6   6 -13    0.13    0.72
   5  -6 -13    9.33    1.34
   5  -6 -13    8.70    1.29
  -5   6  13    7.12    1.39
   4  -6 -13    3.08    0.87
  -4  -6  13    4.70    1.20
   4   6 -13    5.45    1.10
  -4   6  13    3.45    1.22
   4   6 -13    4.74    0.94
  -3  -6  13    1.51    1.10
   3  -6 -13    0.55    0.66
   3   6 -13    1.59    0.91
  -3   6  13    0.33    1.04
   3   6 -13    2.06    0.76
   2  -6 -13    2.04    0.71
  -2  -6  13    0.11    1.02
   2   6 -13    1.46    0.87
  -2   6  13    1.82    1.11
   2   6 -13    0.96    0.70
  -1  -6  13    4.43    1.16
   1  -6 -13    1.35    0.69
  -1   6  13    2.43    1.09
   0  -6  13    0.68    1.03
   0  -6 -13    0.72    0.58
   0   6 -13    0.62    0.78
   0   6  13    0.64    1.02
  -1  -6 -13   -0.01    0.55
   1  -6  13   -0.10    1.04
  -1   6 -13    0.44    0.82
   1   6  13   -0.63    0.66
   1   6  13    0.94    1.04
   2  -6  13   20.34    2.16
  -2  -6 -13   15.87    1.66
   2   6  13   16.88    2.12
  -2   6 -13   21.78    2.04
   3  -6  13   11.55    1.70
   3   6  13   10.61    1.74
  -3   6 -13   11.60    1.55
   4  -6  13   -0.55    0.97
   4   6  13    0.36    1.11
   5  -6  13    0.75    1.03
   5   6  13    1.51    1.15
   6   6  13    8.34    1.49
   7  -6  13    1.71    1.10
   7   6  13   -0.19    1.04
   8  -6  13    1.37    1.13
   8   6  13    1.74    1.16
   9  -7 -13    1.35    0.96
   8  -7 -13    3.80    1.07
   8   7 -13    1.85    1.05
   7  -7 -13    0.90    0.90
   7  -7 -13    1.07    0.83
   7   7 -13    1.23    0.95
  -6  -7  13    2.85    1.19
   6  -7 -13    5.44    1.06
   6  -7 -13    7.05    1.07
   6   7 -13    3.60    0.95
   6   7 -13    3.67    1.10
   5  -7 -13    0.20    0.72
  -5  -7  13    0.81    1.06
  -5   7  13   -0.33    1.04
   5   7 -13    1.63    0.77
   5   7 -13    1.43    0.93
  -4  -7  13    6.70    1.36
  -4   7  13   11.18    1.62
   4   7 -13    6.24    1.19
   4   7 -13    5.68    1.05
  -3  -7  13    7.38    1.42
   3  -7 -13    9.43    1.22
  -3   7  13    7.17    1.42
   3   7 -13    8.30    1.26
   3   7 -13    8.44    1.33
  -2  -7  13    0.95    1.11
   2  -7 -13    3.45    0.77
  -2   7  13    4.44    1.17
   2   7 -13    0.97    0.90
  -1  -7  13   21.63    2.49
   1  -7 -13   24.70    2.16
   1   7 -13   22.23    2.38
  -1   7  13   25.63    2.46
   0  -7  13    4.32    1.19
   0  -7 -13    4.09    0.77
   0   7 -13    4.82    1.06
   0   7  13    4.77    1.22
   1  -7  13   29.44    2.90
  -1  -7 -13   28.44    2.51
   1   7  13   28.85    2.89
  -1   7 -13   32.70    2.83
   2  -7  13    1.27    1.09
  -2  -7 -13    2.82    0.63
   2   7  13    4.13    1.27
  -2   7 -13    2.57    0.91
   3  -7  13   18.27    2.17
   3   7  13   18.49    2.22
  -3   7 -13   19.39    2.02
   4  -7  13    1.30    1.08
   4   7  13    3.34    1.16
   5  -7  13    3.52    1.19
   5   7  13    5.25    1.25
   6  -7  13    1.11    1.09
   6   7  13    0.38    1.00
   7  -7  13    0.66    1.08
   7   7  13    0.93    1.09
   8  -7  13    1.99    1.14
   8   7  13    4.76    1.31
   8  -8 -13    2.56    0.99
   8   8 -13    1.30    1.06
   7  -8 -13    2.37    0.96
   7  -8 -13    2.26    0.90
   7   8 -13    4.75    1.16
  -6  -8  13    0.35    1.10
   6  -8 -13    0.63    0.76
   6   8 -13    1.53    0.98
   6   8 -13    1.85    0.81
   5  -8 -13    1.34    0.79
  -5  -8  13    2.53    1.14
  -5   8  13    0.35    1.08
   5   8 -13    2.56    1.02
   5   8 -13    2.59    0.84
  -4  -8  13    0.15    1.06
   4  -8 -13    0.79    0.72
  -4   8  13    0.54    1.06
   4   8 -13   -0.10    0.69
   4   8 -13    0.74    0.88
  -3  -8  13    5.24    1.31
   3   8 -13    5.48    0.97
   3   8 -13    5.12    1.10
  -2  -8  13    0.82    1.09
   2  -8 -13    0.99    0.65
   2   8 -13    2.15    0.92
  -2   8  13    1.45    1.08
   1  -8 -13    0.99    0.64
  -1  -8  13    1.35    1.12
  -1   8  13    2.22    1.11
   1   8 -13    1.54    0.87
   0  -8 -13    0.92    0.61
   0  -8  13    2.70    1.14
   0   8  13    1.15    1.09
   0   8 -13    2.62    0.89
  -1  -8 -13    1.92    0.61
   1   8  13    3.08    1.23
   2  -8  13   11.89    1.78
  -2   8 -13   12.99    1.64
   3  -8  13    3.47    1.14
   3   8  13    1.59    1.17
  -3   8 -13    3.30    0.91
   4  -8  13    2.64    1.09
   4   8  13    1.73    1.15
   5  -8  13    3.14    1.12
   5   8  13    2.52    1.20
   6  -8  13    0.79    1.06
   6   8  13    0.08    1.02
   7  -8  13    0.69    1.07
   7   8  13    0.36    1.05
   8  -8  13    0.40    1.10
   8  -9 -13    4.01    1.05
   8   9 -13    0.80    1.05
   7  -9 -13    1.97    0.91
   7   9 -13    2.94    1.12
   6  -9 -13    0.01    0.75
  -6  -9  13   -0.53    1.03
   6   9 -13    0.07    0.73
   6   9 -13   -0.17    0.95
   5  -9 -13    9.99    1.50
  -5  -9  13   13.19    1.87
   5   9 -13   13.51    1.55
   5   9 -13   14.79    1.77
  -4  -9  13    1.66    1.11
   4  -9 -13    2.89    0.85
   4   9 -13    2.56    0.82
  -4   9  13    2.88    1.21
   4   9 -13    2.69    0.99
  -3  -9  13    8.08    1.47
   3   9 -13    7.30    1.31
  -3   9  13   13.03    1.71
  -2  -9  13   -0.74    1.09
   2  -9 -13   -0.40    0.61
  -2   9  13    1.28    1.06
   2   9 -13   -0.03    0.85
   1  -9 -13    5.39    0.85
  -1  -9  13    1.89    1.15
  -1   9  13    5.76    1.25
   1   9 -13    2.43    0.97
   0  -9  13    2.56    1.14
   0  -9 -13    1.60    0.65
   0   9  13    1.12    1.17
   0   9 -13    3.54    0.98
   1  -9  13    2.79    1.15
  -1   9 -13    3.56    0.97
   2  -9  13    2.38    1.11
  -2   9 -13    1.81    0.85
   2   9  13    1.01    1.18
   3  -9  13    3.35    1.18
   3   9  13    6.68    1.35
  -3   9 -13    3.64    0.98
   4  -9  13    2.00    1.10
   4   9  13    0.83    1.00
   5  -9  13    4.60    1.23
   5   9  13    4.84    1.28
   6  -9  13    0.02    1.06
   6   9  13   -0.07    0.99
   7  -9  13    5.09    1.30
   7   9  13    6.69    1.40
   8  -9  13    0.03    1.09
   8 -10 -13    1.87    0.93
   8  10 -13    2.50    1.12
   7  10 -13    5.87    1.29
  -6 -10  13   -0.06    1.07
   6 -10 -13    0.21    0.78
   6  10 -13    0.20    0.99
  -5 -10  13    6.48    1.40
   5  10 -13    7.18    1.16
   5  10 -13    8.52    1.39
   4 -10 -13    3.37    0.89
  -4 -10  13    4.45    1.26
  -4  10  13    3.27    1.23
   4  10 -13    6.13    1.17
  -3 -10  13   15.67    2.04
   3  10 -13   15.76    1.92
   2 -10 -13    0.26    0.65
  -2 -10  13    1.79    1.12
  -2  10  13    0.21    1.09
   2  10 -13    1.32    0.91
   1 -10 -13    9.86    1.22
  -1  10  13    9.52    1.57
   0 -10  13    4.22    1.23
   0  10  13    2.26    1.20
   0  10 -13    4.81    1.06
   1 -10  13    0.18    1.04
   1  10  13    0.44    1.12
  -1  10 -13    0.82    0.85
   2 -10  13    1.88    1.10
   2  10  13    0.42    1.14
  -2  10 -13    1.58    0.89
   3 -10  13   -0.10    1.04
   3  10  13    0.05    1.00
   4 -10  13    4.70    1.21
   4  10  13    1.70    1.08
   5 -10  13    2.66    1.15
   5  10  13    4.07    1.29
   6 -10  13    4.04    1.21
   6  10  13    1.74    1.22
   7 -10  13    1.13    1.10
   7  10  13    0.73    1.09
   7  11 -13    1.76    1.12
  -6 -11  13    1.33    1.14
   6 -11 -13    2.68    0.86
   6  11 -13    1.19    1.04
   5 -11 -13   -0.27    0.72
  -5 -11  13    0.88    1.11
   5  11 -13    1.81    1.02
  -4 -11  13    7.79    1.48
   4 -11 -13    8.61    1.27
  -4  11  13    7.77    1.43
   4  11 -13    9.81    1.45
   3 -11 -13    4.33    0.88
  -3 -11  13    0.90    1.08
  -3  11  13    3.34    1.19
   3  11 -13    1.67    1.00
   2 -11 -13    1.53    0.70
  -2 -11  13    2.06    1.11
   2  11 -13    3.33    1.04
  -2  11  13    2.05    1.14
  -1 -11  13    5.81    1.32
   1 -11 -13    5.66    0.90
  -1  11  13    5.56    1.35
   1  11 -13    6.17    1.18
   0 -11  13    1.75    1.14
   0 -11 -13    1.12    0.60
   0  11  13    0.65    1.15
   0  11 -13    0.96    0.89
   1 -11  13   10.95    1.83
   1  11  13   14.63    1.87
  -1  11 -13   10.78    1.68
   2 -11  13    5.33    1.30
   2  11  13    3.45    1.30
  -2  11 -13    6.48    1.15
   3 -11  13    7.53    1.42
   3  11  13    8.74    1.55
   4 -11  13    0.20    1.06
   4  11  13   -0.76    1.00
   5 -11  13    3.91    1.24
   5  11  13    5.69    1.41
   6 -11  13   -0.70    1.11
   6  11  13    0.74    1.10
   7 -11  13   -0.38    1.11
   7  12 -13    7.01    1.41
  -6 -12  13   -0.83    1.10
   6 -12 -13    0.55    0.79
   6  12 -13    0.56    1.06
  -5 -12  13    1.34    1.13
   5 -12 -13   -0.13    0.72
   5  12 -13    1.51    1.06
   4 -12 -13    0.17    0.70
  -4 -12  13   -0.57    1.04
  -4  12  13    1.05    1.07
   4  12 -13   -0.03    0.96
   3 -12 -13    0.96    0.73
  -3 -12  13    4.11    1.23
  -3  12  13   -0.10    1.14
   3  12 -13    4.11    1.09
  -2 -12  13    0.12    1.05
   2 -12 -13   -0.24    0.62
  -2  12  13    0.33    1.16
   2  12 -13    0.44    0.91
  -1 -12  13    2.56    1.14
   1 -12 -13    1.05    0.66
  -1  12  13    1.15    1.14
   1  12 -13    3.30    1.01
   0 -12  13    1.14    1.10
   0  12 -13    1.61    0.96
   0  12  13    1.15    1.04
   1 -12  13    6.55    1.39
  -1  12 -13    7.58    1.30
   2 -12  13    2.01    1.12
   2  12  13    0.18    1.07
  -2  12 -13    3.18    0.99
   3 -12  13    6.67    1.34
   3  12  13    4.97    1.39
   4 -12  13    2.54    1.15
   4  12  13    1.50    1.14
   5 -12  13    0.09    1.09
   5  12  13   -0.19    1.06
   6 -12  13    3.22    1.18
   6  12  13   -0.27    1.09
   7  13 -13    1.60    1.16
  -6 -13  13    1.26    1.20
   6  13 -13    1.78    1.12
   5 -13 -13    0.05    0.77
  -5 -13  13    0.00    1.11
   5  13 -13    0.43    1.02
  -4 -13  13    1.19    1.17
   4 -13 -13    2.21    0.82
   4  13 -13    1.82    1.07
  -3 -13  13    1.20    1.09
   3 -13 -13    0.23    0.68
  -3  13  13   -0.03    1.10
   3  13 -13    0.17    0.95
   2 -13 -13    2.95    0.77
  -2 -13  13    1.00    1.08
   2  13 -13    0.34    0.95
  -2  13  13    2.25    1.22
  -1 -13  13   -0.05    1.03
   1 -13 -13   -0.55    0.58
   1  13 -13    0.49    0.93
  -1  13  13    0.67    1.06
   0 -13  13   -0.60    1.07
   0  13 -13   -0.27    0.92
   0  13  13   -0.14    1.02
   1 -13  13    1.22    1.13
  -1  13 -13    2.20    0.99
   1  13  13    0.63    1.07
   2 -13  13    0.70    1.07
   2  13  13    0.86    1.09
   3 -13  13    0.10    1.06
   3  13  13    1.07    1.09
   4 -13  13    0.37    1.09
   4  13  13   -0.01    1.06
   5 -13  13    1.73    1.15
   5  13  13    2.26    1.18
   6 -13  13    0.82    1.11
   6  13  13    3.04    1.33
   6  14 -13    0.27    1.11
   5 -14 -13   15.03    1.92
  -5 -14  13   19.21    2.36
   5  14 -13   21.68    2.30
  -4 -14  13   -1.12    1.08
   4 -14 -13   -0.67    0.70
   4  14 -13    0.07    1.00
  -3 -14  13    7.01    1.45
   3 -14 -13    5.00    1.00
  -3  14  13    6.22    1.44
   3  14 -13    8.18    1.38
  -2 -14  13    0.84    1.11
   2 -14 -13    1.42    0.73
   2  14 -13    1.50    1.00
  -2  14  13    1.22    1.11
  -1 -14  13    2.59    1.18
   1  14 -13    3.57    1.10
  -1  14  13    3.41    1.26
   0 -14  13    4.64    1.28
   0  14  13    2.82    1.30
   0  14 -13    6.15    1.23
   1 -14  13    6.08    1.38
   1  14  13    5.22    1.45
  -1  14 -13    8.10    1.32
   2 -14  13    5.76    1.27
   2  14  13    2.45    1.29
   3 -14  13    1.45    1.13
   3  14  13    2.98    1.32
   4 -14  13    4.40    1.25
   4  14  13    4.71    1.42
   5 -14  13   -0.23    1.07
   5  14  13    1.39    1.12
   6  15 -13    0.03    1.12
   5 -15 -13    2.78    0.92
  -5 -15  13    2.30    1.25
   5  15 -13    2.90    1.25
   4 -15 -13   -0.33    0.74
  -4 -15  13    0.46    1.21
   4  15 -13    0.74    1.11
   3 -15 -13   -0.19    0.69
  -3 -15  13   -0.25    1.11
  -3  15  13    0.34    1.20
   3  15 -13    0.87    1.09
  -2 -15  13    0.61    1.14
   2 -15 -13    0.05    0.66
   2  15 -13    0.75    1.04
  -2  15  13    0.07    1.12
  -1 -15  13    1.68    1.22
  -1  15  13    2.63    1.28
   1  15 -13    3.71    1.15
   0 -15  13    0.37    1.07
   0  15 -13    1.83    1.07
   0  15  13    0.70    1.11
   1 -15  13    4.43    1.26
   1  15  13    4.02    1.41
  -1  15 -13    5.63    1.22
   2 -15  13    0.05    1.04
   2  15  13    0.50    1.09
   3 -15  13    3.11    1.22
   3  15  13    7.35    1.47
   4 -15  13    0.34    1.06
   4  15  13    0.10    1.08
   5 -15  13   -0.27    1.07
   5  15  13    0.44    1.09
  -5 -16  13    0.49    1.19
   5  16 -13    1.93    1.20
  -4 -16  13   -0.51    1.14
   4 -16 -13    0.46    0.79
   4  16 -13   -0.38    1.05
  -3 -16  13    1.59    1.23
   3 -16 -13    0.83    0.76
   3  16 -13    2.85    1.18
  -2 -16  13   -0.38    1.10
  -2  16  13    0.41    1.13
   2  16 -13    0.74    1.11
  -1 -16  13    4.17    1.29
   1  16 -13    5.83    1.31
  -1  16  13    2.47    1.35
   0 -16  13   -0.13    1.10
   0  16  13    0.38    1.13
   0  16 -13    1.01    1.05
   1 -16  13    0.83    1.11
   1  16  13    0.02    1.14
   2 -16  13    1.45    1.15
   2  16  13    5.19    1.40
   3 -16  13    5.01    1.28
   3  16  13    1.71    1.13
   4 -16  13    3.35    1.23
   4  16  13    2.79    1.38
  -5 -17  13   -1.12    1.14
   5  17 -13    0.53    1.14
  -4 -17  13    1.90    1.24
   4 -17 -13    1.12    0.81
   4  17 -13    2.37    1.21
  -3 -17  13    1.13    1.21
   3  17 -13    1.83    1.18
  -2 -17  13   -0.37    1.15
   2  17 -13    0.45    1.06
  -2  17  13    1.32    1.17
  -1 -17  13    1.55    1.22
   1  17 -13    2.40    1.14
  -1  17  13    0.30    1.14
   0 -17  13   -1.39    1.05
   0  17 -13    0.33    1.00
   1 -17  13    0.66    1.13
   1  17  13    0.24    1.12
   2 -17  13    0.10    1.08
   2  17  13    0.21    1.11
   3 -17  13    0.15    1.12
   3  17  13    1.55    1.21
  -5 -18  13    4.73    1.39
   4 -18 -13   -0.77    0.73
  -4 -18  13    0.51    1.16
   4  18 -13    1.92    1.19
  -3 -18  13    9.57    1.76
   3  18 -13   13.03    1.88
  -2 -18  13    3.83    1.32
   2  18 -13    4.36    1.29
  -1 -18  13    0.31    1.18
  -1  18  13   -0.25    1.15
   1  18 -13    0.67    1.06
   0 -18  13    3.79    1.36
   0  18 -13    5.46    1.27
   0  18  13    2.31    1.30
   1 -18  13   -1.24    1.15
   1  18  13   -0.05    1.13
   2 -18  13    0.27    1.17
   2  18  13    0.42    1.15
   3  18  13    1.33    1.20
  -5 -19  13    2.34    1.30
  -4 -19  13   -0.12    1.18
   4  19 -13   -0.17    1.18
  -3 -19  13    1.42    1.27
   3  19 -13    2.97    1.29
  -2 -19  13   -0.16    1.19
   2  19 -13    0.56    1.15
  -1 -19  13    0.56    1.21
  -1  19  13    0.64    1.19
   1  19 -13   -0.35    1.11
   0 -19  13   -1.11    1.13
   0  19  13   -0.30    1.15
   1  19  13    0.20    1.11
   2  19  13    0.92    1.24
  -5 -20  13   -0.34    1.19
  -4 -20  13    0.14    1.22
   3  20 -13    5.28    1.47
   2  20 -13    2.39    1.28
   1  20 -13    3.50    1.28
  -1  20  13    1.28    1.27
   0  20  13    6.30    1.58
   1  20  13    1.07    1.24
   2  21 -13    1.56    1.23
   0  21  13   -0.19    1.15
   1  21  13    0.31    1.25
   8   0 -14    2.58    1.10
   7   0 -14    6.95    1.28
   6   0 -14    6.27    1.21
   6   0 -14    5.92    1.14
   5   0 -14   16.27    1.82
   5   0 -14   15.87    1.88
  -5   0  14   15.12    2.09
  -4   0  14    1.35    1.09
   4   0 -14    1.14    0.76
   4   0 -14    1.12    0.90
   3   0 -14    7.05    1.10
   3   0 -14    8.09    1.25
  -3   0  14    8.32    1.42
   2   0 -14    0.27    0.64
   2   0 -14   -0.19    0.77
  -2   0  14   -0.74    1.06
  -1   0  14   12.00    1.91
   1   0 -14   14.29    1.56
   1   0 -14   14.94    1.71
   0   0  14    0.59    1.14
   0   0 -14    1.76    0.84
   0   0 -14    1.78    0.71
   1   0  14    7.71    1.51
  -1   0 -14    9.49    1.39
   2   0  14    3.70    1.25
  -2   0 -14    4.49    1.00
  -3   0 -14   -0.79    0.75
   3   0  14   -0.76    1.10
   4   0  14   -0.38    1.07
   5   0  14   -0.10    1.12
   6   0  14    4.33    1.29
   7   0  14    0.37    1.16
   8  -1 -14    2.16    1.02
   8   1 -14    0.64    0.98
   7  -1 -14    0.82    0.93
   7   1 -14    0.95    0.98
   6  -1 -14    0.28    0.90
   6  -1 -14    0.25    0.82
   6   1 -14    1.52    0.87
   6   1 -14    0.99    0.92
   5  -1 -14    1.02    0.81
   5  -1 -14    0.82    0.90
  -5  -1  14    0.61    1.10
  -5   1  14    0.74    1.11
   5   1 -14    0.89    0.78
   5   1 -14    1.69    0.94
   4  -1 -14    2.62    0.91
   4  -1 -14    2.48    0.83
  -4  -1  14    0.51    1.10
  -4   1  14    2.59    1.14
   4   1 -14    1.10    0.76
   4   1 -14    0.17    0.87
  -3  -1  14    0.16    1.06
   3  -1 -14    2.12    0.78
   3  -1 -14    2.64    0.91
   3   1 -14    1.26    0.88
   3   1 -14    0.43    0.68
  -3   1  14    1.56    1.12
   2  -1 -14    1.44    0.87
  -2  -1  14   -0.13    1.05
   2  -1 -14    1.25    0.70
   2   1 -14    0.56    0.67
   2   1 -14    0.29    0.81
  -2   1  14    1.34    1.12
   1  -1 -14    0.48    0.80
   1  -1 -14    0.65    0.62
  -1  -1  14   -0.41    1.07
  -1   1  14    0.35    1.11
   1   1 -14    0.78    0.67
   1   1 -14    0.87    0.84
   0  -1 -14   -0.27    0.78
   0  -1  14   -0.88    1.03
   0  -1 -14    0.44    0.62
   0   1 -14    0.66    0.66
   0   1 -14    0.22    0.79
   0   1  14    0.26    1.09
   1  -1  14   -0.28    1.07
  -1  -1 -14    1.32    0.86
  -1   1 -14    1.06    0.84
   1   1  14    0.84    1.15
   2  -1  14   -0.21    1.15
  -2  -1 -14    0.60    0.80
   2   1  14   -0.97    1.08
  -2   1 -14    0.28    0.79
  -3  -1 -14    0.71    0.82
   3  -1  14   -1.21    1.07
  -3   1 -14    0.56    0.80
   3   1  14   -0.20    1.10
   4  -1  14   -0.58    1.10
   4   1  14   -0.11    1.05
   5  -1  14    1.38    1.16
   5   1  14    1.55    1.12
   6  -1  14   -0.07    1.14
   6   1  14    0.65    1.11
   7  -1  14    4.35    1.30
   7   1  14    1.46    1.18
   8  -2 -14    3.23    1.05
   8   2 -14    0.78    1.00
   7  -2 -14    1.86    0.99
   7   2 -14    1.21    0.97
   6  -2 -14    3.09    1.00
   6  -2 -14    2.06    0.89
   6   2 -14    1.60    0.87
   6   2 -14    2.21    1.03
  -5  -2  14   -0.37    1.08
   5  -2 -14    2.85    0.88
   5  -2 -14    2.79    0.94
   5   2 -14    1.11    0.90
  -5   2  14    1.86    1.13
   5   2 -14    0.70    0.77
   4  -2 -14    1.36    0.89
   4  -2 -14    0.81    0.76
  -4  -2  14    0.29    1.08
   4   2 -14    0.22    0.85
   4   2 -14    0.73    0.74
  -4   2  14    0.59    1.08
   3  -2 -14    0.32    0.67
   3  -2 -14    0.70    0.83
  -3  -2  14   -0.69    1.08
   3   2 -14    0.18    0.85
  -3   2  14   -1.35    1.05
   3   2 -14    1.03    0.73
  -2  -2  14    1.42    1.12
   2  -2 -14    3.30    0.97
   2  -2 -14    2.40    0.75
  -2   2  14    3.05    1.20
   2   2 -14    1.60    0.92
   2   2 -14    1.80    0.76
   1  -2 -14    5.52    1.12
  -1  -2  14    4.23    1.28
   1  -2 -14    5.51    0.95
   1   2 -14    5.98    0.98
  -1   2  14    4.57    1.34
   1   2 -14    6.53    1.15
   0  -2  14   -1.03    1.07
   0  -2 -14    0.50    0.84
   0  -2 -14    0.61    0.63
   0   2 -14   -0.25    0.78
   0   2  14   -0.53    1.11
   1  -2  14    4.78    1.29
  -1   2 -14    4.96    1.07
   1   2  14    7.36    1.40
  -2  -2 -14    2.88    0.93
   2  -2  14   -0.69    1.06
  -2   2 -14    0.49    0.82
   2   2  14    1.22    1.10
  -3  -2 -14    6.62    1.14
   3  -2  14    5.16    1.32
  -3   2 -14    5.55    1.07
   3   2  14    4.52    1.28
   4  -2  14    0.32    1.10
  -4  -2 -14    1.58    0.83
   4   2  14    1.08    1.12
   5  -2  14    5.32    1.31
   5   2  14    6.88    1.39
   6  -2  14    8.97    1.52
   6   2  14    9.45    1.60
   7  -2  14    6.05    1.34
   7   2  14    3.36    1.33
   8  -3 -14    0.23    0.93
   8   3 -14    0.10    0.98
   7  -3 -14    3.97    1.12
   7   3 -14    5.87    1.24
   6  -3 -14    2.86    1.02
   6  -3 -14    2.32    0.94
   6   3 -14    5.20    1.03
   6   3 -14    6.36    1.18
  -5  -3  14    1.67    1.16
   5  -3 -14    0.42    0.87
   5  -3 -14    0.17    0.76
   5   3 -14    1.76    0.82
   5   3 -14    1.17    0.98
  -5   3  14   -0.90    1.04
   4  -3 -14    1.82    0.92
  -4  -3  14    3.41    1.22
   4  -3 -14    1.91    0.81
   4   3 -14    4.99    0.94
  -4   3  14    1.24    1.16
  -3  -3  14    0.19    1.08
   3  -3 -14    1.10    0.88
   3  -3 -14    0.97    0.72
  -3   3  14   -0.24    1.11
   3   3 -14    0.96    0.87
   3   3 -14    1.73    0.74
   2  -3 -14    3.83    1.02
   2  -3 -14    3.40    0.83
  -2   3  14    3.96    1.25
  -1  -3  14    0.23    1.07
   1  -3 -14    1.02    0.67
   1  -3 -14    2.23    0.89
  -1   3  14    0.81    1.18
   1   3 -14    2.24    0.90
   1   3 -14    1.33    0.71
   0  -3 -14    4.72    1.01
   0  -3 -14    3.97    0.81
   0   3  14    4.71    1.29
  -1  -3 -14    0.71    0.80
   1  -3  14   -0.46    1.03
  -1  -3 -14   -0.57    0.59
  -1   3 -14    0.13    0.80
   1   3  14   -0.25    1.10
  -2  -3 -14    1.37    0.86
   2  -3  14    0.58    1.11
  -2   3 -14    1.84    0.89
   2   3  14    0.72    1.15
  -3  -3 -14    1.78    0.86
   3  -3  14    0.92    1.13
   3   3  14    1.53    1.16
  -3   3 -14    2.39    0.88
  -4  -3 -14   -0.06    0.78
   4  -3  14   -0.67    1.06
   4   3  14   -0.04    1.11
   5  -3  14    0.56    1.09
   5   3  14    1.18    1.14
   6  -3  14    0.69    1.11
   6   3  14    0.68    1.16
   7  -3  14    0.27    1.14
   7   3  14   -0.70    1.16
   8  -4 -14    3.05    1.05
   8   4 -14    2.47    1.08
   7  -4 -14    1.15    0.95
   7   4 -14    3.31    1.09
   6  -4 -14    0.87    0.80
   6  -4 -14    1.23    0.94
   6   4 -14    3.35    1.06
   5  -4 -14    9.58    1.40
   5  -4 -14    9.54    1.51
  -5  -4  14    9.30    1.55
   5   4 -14   10.53    1.55
  -5   4  14    8.56    1.52
   5   4 -14    9.23    1.40
   4  -4 -14    1.27    0.87
  -4  -4  14   -1.70    1.05
   4  -4 -14    0.48    0.74
   4   4 -14    0.20    0.90
  -4   4  14    0.51    1.12
   4   4 -14    0.30    0.71
  -3  -4  14    2.60    1.18
   3  -4 -14    3.37    0.89
   3  -4 -14    3.77    0.98
   3   4 -14    3.32    1.02
   3   4 -14    3.84    0.89
  -3   4  14    3.09    1.28
   2  -4 -14   -0.10    0.64
  -2  -4  14   -0.47    1.09
   2  -4 -14    0.18    0.79
   2   4 -14   -0.10    0.83
  -2   4  14    0.49    1.11
   2   4 -14   -0.45    0.62
  -1  -4  14   11.76    2.05
   1  -4 -14   19.41    1.94
   1  -4 -14   16.91    1.70
  -1   4  14   18.30    2.14
   0  -4 -14   10.02    1.48
   0  -4  14   12.26    1.74
   0  -4 -14    8.34    1.22
   0   4 -14   13.06    1.55
   0   4  14    8.25    1.56
  -1  -4 -14    6.67    1.05
  -1  -4 -14    8.41    1.33
   1  -4  14    3.68    1.27
   1   4  14    7.57    1.43
  -2  -4 -14    1.70    0.84
   2  -4  14    2.57    1.15
  -2   4 -14    3.62    0.97
   2   4  14    1.96    1.20
   3  -4  14   -0.79    1.04
  -3  -4 -14    0.71    0.82
  -3   4 -14    0.01    0.81
   3   4  14    0.19    1.10
   4  -4  14    0.05    1.06
  -4  -4 -14    0.75    0.83
   4   4  14   -0.01    1.09
   5  -4  14   -0.14    1.05
   5   4  14    1.13    1.12
   6  -4  14   -0.41    1.04
   6   4  14    1.61    1.16
   7  -4  14   -1.33    1.05
   7   4  14   -1.02    1.12
   8  -5 -14    1.30    0.95
   8   5 -14    1.85    1.07
   7  -5 -14    0.88    0.95
   7   5 -14   -0.02    0.96
   6  -5 -14    0.09    0.76
   6  -5 -14    0.44    0.92
   6   5 -14   -0.19    0.93
  -5  -5  14    1.56    1.17
   5  -5 -14    0.85    0.74
   5  -5 -14    1.33    0.94
   5   5 -14    2.14    0.84
   5   5 -14    2.65    1.02
  -5   5  14    0.45    1.09
   4  -5 -14    2.79    0.96
  -4  -5  14    4.83    1.30
   4  -5 -14    2.00    0.83
   4   5 -14    5.39    0.98
  -4   5  14    1.64    1.19
   3  -5 -14    1.95    0.77
  -3  -5  14    1.18    1.14
   3  -5 -14    2.07    0.85
   3   5 -14    1.30    0.92
  -3   5  14    1.44    1.19
   3   5 -14    0.61    0.72
   2  -5 -14    6.60    1.01
   2  -5 -14    6.63    1.10
  -2  -5  14    3.76    1.24
   2   5 -14    4.31    1.10
   2   5 -14    4.00    0.93
  -2   5  14    5.98    1.34
   1  -5 -14    0.20    0.75
   1  -5 -14   -0.14    0.62
  -1  -5  14    0.27    1.08
  -1   5  14    0.80    1.14
   1   5 -14    0.30    0.85
   0  -5  14   16.32    1.92
   0  -5 -14   11.57    1.57
   0  -5 -14   10.51    1.35
   0   5  14   11.17    1.86
  -1  -5 -14    3.26    0.89
  -1  -5 -14    2.54    0.69
   1  -5  14    2.48    1.16
   1   5  14    3.63    1.24
  -1   5 -14    2.43    0.93
   2  -5  14   13.24    1.76
  -2  -5 -14    9.30    1.46
   2   5  14    8.48    1.53
  -3  -5 -14    1.52    0.83
   3  -5  14    3.22    1.19
   3   5  14    1.64    1.13
  -3   5 -14    3.63    0.95
   4  -5  14    2.24    1.13
  -4  -5 -14    1.30    0.80
   4   5  14    0.84    1.09
   5  -5  14    2.51    1.15
   5   5  14    1.97    1.12
   6  -5  14    5.76    1.28
   6   5  14    2.07    1.19
   7  -5  14    1.36    1.14
   7   5  14    0.81    1.14
   7  -6 -14    3.26    1.07
   7   6 -14    1.61    1.07
   6  -6 -14    3.69    0.95
   6  -6 -14    4.16    1.09
   6   6 -14    1.66    1.00
  -5  -6  14    1.39    1.21
   5  -6 -14    3.78    0.92
   5  -6 -14    4.16    1.05
   5   6 -14    1.96    0.82
   5   6 -14    1.14    0.99
  -4  -6  14    2.10    1.19
   4  -6 -14    1.23    0.85
   4  -6 -14    1.22    0.78
  -4   6  14    1.73    1.19
   4   6 -14    2.35    0.83
   4   6 -14    2.24    1.00
   3  -6 -14    3.82    0.90
   3  -6 -14    4.53    0.97
  -3  -6  14    2.02    1.24
   3   6 -14    2.59    0.86
   3   6 -14    3.19    1.04
  -3   6  14    4.35    1.27
   2  -6 -14    1.16    0.73
  -2  -6  14    2.29    1.17
   2   6 -14    3.03    1.00
  -2   6  14    1.67    1.17
  -1  -6  14    2.78    1.16
   1  -6 -14    2.51    0.75
  -1   6  14    3.08    1.23
   1   6 -14    3.18    1.00
   0  -6  14    1.28    1.17
   0  -6 -14    3.61    0.75
   0   6  14    4.28    1.24
   0   6 -14    1.80    0.93
   1  -6  14    9.98    1.55
  -1  -6 -14    7.87    1.14
   1   6  14    7.55    1.49
  -1   6 -14   11.56    1.52
   2  -6  14   12.26    1.88
  -2   6 -14   12.60    1.66
   3  -6  14    5.51    1.35
   3   6  14    4.78    1.29
  -3   6 -14    7.22    1.18
   4  -6  14    7.51    1.42
   4   6  14    8.25    1.46
   5  -6  14    2.64    1.18
   5   6  14    4.20    1.25
   6  -6  14    2.99    1.24
   6   6  14    3.41    1.29
   7  -6  14   -0.39    1.13
   7   7 -14    7.84    1.39
   6  -7 -14   -0.33    0.76
   6  -7 -14    0.32    0.88
   6   7 -14    1.68    1.04
   5  -7 -14    1.53    0.84
  -5  -7  14    1.48    1.17
   5  -7 -14    1.06    0.88
   5   7 -14    2.74    0.87
   5   7 -14    2.75    1.05
  -4  -7  14    8.41    1.56
   4   7 -14    9.97    1.45
   4   7 -14    8.02    1.30
   3  -7 -14    1.37    0.79
  -3  -7  14    3.24    1.23
   3   7 -14    5.23    1.13
  -3   7  14    2.17    1.21
   3   7 -14    3.92    0.91
  -2  -7  14    2.16    1.21
   2  -7 -14    1.66    0.76
  -2   7  14    1.46    1.18
   2   7 -14    3.71    1.04
   1  -7 -14    1.56    0.72
  -1  -7  14    2.76    1.21
  -1   7  14    2.24    1.20
   1   7 -14    2.92    1.00
   0  -7  14    4.52    1.25
   0  -7 -14    2.79    0.72
   0   7 -14    4.72    1.08
   0   7  14    3.52    1.23
   1  -7  14    3.10    1.21
   1   7  14    4.89    1.25
  -1   7 -14    4.83    1.07
   2  -7  14    7.52    1.40
  -2   7 -14    7.84    1.22
   2   7  14    3.74    1.32
   3  -7  14    1.32    1.15
   3   7  14    0.44    1.16
   4  -7  14    1.92    1.15
   4   7  14    0.79    1.13
   5  -7  14   -0.10    1.10
   5   7  14   -0.08    1.13
   6  -7  14    0.72    1.12
   6   7  14    1.59    1.13
   7  -7  14    1.88    1.17
   7  -8 -14    4.56    1.14
   7   8 -14    5.47    1.26
   6  -8 -14    1.02    0.86
   6   8 -14    0.92    0.99
   5  -8 -14    4.23    1.03
  -5  -8  14    5.93    1.38
   5   8 -14    7.17    1.29
  -4  -8  14    2.97    1.24
   4  -8 -14    1.97    0.82
  -4   8  14    1.81    1.19
   4   8 -14    3.11    0.90
   4   8 -14    3.61    1.10
  -3  -8  14   26.84    2.79
   3  -8 -14   24.91    2.39
   3   8 -14   26.99    2.64
  -3   8  14   25.64    2.77
  -2  -8  14    2.97    1.18
   2  -8 -14    1.42    0.74
  -2   8  14    1.80    1.21
   2   8 -14    2.98    0.99
  -1  -8  14    5.84    1.42
   1  -8 -14    9.80    1.22
   1   8 -14    6.10    1.23
  -1   8  14    8.57    1.45
   0  -8  14    0.72    1.10
   0  -8 -14   -0.03    0.56
   0   8 -14    0.64    0.85
   0   8  14   -0.10    1.07
   1  -8  14   11.17    1.84
   1   8  14   13.12    1.89
  -1   8 -14   12.00    1.65
   2  -8  14    0.50    1.08
  -2   8 -14    1.15    0.87
   2   8  14    1.01    1.13
   3  -8  14    4.77    1.34
   3   8  14    9.15    1.50
   4  -8  14    2.15    1.14
   4   8  14    3.54    1.33
   5  -8  14    0.65    1.13
   5   8  14    0.54    1.09
   6  -8  14    0.98    1.14
   6   8  14    4.20    1.37
   7  -9 -14    1.49    0.96
   7   9 -14    2.15    1.13
   6  -9 -14    0.75    0.88
   6   9 -14    2.35    1.09
  -5  -9  14    0.40    1.12
   5  -9 -14    0.65    0.76
   5   9 -14    0.44    0.98
   4  -9 -14    2.88    0.90
  -4  -9  14    6.10    1.37
  -4   9  14    4.20    1.27
  -3  -9  14    1.73    1.19
   3  -9 -14    1.76    0.77
  -3   9  14    1.88    1.23
   3   9 -14    1.92    0.98
  -2  -9  14    1.81    1.23
   2  -9 -14    0.94    0.69
   2   9 -14    1.96    0.96
  -2   9  14    1.74    1.19
  -1  -9  14    2.89    1.18
   1  -9 -14    0.46    0.67
   1   9 -14    3.18    1.02
  -1   9  14    1.43    1.14
   0  -9  14    2.77    1.18
   0   9  14    0.38    1.18
   0   9 -14    3.21    1.00
   1  -9  14   -0.20    1.14
   1   9  14   -0.24    1.17
  -1   9 -14    0.11    0.88
   2  -9  14    6.19    1.38
  -2   9 -14    6.68    1.19
   3  -9  14    0.24    1.10
   3   9  14    1.06    1.09
   4  -9  14    4.01    1.24
   4   9  14    1.96    1.25
   5  -9  14    2.43    1.19
   5   9  14    0.87    1.07
   6  -9  14    1.01    1.16
   6   9  14    0.90    1.10
   6  10 -14    0.15    1.01
  -5 -10  14    2.96    1.25
   5 -10 -14    6.22    1.06
   5  10 -14    2.44    1.13
   4 -10 -14    2.98    0.88
  -4 -10  14    2.56    1.24
   4  10 -14    2.80    1.06
  -3 -10  14    7.16    1.45
   3  10 -14    7.89    1.31
   2 -10 -14    3.84    0.82
  -2 -10  14    1.88    1.19
   2  10 -14    2.34    0.99
  -2  10  14    3.09    1.23
  -1 -10  14    3.21    1.29
   1 -10 -14    4.67    0.87
  -1  10  14    4.19    1.31
   1  10 -14    5.29    1.16
   0 -10  14    0.51    1.12
   0  10  14    1.21    1.10
   0  10 -14    1.61    0.93
   1 -10  14    4.10    1.31
   1  10  14    5.42    1.47
  -1  10 -14    6.28    1.16
   2 -10  14    2.48    1.17
  -2  10 -14    3.55    0.99
   2  10  14    0.89    1.09
   3 -10  14    4.72    1.28
   3  10  14    5.53    1.36
   4 -10  14    0.74    1.14
   4  10  14    3.20    1.30
   5 -10  14    0.79    1.13
   5  10  14    1.98    1.14
   6 -10  14    0.22    1.11
   6  11 -14    8.50    1.53
  -5 -11  14    0.95    1.16
   5 -11 -14    0.02    0.80
   5  11 -14    1.12    1.08
   4 -11 -14    0.49    0.74
  -4 -11  14    1.50    1.20
   4  11 -14    3.06    1.14
   3 -11 -14    0.23    0.71
  -3 -11  14    0.30    1.15
  -3  11  14    1.15    1.18
   3  11 -14    1.10    0.97
   2 -11 -14    3.12    0.82
  -2 -11  14    2.95    1.24
   2  11 -14    4.07    1.10
  -2  11  14    2.81    1.26
   1 -11 -14    0.00    0.62
  -1 -11  14   -0.18    1.10
  -1  11  14    0.31    1.07
   1  11 -14    1.11    0.97
   0 -11  14    3.07    1.26
   0  11 -14    3.73    1.07
   0  11  14   -0.07    1.12
   1 -11  14    0.45    1.18
   1  11  14   -0.52    1.07
  -1  11 -14    0.47    0.91
   2 -11  14    0.61    1.15
   2  11  14    0.26    1.06
   3 -11  14   -0.53    1.09
   3  11  14   -0.34    1.06
   4 -11  14    1.51    1.19
   4  11  14    1.47    1.13
   5 -11  14   -1.00    1.12
   5  11  14   -0.59    1.06
   6  12 -14    0.98    1.12
  -5 -12  14    0.81    1.18
   5 -12 -14    0.73    0.82
   5  12 -14    1.03    1.09
  -4 -12  14   -0.49    1.13
   4 -12 -14    1.19    0.80
   4  12 -14    0.56    1.01
   3 -12 -14    0.30    0.72
  -3 -12  14    0.25    1.13
  -3  12  14    1.32    1.15
   3  12 -14    0.62    1.00
  -2 -12  14    0.67    1.11
   2 -12 -14    0.08    0.67
  -2  12  14   -0.33    1.18
   2  12 -14    0.28    0.94
  -1 -12  14    0.08    1.10
  -1  12  14    0.76    1.13
   1  12 -14    0.44    0.97
   0 -12  14    0.28    1.13
   0  12 -14    0.40    0.90
   0  12  14   -0.30    1.09
   1 -12  14    1.30    1.17
   1  12  14    0.79    1.11
  -1  12 -14    1.70    1.00
   2 -12  14   -0.65    1.07
   2  12  14    0.05    1.11
   3 -12  14    1.46    1.18
   3  12  14    3.32    1.33
   4 -12  14    0.81    1.16
   4  12  14    1.51    1.15
   5  12  14   -0.07    1.11
  -5 -13  14   12.68    2.03
   5  13 -14   12.68    1.94
   4 -13 -14    2.61    0.87
  -4 -13  14    1.97    1.27
   4  13 -14    1.73    1.12
   3 -13 -14    0.70    0.73
  -3 -13  14    0.67    1.16
  -3  13  14    0.37    1.18
   3  13 -14    1.61    1.09
  -2 -13  14    5.80    1.40
  -2  13  14    3.95    1.36
   2  13 -14    5.84    1.31
  -1 -13  14    1.35    1.20
   1  13 -14    2.16    1.10
  -1  13  14    1.35    1.21
   0 -13  14    6.83    1.42
   0  13  14    5.40    1.47
   0  13 -14    7.30    1.33
   1 -13  14    0.08    1.10
  -1  13 -14   -0.03    0.95
   1  13  14    0.31    1.13
   2 -13  14    1.92    1.18
   2  13  14    0.98    1.12
   3 -13  14    0.57    1.14
   3  13  14    2.80    1.30
   4 -13  14    7.02    1.39
   4  13  14    1.87    1.24
  -5 -14  14    1.72    1.29
   5  14 -14    1.69    1.18
  -4 -14  14    2.41    1.28
   4 -14 -14    0.39    0.80
   4  14 -14    3.81    1.22
   3 -14 -14    1.74    0.82
  -3 -14  14    1.53    1.27
   3  14 -14    2.49    1.11
  -2 -14  14    1.66    1.17
   2  14 -14    1.63    1.08
  -2  14  14   -0.39    1.13
  -1 -14  14    0.57    1.12
  -1  14  14    1.02    1.17
   1  14 -14    1.59    1.04
   0 -14  14    0.93    1.17
   0  14  14   -0.01    1.15
   0  14 -14    1.18    0.98
   1 -14  14    2.48    1.20
   1  14  14    1.80    1.17
   2 -14  14    1.32    1.17
   2  14  14    0.49    1.12
   3 -14  14    0.29    1.10
   3  14  14    0.34    1.15
   4  14  14    0.71    1.19
  -5 -15  14    0.94    1.25
   4 -15 -14   -0.10    0.77
  -4 -15  14    1.61    1.31
   4  15 -14    2.32    1.24
  -3 -15  14   -0.52    1.18
   3  15 -14   -0.14    1.11
  -2 -15  14    1.21    1.25
  -2  15  14    1.13    1.23
   2  15 -14    2.78    1.18
  -1 -15  14   -0.71    1.13
   1  15 -14    0.32    1.02
  -1  15  14   -0.24    1.12
   0 -15  14    5.24    1.37
   0  15 -14    8.06    1.39
   0  15  14    3.47    1.44
   1 -15  14    0.18    1.16
   1  15  14   -0.28    1.12
   2 -15  14    4.07    1.30
   2  15  14    3.61    1.44
   3  15  14    0.17    1.16
  -5 -16  14    0.08    1.24
  -4 -16  14   -0.78    1.22
   4  16 -14   -0.49    1.08
  -3 -16  14   -0.04    1.23
   3  16 -14    0.95    1.13
  -2 -16  14    0.16    1.19
   2  16 -14   -0.07    1.12
  -2  16  14    0.15    1.16
  -1 -16  14    1.32    1.22
  -1  16  14    0.24    1.16
   1  16 -14    1.68    1.15
   0 -16  14   -0.39    1.15
   0  16 -14   -0.12    1.07
   0  16  14    0.52    1.16
   1 -16  14    1.63    1.23
   1  16  14    0.33    1.22
   2  16  14   -0.61    1.15
  -5 -17  14    1.51    1.28
  -4 -17  14    0.32    1.28
  -3 -17  14    8.25    1.71
   3  17 -14   10.63    1.70
  -2 -17  14    3.34    1.41
   2  17 -14    4.61    1.29
  -1 -17  14    0.60    1.22
   1  17 -14    1.34    1.13
  -1  17  14    0.83    1.21
   0 -17  14    2.40    1.26
   0  17  14    2.05    1.25
   1  17  14    3.40    1.47
   2  17  14    0.46    1.22
  -4 -18  14   -0.03    1.23
  -3 -18  14    2.26    1.33
   3  18 -14    2.42    1.24
   2  18 -14    0.27    1.13
  -1  18  14    0.65    1.20
   1  18 -14    0.67    1.10
   0  18  14    0.45    1.25
   1  18  14    0.89    1.24
   2  19 -14    6.86    1.49
   0  19  14    2.16    1.33
   2  20 -14    2.00    1.32
   0  20  14   -0.62    1.27
   7   0 -15    1.02    1.04
   6   0 -15    1.43    1.00
   5   0 -15   -0.33    0.77
   5   0 -15   -0.18    0.92
  -5   0  15   -1.37    1.10
   4   0 -15    1.63    0.80
  -4   0  15    1.21    1.20
   4   0 -15    1.16    0.96
   3   0 -15    2.52    0.95
  -3   0  15    0.63    1.17
   3   0 -15    1.94    0.79
  -2   0  15   -0.85    1.08
   2   0 -15    0.36    0.67
   2   0 -15   -0.59    0.83
   1   0 -15    0.01    0.67
  -1   0  15    0.57    1.18
   1   0 -15    0.25    0.84
   0   0  15   -1.58    1.07
   0   0 -15   -0.80    0.80
   1   0  15   -1.54    1.09
  -1   0 -15   -0.32    0.81
  -2   0 -15    0.48    0.84
   2   0  15   -0.07    1.18
  -3   0 -15   -0.36    0.82
   3   0  15   -1.16    1.15
   4   0  15   -0.40    1.14
   5   0  15   -0.38    1.17
   6   0  15   -0.37    1.20
   7  -1 -15   10.56    1.64
   7   1 -15    9.74    1.59
   6  -1 -15   -0.41    0.91
   6   1 -15    0.20    0.97
  -5  -1  15    0.43    1.16
   5  -1 -15    2.92    0.93
   5  -1 -15    3.28    1.05
   5   1 -15    1.96    1.00
   4  -1 -15    0.02    0.73
   4  -1 -15   -0.30    0.87
  -4  -1  15    1.44    1.20
  -4   1  15    0.55    1.15
   4   1 -15    0.54    0.90
   4   1 -15    0.62    0.77
   3  -1 -15    1.66    0.80
   3  -1 -15    1.10    0.88
  -3  -1  15    0.59    1.18
   3   1 -15    0.82    0.74
   3   1 -15    0.00    0.88
  -3   1  15    1.14    1.16
   2  -1 -15    1.89    0.77
   2  -1 -15    0.19    0.83
  -2  -1  15   -0.48    1.10
   2   1 -15    0.50    0.87
  -2   1  15    1.21    1.19
   2   1 -15    0.59    0.72
   1  -1 -15    5.10    1.09
   1  -1 -15    4.81    0.93
  -1  -1  15    2.25    1.22
   1   1 -15    3.41    0.89
   1   1 -15    3.40    1.02
  -1   1  15    5.37    1.38
   0  -1 -15    2.14    0.77
   0  -1 -15    1.75    0.90
   0  -1  15    0.86    1.20
   0   1 -15    2.53    0.96
   0   1  15    1.15    1.22
   1  -1  15   -1.39    1.12
  -1  -1 -15    0.24    0.83
  -1   1 -15   -0.06    0.85
   1   1  15   -1.19    1.13
  -2  -1 -15    4.92    1.05
   2  -1  15    3.56    1.31
  -2   1 -15    5.60    1.13
   2   1  15    4.08    1.36
  -3  -1 -15   -0.10    0.82
   3  -1  15   -1.04    1.13
   3   1  15   -0.43    1.16
  -3   1 -15   -0.22    0.82
   4  -1  15    0.61    1.17
   4   1  15    2.54    1.21
   5  -1  15    0.24    1.19
   5   1  15   -0.31    1.17
   6  -1  15    3.71    1.33
   6   1  15    6.80    1.45
   7   2 -15    2.79    1.13
   6  -2 -15    0.44    0.92
   6   2 -15    0.14    0.99
   5  -2 -15    0.23    0.88
  -5  -2  15   -0.70    1.13
   5  -2 -15   -0.61    0.75
   5   2 -15   -0.20    0.92
   4  -2 -15    0.46    0.86
  -4  -2  15    2.07    1.18
   4  -2 -15   -0.19    0.75
   4   2 -15    0.86    0.93
   4   2 -15    1.73    0.81
  -4   2  15   -0.21    1.14
  -3  -2  15   -0.89    1.14
   3  -2 -15    0.30    0.73
   3  -2 -15    0.74    0.89
   3   2 -15    1.24    0.75
  -3   2  15    0.75    1.19
   3   2 -15    0.58    0.88
  -2  -2  15    2.87    1.22
   2  -2 -15    0.94    0.90
   2  -2 -15    0.97    0.74
   2   2 -15    3.08    0.82
  -2   2  15    1.52    1.21
   2   2 -15    2.66    0.98
   1  -2 -15    0.48    0.67
   1  -2 -15    1.31    0.93
  -1  -2  15    0.47    1.13
   1   2 -15    2.20    0.95
  -1   2  15    0.98    1.24
   1   2 -15    1.89    0.77
   0  -2  15    0.66    1.17
   0  -2 -15    2.16    0.94
   0  -2 -15    1.56    0.74
   0   2 -15    0.88    0.88
   0   2  15    0.97    1.21
   1  -2  15    1.38    1.19
  -1  -2 -15    0.84    0.88
  -1   2 -15    3.75    1.00
   1   2  15    1.38    1.23
  -2  -2 -15    1.16    0.89
   2  -2  15    0.17    1.19
   2   2  15    1.09    1.22
  -2   2 -15    0.65    0.86
  -3  -2 -15    2.48    0.93
   3  -2  15    0.70    1.15
   3   2  15    1.02    1.19
   4  -2  15   -0.20    1.11
   4   2  15    0.87    1.16
   5  -2  15    1.19    1.19
   5   2  15    0.62    1.16
   6  -2  15   -0.40    1.16
   6   2  15   -0.96    1.17
   6  -3 -15    2.37    1.00
   6   3 -15    1.06    1.00
   5  -3 -15    5.93    1.17
   5  -3 -15    4.81    1.10
  -5  -3  15    4.17    1.37
   5   3 -15    5.47    1.24
   4  -3 -15    1.15    0.90
  -4  -3  15   -0.58    1.12
   4  -3 -15    0.76    0.79
  -4   3  15    0.50    1.17
   4   3 -15    0.63    0.77
   4   3 -15    0.73    0.96
   3  -3 -15    0.54    0.75
  -3  -3  15    0.66    1.17
   3  -3 -15    0.53    0.90
   3   3 -15    1.63    0.79
  -3   3  15    0.51    1.15
   3   3 -15    1.39    0.97
   2  -3 -15    4.97    1.01
   2  -3 -15    5.89    1.20
  -2  -3  15    5.99    1.42
   2   3 -15    7.29    1.10
   2   3 -15    6.01    1.18
  -2   3  15    4.72    1.38
  -1  -3  15    2.51    1.22
   1  -3 -15    1.69    0.97
   1  -3 -15    3.13    0.79
  -1   3  15    2.58    1.29
   1   3 -15    2.04    0.94
   0  -3 -15    4.69    0.87
   0  -3  15    1.68    1.21
   0  -3 -15    5.70    1.16
   0   3  15    5.17    1.37
   0   3 -15    2.76    1.00
   1  -3  15   -0.21    1.12
  -1  -3 -15    0.36    0.89
  -1   3 -15    0.51    0.85
   1   3  15   -0.13    1.13
  -2  -3 -15    6.07    1.18
   2  -3  15    5.23    1.35
   2   3  15    5.14    1.38
  -2   3 -15    6.81    1.18
   3  -3  15    4.13    1.28
  -3  -3 -15    2.49    0.99
   3   3  15    2.08    1.25
   4  -3  15    0.49    1.14
   4   3  15    0.93    1.19
   5  -3  15   -0.84    1.14
   5   3  15    0.88    1.19
   6  -4 -15    2.13    1.01
   6   4 -15    5.49    1.23
   5  -4 -15    0.33    0.83
  -5  -4  15    0.70    1.19
   5  -4 -15    0.74    0.92
   5   4 -15    0.89    0.97
   4  -4 -15    1.52    0.97
  -4  -4  15    3.79    1.32
  -4   4  15    2.22    1.23
   4   4 -15    4.38    0.96
   4   4 -15    3.98    1.10
   3  -4 -15    1.63    0.98
   3  -4 -15    0.73    0.76
  -3  -4  15    0.07    1.15
   3   4 -15    0.04    0.91
  -3   4  15    2.50    1.24
   3   4 -15    1.32    0.80
  -2  -4  15   14.40    1.94
   2  -4 -15    9.25    1.45
   2  -4 -15   11.03    1.66
  -2   4  15    9.31    1.71
   2   4 -15   14.49    1.54
   1  -4 -15    0.86    0.69
   1  -4 -15    0.91    0.85
  -1  -4  15    0.14    1.18
   1   4 -15    0.41    0.92
  -1   4  15    0.82    1.20
   0  -4 -15    3.10    0.81
   0  -4  15    4.23    1.31
   0  -4 -15    4.24    1.06
   0   4  15    4.95    1.33
   0   4 -15    3.70    1.08
  -1  -4 -15    2.34    0.96
   1  -4  15    0.33    1.13
   1   4  15   -0.05    1.13
  -1   4 -15    0.24    0.88
  -2  -4 -15    2.41    0.95
   2  -4  15    0.97    1.18
  -2   4 -15    2.08    0.95
   2   4  15    1.51    1.25
  -3  -4 -15    1.47    0.93
   3  -4  15    1.72    1.16
   3   4  15    0.19    1.20
   4  -4  15   -0.64    1.12
   4   4  15    1.58    1.22
   5  -4  15    7.75    1.47
   5   4  15    5.36    1.46
   6  -5 -15   -0.34    0.91
   6   5 -15    0.56    1.02
   5  -5 -15    3.79    1.09
   5  -5 -15    2.41    0.92
  -5  -5  15    1.26    1.24
   5   5 -15    1.34    1.05
  -4  -5  15    1.14    1.22
   4  -5 -15    1.41    0.97
   4  -5 -15    0.99    0.83
   4   5 -15    3.11    1.08
  -4   5  15    0.61    1.21
   4   5 -15    2.16    0.85
  -3  -5  15    1.88    1.26
   3  -5 -15    5.35    1.14
   3  -5 -15    5.20    0.97
   3   5 -15    1.46    1.03
  -3   5  15    4.77    1.38
   3   5 -15    2.32    0.88
   2  -5 -15    1.54    0.94
  -2  -5  15    1.03    1.18
   2  -5 -15    1.78    0.76
  -2   5  15    1.15    1.28
   2   5 -15    1.88    0.97
   1  -5 -15    1.20    0.86
  -1  -5  15   -1.19    1.09
   1  -5 -15    0.64    0.68
  -1   5  15    0.17    1.18
   1   5 -15    0.91    0.92
   0  -5 -15   15.44    1.65
   0  -5 -15   17.22    1.95
   0  -5  15   16.12    2.16
   0   5  15   17.10    2.16
   0   5 -15   15.49    1.94
   1  -5  15    2.86    1.30
  -1  -5 -15    6.23    1.13
   1   5  15    6.72    1.48
  -1   5 -15    3.59    1.07
   2  -5  15   11.05    1.90
  -2  -5 -15   15.08    1.77
   2   5  15   14.53    2.02
  -2   5 -15   11.27    1.70
   3  -5  15    0.43    1.11
  -3  -5 -15    0.30    0.86
   3   5  15   -0.57    1.17
   4  -5  15    3.49    1.29
   4   5  15    6.02    1.39
   5  -5  15   -0.56    1.13
   5   5  15    0.44    1.21
   6  -6 -15    1.52    1.04
   6   6 -15    3.96    1.15
  -5  -6  15    1.37    1.25
   5  -6 -15    1.06    0.85
   5  -6 -15    1.99    1.00
   5   6 -15    0.77    1.00
   4  -6 -15    0.53    0.91
  -4  -6  15   -0.40    1.16
   4  -6 -15    0.11    0.78
   4   6 -15    0.21    0.96
  -4   6  15   -0.24    1.18
   3  -6 -15    0.84    0.88
  -3  -6  15   -0.16    1.20
   3  -6 -15   -0.35    0.74
   3   6 -15    0.87    0.79
  -3   6  15    0.15    1.19
   3   6 -15    1.03    0.98
   2  -6 -15    1.18    0.87
  -2  -6  15    1.46    1.20
   2  -6 -15    0.20    0.70
   2   6 -15    2.21    0.99
  -2   6  15   -0.10    1.19
   1  -6 -15    4.59    0.88
   1  -6 -15    5.19    1.08
  -1   6  15    5.67    1.39
   0  -6 -15    1.36    0.86
   0  -6  15    0.85    1.16
   0  -6 -15    0.45    0.64
   0   6  15    1.49    1.26
   0   6 -15    1.23    0.93
  -1  -6 -15    3.95    1.02
   1   6  15    4.26    1.35
   2  -6  15    2.77    1.23
  -2  -6 -15    0.54    0.82
  -2   6 -15    3.00    0.99
   2   6  15    1.84    1.26
   3  -6  15    2.43    1.23
  -3  -6 -15    0.89    0.84
   3   6  15    0.41    1.19
   4  -6  15    3.74    1.29
   4   6  15    3.69    1.33
   5  -6  15    1.83    1.23
   5   6  15   -0.04    1.13
   6  -7 -15    2.06    1.05
   6   7 -15    3.16    1.16
  -5  -7  15    5.45    1.42
   5  -7 -15    6.36    1.23
   5   7 -15    6.51    1.30
   4  -7 -15    2.47    0.94
  -4  -7  15    0.35    1.26
   4  -7 -15    1.80    0.86
   4   7 -15    1.24    1.01
  -4   7  15    1.83    1.27
  -3  -7  15    3.85    1.35
   3  -7 -15    2.59    0.89
   3  -7 -15    3.04    0.96
  -3   7  15    3.66    1.34
   3   7 -15    4.16    1.12
  -2  -7  15   -0.25    1.20
   2  -7 -15    1.34    0.76
  -2   7  15    1.77    1.23
   2   7 -15    1.08    0.99
  -1  -7  15    3.40    1.30
   1   7 -15    4.26    1.09
  -1   7  15    1.28    1.30
   0  -7  15    4.37    1.32
   0   7 -15    4.15    1.12
   0   7  15    7.78    1.49
   1  -7  15    1.00    1.18
   1   7  15    0.05    1.19
  -1   7 -15    0.52    0.92
   2  -7  15    0.32    1.13
  -2   7 -15    0.43    0.86
   2   7  15    1.89    1.21
   3  -7  15    0.74    1.15
   3   7  15    1.81    1.21
   4  -7  15   11.97    1.81
   4   7  15    9.03    1.62
   5  -7  15    1.08    1.17
   5   7  15    0.34    1.09
   6   8 -15    3.54    1.21
  -5  -8  15    0.02    1.21
   5  -8 -15    1.18    0.91
   5   8 -15    0.81    1.05
   4  -8 -15    2.42    0.95
   4  -8 -15    0.73    0.81
  -4  -8  15    7.40    1.48
  -3  -8  15    0.15    1.22
   3  -8 -15    0.46    0.73
   3   8 -15    0.34    0.97
  -3   8  15    0.40    1.21
  -2  -8  15    5.06    1.37
   2  -8 -15    1.95    0.82
   2   8 -15    6.63    1.23
  -2   8  15    3.09    1.36
   1  -8 -15    0.70    0.69
  -1  -8  15    0.73    1.21
  -1   8  15    1.52    1.28
   1   8 -15    1.98    0.97
   0  -8  15    2.85    1.32
   0   8  15    1.76    1.30
   0   8 -15    3.60    1.05
   1  -8  15    4.66    1.34
  -1   8 -15    6.09    1.18
   1   8  15    2.23    1.27
   2  -8  15   -0.36    1.12
   2   8  15   -0.45    1.13
   3  -8  15   -0.07    1.12
   3   8  15   -1.02    1.12
   4  -8  15    0.14    1.13
   4   8  15    0.83    1.23
  -5  -9  15    0.69    1.24
   5  -9 -15    3.42    1.02
   5   9 -15    1.98    1.09
  -4  -9  15    0.55    1.23
   4  -9 -15   -0.44    0.71
   4   9 -15    0.71    1.01
  -3  -9  15    5.32    1.41
   3  -9 -15    3.97    0.96
   3   9 -15    5.97    1.23
  -3   9  15    5.52    1.43
  -2  -9  15    3.20    1.33
   2  -9 -15    2.21    0.82
   2   9 -15    3.09    1.08
  -2   9  15    3.34    1.38
  -1  -9  15    8.43    1.65
   1   9 -15   11.09    1.70
  -1   9  15   13.67    1.93
   0  -9  15    1.25    1.20
   0   9 -15    1.92    1.02
   0   9  15    3.55    1.30
   1  -9  15    3.60    1.33
  -1   9 -15    3.51    1.07
   1   9  15    2.25    1.27
   2  -9  15    0.91    1.19
   2   9  15    2.23    1.28
   3  -9  15    3.83    1.32
   3   9  15    3.96    1.34
   4  -9  15    2.05    1.25
   4   9  15    2.05    1.19
  -5 -10  15   -0.28    1.19
   5  10 -15    0.00    1.07
   4 -10 -15    0.74    0.83
  -4 -10  15    2.89    1.31
   4  10 -15    3.77    1.16
   3 -10 -15    2.32    0.87
  -3 -10  15    6.11    1.43
   3  10 -15    7.26    1.30
  -3  10  15    3.20    1.38
   2 -10 -15    0.04    0.70
  -2 -10  15   -0.22    1.21
   2  10 -15    0.80    0.98
  -2  10  15    0.24    1.25
  -1 -10  15    2.09    1.29
   1  10 -15    2.39    1.03
  -1  10  15    1.67    1.20
   0 -10  15    1.59    1.28
   0  10  15    0.11    1.12
   0  10 -15    0.57    0.96
   1 -10  15    2.24    1.26
   1  10  15    1.05    1.19
  -1  10 -15    3.45    1.06
   2 -10  15    0.18    1.15
   2  10  15    0.65    1.11
   3 -10  15    0.78    1.14
   3  10  15    0.38    1.12
   4  10  15   -0.08    1.17
  -5 -11  15    0.68    1.23
   5  11 -15    1.29    1.10
   4 -11 -15    2.83    0.91
  -4 -11  15    2.32    1.30
   4  11 -15    3.45    1.21
   3 -11 -15    2.00    0.82
  -3 -11  15    1.19    1.26
   3  11 -15    1.43    1.08
  -3  11  15    1.99    1.32
  -2 -11  15    0.73    1.20
  -2  11  15    3.24    1.30
   2  11 -15    2.04    1.09
  -1 -11  15    1.20    1.21
   1  11 -15    0.94    1.00
  -1  11  15   -0.65    1.11
   0 -11  15   -0.97    1.16
   0  11  15   -0.85    1.11
   0  11 -15    0.26    0.99
   1 -11  15    0.29    1.20
   1  11  15   -0.49    1.10
   2 -11  15   -0.15    1.20
   2  11  15    0.56    1.19
   3 -11  15   -0.80    1.16
   3  11  15   -0.76    1.15
  -5 -12  15    0.89    1.28
   4 -12 -15    2.14    0.89
  -4 -12  15    1.97    1.29
   4  12 -15    4.44    1.25
  -3 -12  15   -0.46    1.19
   3 -12 -15    0.09    0.74
   3  12 -15   -0.26    1.00
  -2 -12  15    3.47    1.30
  -2  12  15    1.17    1.18
   2  12 -15    4.56    1.21
  -1 -12  15   -0.66    1.14
  -1  12  15    0.33    1.14
   1  12 -15    0.15    0.98
   0 -12  15    0.92    1.23
   0  12 -15    1.48    1.03
   0  12  15   -0.23    1.13
   1 -12  15    0.81    1.21
   1  12  15    0.37    1.21
   2 -12  15    0.84    1.23
   2  12  15    0.98    1.17
   3  12  15    1.80    1.19
  -5 -13  15   -0.92    1.20
  -4 -13  15   -0.67    1.20
   4  13 -15    0.06    1.12
  -3 -13  15   -0.97    1.16
   3  13 -15   -0.44    1.04
  -2 -13  15    0.83    1.25
   2  13 -15    3.25    1.21
  -2  13  15    3.31    1.30
  -1 -13  15   -0.43    1.18
  -1  13  15   -1.02    1.15
   1  13 -15   -0.12    1.02
   0 -13  15   -0.37    1.15
   0  13 -15   -0.07    0.98
   0  13  15    0.51    1.19
   1 -13  15    0.77    1.23
   1  13  15    1.18    1.19
   2  13  15    1.98    1.24
  -4 -14  15    1.79    1.30
   4  14 -15    2.37    1.19
  -3 -14  15    0.64    1.27
   3  14 -15    0.10    1.08
  -2 -14  15    1.75    1.28
  -2  14  15    0.49    1.20
   2  14 -15    2.26    1.13
  -1 -14  15    0.94    1.22
   1  14 -15    1.80    1.09
  -1  14  15    0.70    1.21
   0 -14  15   -0.19    1.23
   0  14  15    0.14    1.20
   1  14  15    0.89    1.21
   2  14  15    0.26    1.21
  -4 -15  15   -0.44    1.25
  -3 -15  15   -0.27    1.22
   3  15 -15   -0.32    1.12
  -2 -15  15    2.02    1.35
   2  15 -15    3.13    1.29
  -1  15  15    0.54    1.25
   1  15 -15    0.45    1.12
   0  15  15    0.33    1.19
   1  15  15    0.11    1.21
   3  16 -15    0.32    1.20
   2  16 -15    2.60    1.25
   1  16 -15    2.36    1.21
  -1  16  15    0.68    1.29
   0  16  15    1.85    1.40
   1  16  15    1.79    1.38
   2  17 -15    0.45    1.18
  -1  17  15   -0.59    1.22
   0  17  15    0.95    1.26
   5   0 -16    0.51    1.01
  -4   0  16    0.40    1.28
   4   0 -16    1.47    1.01
   3   0 -16   -0.50    0.91
   3   0 -16    0.43    0.75
  -3   0  16   -0.53    1.21
  -2   0  16   -1.20    1.18
   2   0 -16    0.24    0.74
   2   0 -16   -0.23    0.89
   1   0 -16    0.31    0.74
  -1   0  16   -0.20    1.19
   1   0 -16   -0.04    0.88
   0   0  16    0.29    1.24
   0   0 -16    1.01    0.93
   1   0  16    2.31    1.28
  -1   0 -16    2.94    1.04
  -2   0 -16   -0.31    0.87
   2   0  16   -1.25    1.18
   3   0  16    0.51    1.27
   4   0  16    1.91    1.34
   5  -1 -16   -0.10    0.99
   5   1 -16    0.68    1.03
  -4  -1  16   -0.43    1.21
   4  -1 -16    0.57    0.96
  -4   1  16    0.51    1.22
   4   1 -16    1.05    0.99
  -3  -1  16   -0.93    1.20
   3  -1 -16    0.11    0.77
   3  -1 -16   -0.10    0.91
   3   1 -16   -0.23    0.91
   3   1 -16    0.08    0.75
  -3   1  16    0.29    1.22
   2  -1 -16    0.27    0.91
   2  -1 -16   -0.38    0.70
  -2  -1  16    0.07    1.21
  -2   1  16   -0.26    1.17
   2   1 -16    0.65    0.74
   2   1 -16    0.06    0.91
   1  -1 -16    1.30    0.81
  -1  -1  16    3.05    1.32
   1  -1 -16    1.91    1.00
   1   1 -16    4.15    0.90
  -1   1  16    1.26    1.28
   0  -1  16   -1.44    1.15
   0  -1 -16    0.33    0.88
   0   1  16   -0.51    1.20
   0   1 -16    0.30    0.92
  -1  -1 -16    0.63    0.91
   1  -1  16    1.38    1.27
   1   1  16    0.09    1.21
  -1   1 -16    2.53    0.99
  -2  -1 -16   -0.04    0.86
   2  -1  16   -0.34    1.21
   2   1  16   -0.59    1.24
  -2   1 -16    0.12    0.87
   3  -1  16    2.84    1.31
   3   1  16    0.20    1.31
   4  -1  16    5.58    1.41
   4   1  16    1.52    1.36
   5  -2 -16   -0.35    0.94
   5   2 -16   -0.19    1.03
  -4  -2  16    2.46    1.30
   4  -2 -16    4.16    1.12
  -4   2  16    2.93    1.31
   4   2 -16    2.36    1.09
  -3  -2  16   -0.45    1.22
   3  -2 -16    0.63    0.93
   3  -2 -16    1.48    0.81
  -3   2  16   -0.16    1.17
   3   2 -16    1.21    0.98
   2  -2 -16    4.93    0.96
   2  -2 -16    5.17    1.15
  -2  -2  16    3.43    1.41
   2   2 -16    4.03    1.15
   2   2 -16    4.93    1.03
  -2   2  16    4.31    1.43
   1  -2 -16   -0.48    0.69
   1  -2 -16    0.26    0.89
  -1  -2  16   -1.51    1.16
   1   2 -16   -0.19    0.89
  -1   2  16   -0.31    1.25
   0  -2 -16    2.32    0.98
   0  -2 -16    2.56    0.81
   0  -2  16    1.04    1.25
   0   2  16    3.11    1.33
   0   2 -16    1.61    0.98
   1  -2  16   -0.55    1.17
  -1  -2 -16    1.14    0.90
  -1   2 -16    1.37    0.95
   1   2  16    0.64    1.28
   2  -2  16    3.37    1.32
  -2  -2 -16    3.41    1.03
  -2   2 -16    4.42    1.09
   2   2  16    1.77    1.32
   3  -2  16    3.52    1.34
   3   2  16    2.12    1.37
   4   2  16    0.90    1.32
   5  -3 -16    0.52    0.95
   5   3 -16    1.72    1.06
  -4  -3  16   -0.58    1.21
   4  -3 -16    0.54    0.91
  -4   3  16    0.35    1.21
   4   3 -16    0.42    0.97
  -3  -3  16   -1.39    1.16
   3  -3 -16   -0.09    0.91
   3  -3 -16   -0.79    0.72
   3   3 -16   -0.23    0.94
  -3   3  16    0.05    1.24
  -2  -3  16    5.52    1.51
   2  -3 -16    5.39    1.19
   2  -3 -16    4.77    1.00
  -2   3  16    4.12    1.42
   2   3 -16    5.86    1.08
   2   3 -16    6.89    1.31
  -1  -3  16   -0.42    1.22
   1  -3 -16   -0.35    0.71
   1  -3 -16    0.34    0.93
  -1   3  16    0.52    1.28
   1   3 -16   -0.32    0.93
   0  -3  16   -1.46    1.16
   0  -3 -16   -0.47    0.68
   0  -3 -16    0.13    0.89
   0   3  16   -0.17    1.26
   0   3 -16   -0.86    0.92
  -1  -3 -16    0.93    0.91
   1  -3  16    0.35    1.21
   1   3  16    0.45    1.31
  -1   3 -16    0.01    0.90
  -2  -3 -16    3.43    1.05
   2  -3  16    3.27    1.33
   2   3  16    2.98    1.37
   3  -3  16    0.80    1.20
   3   3  16    0.48    1.27
   5   4 -16   -0.01    1.00
   4  -4 -16    1.44    0.97
  -4  -4  16    1.50    1.33
   4   4 -16    1.76    1.07
   3  -4 -16    0.57    0.76
   3  -4 -16    0.73    0.95
  -3  -4  16   -0.19    1.22
  -3   4  16    0.05    1.21
   3   4 -16    0.64    0.98
   2  -4 -16    7.33    1.30
   2  -4 -16    5.50    1.04
  -2  -4  16    6.00    1.49
  -2   4  16    6.28    1.55
   2   4 -16    5.97    1.28
   1  -4 -16    1.18    0.99
   1  -4 -16    0.95    0.71
  -1  -4  16   -0.06    1.22
  -1   4  16    0.62    1.30
   1   4 -16    1.29    1.00
   0  -4 -16    2.21    1.02
   0  -4  16    1.08    1.27
   0   4  16    1.27    1.34
   0   4 -16    1.15    0.98
   1  -4  16    0.49    1.24
  -1  -4 -16    0.65    0.93
   1   4  16    0.25    1.24
  -1   4 -16    0.65    0.95
   2  -4  16    5.54    1.47
  -2  -4 -16    6.32    1.24
   2   4  16    6.50    1.51
   3  -4  16    1.46    1.25
   3   4  16    1.94    1.27
   5   5 -16    0.95    1.07
  -4  -5  16    0.34    1.27
   4  -5 -16    1.05    1.00
   4   5 -16    0.98    1.05
   3  -5 -16    2.63    1.05
   3  -5 -16    2.65    0.90
  -3  -5  16    3.79    1.43
  -3   5  16    2.14    1.33
   3   5 -16    5.87    1.24
  -2  -5  16    2.85    1.33
   2  -5 -16    2.16    1.03
   2  -5 -16    0.79    0.78
   2   5 -16    2.73    1.10
  -2   5  16    2.59    1.38
  -1  -5  16    5.66    1.42
   1  -5 -16    3.49    1.10
   1  -5 -16    3.75    0.90
   1   5 -16    5.80    1.26
  -1   5  16    6.22    1.53
   0  -5  16    0.54    1.23
   0  -5 -16    0.18    0.91
   0   5  16    0.72    1.28
   0   5 -16    1.27    1.01
  -1  -5 -16    2.09    1.02
   1  -5  16    4.37    1.40
   1   5  16    1.99    1.33
  -1   5 -16    5.53    1.16
  -2  -5 -16    1.00    0.91
   2  -5  16   -0.09    1.22
   2   5  16   -0.47    1.23
   3  -5  16   -0.15    1.23
   3   5  16   -0.53    1.28
   4  -6 -16    3.43    1.12
  -4  -6  16    1.76    1.38
   4   6 -16    3.28    1.15
   3  -6 -16    1.04    0.96
   3  -6 -16   -0.09    0.77
  -3  -6  16   -0.80    1.25
   3   6 -16    1.16    1.03
  -3   6  16   -0.21    1.30
   2  -6 -16    9.30    1.36
   2  -6 -16   10.23    1.62
  -2   6  16    8.22    1.73
   1  -6 -16    1.51    0.98
  -1  -6  16    1.00    1.26
  -1   6  16    1.29    1.34
   1   6 -16    1.02    1.00
   0  -6 -16    9.79    1.60
   0  -6  16    7.75    1.62
   0   6  16    8.55    1.64
   0   6 -16   10.17    1.64
  -1  -6 -16    0.44    0.90
   1  -6  16    0.38    1.18
  -1   6 -16    1.28    0.99
   1   6  16    0.08    1.23
   2  -6  16    1.32    1.28
  -2  -6 -16    1.71    0.95
   2   6  16    0.71    1.31
   3  -6  16   -0.35    1.22
   3   6  16   -0.13    1.27
   4  -7 -16   -0.01    0.95
  -4  -7  16   -0.05    1.31
   4   7 -16    0.57    1.01
   3  -7 -16   -0.43    0.77
   3  -7 -16   -0.07    0.90
  -3  -7  16    0.24    1.29
   3   7 -16   -0.28    0.97
  -3   7  16   -0.46    1.27
  -2  -7  16    0.10    1.26
   2  -7 -16    0.39    0.73
   2  -7 -16    1.25    0.92
   2   7 -16    1.28    1.02
  -2   7  16    0.12    1.32
   1  -7 -16    5.41    1.19
  -1  -7  16    9.02    1.63
  -1   7  16    5.50    1.52
   0  -7 -16    1.40    0.91
   0  -7  16    1.43    1.28
   0   7  16    1.09    1.33
   0   7 -16    1.46    0.99
   1  -7  16    2.51    1.30
  -1  -7 -16    0.98    0.90
   1   7  16    2.09    1.34
  -1   7 -16    3.28    1.07
  -2  -7 -16    0.33    0.88
   2  -7  16    0.01    1.22
   2   7  16    0.75    1.32
   3   7  16    1.05    1.27
  -4  -8  16    1.48    1.30
   4   8 -16    0.60    1.06
   3  -8 -16   -0.38    0.77
   3  -8 -16    0.93    0.92
  -3  -8  16   -0.14    1.29
   3   8 -16   -0.11    1.01
  -3   8  16    0.59    1.33
  -2  -8  16    0.85    1.29
   2  -8 -16    0.81    0.89
  -2   8  16   -0.10    1.30
   2   8 -16    0.85    1.04
  -1  -8  16    2.63    1.35
   1  -8 -16    1.54    0.95
   1   8 -16    2.85    1.08
  -1   8  16    1.54    1.38
   0  -8  16    3.80    1.40
   0   8  16    5.42    1.49
   0   8 -16    3.76    1.13
   1  -8  16   -0.02    1.24
   1   8  16    2.25    1.34
   2  -8  16    0.63    1.26
   2   8  16    2.23    1.35
  -4  -9  16    2.33    1.34
   4   9 -16    1.90    1.12
  -3  -9  16    4.85    1.44
   3  -9 -16    2.12    1.02
   3   9 -16    7.47    1.31
  -2  -9  16    0.39    1.29
  -2   9  16    0.26    1.31
   2   9 -16    0.54    0.98
  -1  -9  16    9.70    1.73
   1   9 -16    9.66    1.54
   0  -9  16    0.96    1.25
   0   9  16    1.41    1.33
   0   9 -16    1.39    0.98
   1  -9  16    2.33    1.31
   1   9  16    1.43    1.31
   2   9  16    1.08    1.26
  -4 -10  16    2.48    1.34
  -3 -10  16    0.66    1.26
   3  10 -16    1.18    1.10
  -2 -10  16    2.00    1.34
   2  10 -16    2.27    1.12
  -2  10  16    0.84    1.35
  -1 -10  16    0.75    1.29
  -1  10  16    1.83    1.37
   1  10 -16    1.17    1.02
   0 -10  16    0.23    1.30
   0  10  16    0.20    1.29
   0  10 -16    1.41    1.02
   1  10  16   -0.19    1.14
   2  10  16    0.20    1.13
  -4 -11  16    1.51    1.31
  -3 -11  16    1.21    1.29
   3  11 -16    2.00    1.14
  -2 -11  16   -0.78    1.26
   2  11 -16    0.61    1.04
  -2  11  16   -0.82    1.30
  -1 -11  16    1.08    1.30
   1  11 -16    1.91    1.09
  -1  11  16    1.92    1.36
   0  11 -16   -0.22    0.99
   0  11  16    0.05    1.17
   1  11  16    0.41    1.17
  -4 -12  16   -0.79    1.22
  -3 -12  16   -0.35    1.24
   3  12 -16    0.36    1.09
  -2 -12  16    1.83    1.36
   2  12 -16    3.63    1.24
  -2  12  16    3.16    1.44
   1  12 -16    1.55    1.10
  -1  12  16    0.18    1.19
   0  12  16    2.60    1.36
   1  12  16    0.90    1.23
  -4 -13  16   -0.93    1.27
   2  13 -16    0.27    1.09
  -1  13  16    0.76    1.22
   1  13 -16    2.06    1.15
   0  13  16    0.57    1.20
   2  14 -16    1.16    1.15
  -1  14  16   -0.25    1.20
   0  14  16   -0.27    1.24
  -1  15  16    0.88    1.28
  -3   0  17   -1.38    1.26
   3   0 -17    0.05    0.96
   2   0 -17    0.16    0.97
  -2   0  17   -0.17    1.25
  -1   0  17   -0.16    1.29
   1   0 -17    1.90    1.04
   0   0 -17    0.05    0.93
   0   0  17   -0.33    1.26
   1   0  17    0.19    1.29
  -1   0 -17    0.52    0.96
  -3  -1  17   -0.07    1.29
   3  -1 -17    0.34    0.96
  -3   1  17   -0.92    1.22
   3   1 -17   -0.34    0.96
  -2  -1  17    0.73    1.34
   2  -1 -17    4.23    1.16
   2   1 -17    1.02    1.02
  -2   1  17    4.82    1.47
   1  -1 -17   12.21    1.53
   1  -1 -17   11.43    1.70
  -1   1  17    9.46    1.78
   0  -1 -17    0.46    0.93
   0  -1  17    0.81    1.29
   0   1  17    0.32    1.31
   0   1 -17    0.08    0.92
  -1  -1 -17    2.04    1.01
   1  -1  17   -0.37    1.26
   1   1  17    1.51    1.33
  -1   1 -17    1.98    1.00
  -3  -2  17    1.17    1.34
   3  -2 -17    0.59    0.97
  -3   2  17   -1.16    1.25
   3   2 -17    1.38    1.08
   2  -2 -17    1.03    1.01
  -2  -2  17   -1.14    1.28
   2   2 -17    0.06    1.00
  -2   2  17    0.26    1.27
   1  -2 -17    0.05    0.94
  -1  -2  17    0.37    1.31
   1   2 -17    0.60    1.01
  -1   2  17   -0.41    1.30
   0  -2  17   -0.49    1.23
   0  -2 -17    1.04    0.97
   0   2 -17   -0.22    0.95
   0   2  17   -0.03    1.28
   1  -2  17   -0.53    1.27
  -1  -2 -17    0.36    0.93
   1   2  17   -1.79    1.27
  -1   2 -17   -0.02    0.94
  -4  -3  17    0.57    1.32
   3  -3 -17   -0.04    0.95
  -3  -3  17    0.17    1.30
  -3   3  17    0.76    1.26
   3   3 -17    0.16    1.03
  -2  -3  17   -1.07    1.24
   2  -3 -17    0.00    0.92
   2   3 -17   -0.72    0.99
  -2   3  17   -0.45    1.30
   1  -3 -17    0.97    0.95
  -1  -3  17   -0.62    1.31
  -1   3  17   -0.30    1.30
   1   3 -17    0.99    1.07
   0  -3  17    1.33    1.35
   0  -3 -17    0.77    0.96
   0   3  17    0.69    1.37
   0   3 -17    3.70    1.17
  -1  -3 -17    2.49    1.04
   1   3  17    1.20    1.38
  -4  -4  17   -0.74    1.33
  -3  -4  17   -0.20    1.29
   3   4 -17    0.46    1.05
  -3   4  17    0.50    1.30
   2  -4 -17    0.69    1.00
   2  -4 -17   -0.46    0.71
  -2  -4  17   -0.14    1.27
   2   4 -17    0.50    1.03
  -2   4  17    1.22    1.35
  -1  -4  17   -1.32    1.26
   1  -4 -17    0.98    0.99
   1   4 -17    0.59    1.00
  -1   4  17    0.04    1.34
   0  -4 -17    0.02    0.96
   0  -4  17    0.77    1.36
   0   4 -17    0.95    1.01
   0   4  17    0.05    1.39
  -1  -4 -17    0.85    0.95
   1   4  17   -0.25    1.34
  -4  -5  17    1.59    1.36
  -3  -5  17    1.74    1.42
   3   5 -17    2.25    1.15
  -3   5  17    4.09    1.42
  -2  -5  17    5.62    1.55
   2  -5 -17    4.21    1.20
   2   5 -17    5.94    1.31
  -2   5  17    3.80    1.49
  -1  -5  17   -1.06    1.28
   1  -5 -17   -0.04    0.99
  -1   5  17    0.62    1.39
   1   5 -17   -0.14    0.97
   0  -5 -17   -0.29    0.93
   0  -5  17   -0.31    1.29
   0   5 -17    0.40    0.96
   0   5  17   -0.73    1.33
  -1  -5 -17    3.68    1.15
   1   5  17    5.34    1.56
  -4  -6  17    0.08    1.36
  -3  -6  17    2.83    1.46
   3   6 -17    4.36    1.23
   2  -6 -17    1.68    1.07
  -2  -6  17    0.80    1.38
   2   6 -17    0.22    1.02
  -2   6  17    1.91    1.42
   1  -6 -17    0.37    1.00
  -1  -6  17    1.12    1.39
   1   6 -17    0.86    1.05
  -1   6  17    0.24    1.34
   0  -6 -17    0.27    0.99
   0   6  17   -1.55    1.31
   0   6 -17    0.16    0.99
  -1  -6 -17    0.45    0.98
  -4  -7  17    0.12    1.38
  -3  -7  17    0.06    1.39
  -2  -7  17    0.28    1.34
   2   7 -17    0.53    1.00
  -2   7  17    1.13    1.39
  -1  -7  17    0.77    1.39
   1  -7 -17    1.92    1.03
   1   7 -17    2.34    1.10
  -1   7  17    2.12    1.44
   0  -7 -17    0.42    0.99
   0   7  17    0.71    1.33
   0   7 -17    0.45    0.99
  -1  -7 -17    1.01    1.01
  -4  -8  17   -0.19    1.31
  -3  -8  17    1.64    1.42
  -2  -8  17    1.22    1.42
  -2   8  17   -0.05    1.40
   2   8 -17    1.61    1.11
   1  -8 -17    3.00    1.10
  -1   8  17    3.38    1.50
   1   8 -17    5.58    1.27
   0  -8 -17    1.01    0.96
   0   8  17    1.15    1.35
  -1  -8 -17    0.09    0.90
  -4  -9  17    3.28    1.46
  -2   9  17   -0.08    1.39
   2   9 -17   -0.03    1.05
   1   9 -17    0.71    1.02
  -1   9  17    0.75    1.38
   0  -9 -17    0.04    0.89
  -1  -9 -17    0.23    0.89
   1  10 -17    4.37    1.25
  -1  10  17    2.42    1.47
  -3   0  18   -0.83    1.37
   0   0 -18    0.63    0.98
  -3  -1  18   -1.18    1.31
   1   1 -18    1.09    1.02
   0  -1 -18    2.25    1.07
   0   1 -18    1.44    1.04
   1   2 -18    2.13    1.14
   0  -2 -18    1.32    1.03
   0   2 -18    1.86    1.12
   1   3 -18    0.62    1.05
   0  -3 -18    1.67    1.05
   0   0   0    0.00    0.00
;
_shelx_hkl_checksum              51756
loop_
_space_group_symop_operation_xyz
'x, y, z'
'-x, y+1/2, -z+1/2'
'-x, -y, -z'
'x, -y-1/2, z-1/2'
loop_
_atom_site_label
_atom_site_type_symbol
_atom_site_fract_x
_atom_site_fract_y
_atom_site_fract_z
_atom_site_U_iso_or_equiv
_atom_site_adp_type
_atom_site_occupancy
_atom_site_site_symmetry_order
_atom_site_calc_flag
_atom_site_refinement_flags_posn
_atom_site_refinement_flags_adp
_atom_site_refinement_flags_occupancy
_atom_site_disorder_assembly
_atom_site_disorder_group
Co Co 0.72782(8) 0.01280(4) 0.37303(7) 0.0269(2) Uani 1 1 d . . . . .
S1 S 0.30848(19) 0.22302(10) 0.28450(18) 0.0483(5) Uani 1 1 d . . . . .
O1A O 0.2235(4) 0.0512(2) 0.5210(3) 0.0288(10) Uani 1 1 d . . . . .
O2A O 0.5671(4) 0.0371(2) 0.3060(3) 0.0330(11) Uani 1 1 d . . . . .
N1A N 0.4456(5) 0.1229(3) 0.3063(4) 0.0314(13) Uani 1 1 d . . . . .
N3A N 0.2702(5) 0.1282(2) 0.4104(4) 0.0270(12) Uani 1 1 d . . . . .
C2A C 0.3430(6) 0.1558(3) 0.3364(5) 0.0312(15) Uani 1 1 d . . . . .
C4A C 0.2956(6) 0.0708(3) 0.4516(5) 0.0235(13) Uani 1 1 d . . . . .
C5A C 0.3962(6) 0.0389(3) 0.4140(5) 0.0274(14) Uani 1 1 d . . . . .
H5A H 0.4121 -0.0012 0.4387 0.033 Uiso 1 1 calc R U . . .
C6A C 0.4728(6) 0.0637(3) 0.3428(5) 0.0298(14) Uani 1 1 d . . . . .
C7A C 0.5345(6) 0.1504(4) 0.2335(6) 0.0406(18) Uani 1 1 d . . . . .
H7A1 H 0.6200 0.1360 0.2520 0.049 Uiso 1 1 calc R U . . .
H7A2 H 0.5335 0.1952 0.2414 0.049 Uiso 1 1 calc R U . . .
C8A C 0.5010(8) 0.1338(4) 0.1195(6) 0.056(2) Uani 1 1 d . . . . .
H8A1 H 0.5042 0.0896 0.1110 0.084 Uiso 1 1 calc R U . . .
H8A2 H 0.5607 0.1529 0.0732 0.084 Uiso 1 1 calc R U . . .
H8A3 H 0.4166 0.1484 0.1008 0.084 Uiso 1 1 calc R U . . .
C9A C 0.1652(6) 0.1633(3) 0.4529(6) 0.0327(15) Uani 1 1 d . . . . .
H9A1 H 0.1014 0.1346 0.4775 0.039 Uiso 1 1 calc R U . . .
H9A2 H 0.1261 0.1883 0.3959 0.039 Uiso 1 1 calc R U . . .
C10A C 0.2068(8) 0.2039(3) 0.5421(6) 0.0454(19) Uani 1 1 d . . . . .
H10A H 0.2419 0.1791 0.6000 0.068 Uiso 1 1 calc R U . . .
H10B H 0.1352 0.2270 0.5664 0.068 Uiso 1 1 calc R U . . .
H10C H 0.2705 0.2321 0.5182 0.068 Uiso 1 1 calc R U . . .
S2 S 0.81830(19) 0.27414(8) 0.66874(18) 0.0463(5) Uani 1 1 d . . . . .
O1B O 0.7260(4) 0.0904(2) 0.4584(4) 0.0318(10) Uani 1 1 d . . . . .
O2B O 1.0332(4) 0.0780(2) 0.7337(4) 0.0405(12) Uani 1 1 d . . . . .
N1B N 0.9336(5) 0.1674(2) 0.6931(4) 0.0273(12) Uani 1 1 d . . . . .
N3B N 0.7810(5) 0.1728(2) 0.5558(4) 0.0290(12) Uani 1 1 d . . . . .
C2B C 0.8456(6) 0.2014(3) 0.6371(5) 0.0299(14) Uani 1 1 d . . . . .
C4B C 0.7957(6) 0.1103(3) 0.5333(5) 0.0271(14) Uani 1 1 d . . . . .
C5B C 0.8837(6) 0.0783(3) 0.5925(5) 0.0285(14) Uani 1 1 d . . . . .
H5B H 0.8973 0.0366 0.5769 0.034 Uiso 1 1 calc R U . . .
C6B C 0.9529(6) 0.1051(3) 0.6741(5) 0.0286(14) Uani 1 1 d . . . . .
C7B C 1.0119(6) 0.1954(3) 0.7785(6) 0.0348(16) Uani 1 1 d . . . . .
H7B1 H 1.0230 0.2392 0.7632 0.042 Uiso 1 1 calc R U . . .
H7B2 H 1.0953 0.1761 0.7808 0.042 Uiso 1 1 calc R U . . .
C8B C 0.9552(9) 0.1887(5) 0.8837(6) 0.061(3) Uani 1 1 d . . . . .
H8B1 H 0.8761 0.2110 0.8839 0.092 Uiso 1 1 calc R U . . .
H8B2 H 1.0126 0.2051 0.9384 0.092 Uiso 1 1 calc R U . . .
H8B3 H 0.9399 0.1455 0.8976 0.092 Uiso 1 1 calc R U . . .
C9B C 0.6894(7) 0.2071(3) 0.4901(6) 0.0379(17) Uani 1 1 d . . . . .
H9B1 H 0.6894 0.1914 0.4172 0.046 Uiso 1 1 calc R U . . .
H9B2 H 0.7146 0.2504 0.4885 0.046 Uiso 1 1 calc R U . . .
C10B C 0.5587(7) 0.2025(3) 0.5305(7) 0.0442(19) Uani 1 1 d . . . . .
H10D H 0.5315 0.1599 0.5287 0.066 Uiso 1 1 calc R U . . .
H10E H 0.5015 0.2270 0.4860 0.066 Uiso 1 1 calc R U . . .
H10F H 0.5584 0.2176 0.6030 0.066 Uiso 1 1 calc R U . . .
O1C O 0.8870(5) 0.0300(2) 0.2999(5) 0.0470(14) Uani 1 1 d . . . . .
H1C H 0.929(8) -0.006(4) 0.294(7) 0.056 Uiso 1 1 d . U . . .
O1D O 0.7144(5) -0.0647(3) 0.2705(5) 0.0516(16) Uani 1 1 d . . . . .
H1D H 0.787(9) -0.080(4) 0.265(7) 0.062 Uiso 1 1 d . U . . .
C2D1 C 0.6259(13) -0.0859(7) 0.1888(11) 0.037(3) Uani 0.5 1 d D U P A 1
H2D1 H 0.6646 -0.1158 0.1419 0.044 Uiso 0.5 1 calc R U P A 1
H2D2 H 0.5918 -0.0516 0.1461 0.044 Uiso 0.5 1 calc R U P A 1
C3D1 C 0.5247(15) -0.1154(9) 0.2539(12) 0.059(3) Uani 0.5 1 d D U P A 1
H3D1 H 0.5593 -0.1515 0.2913 0.071 Uiso 0.5 1 calc R U P A 1
H3D2 H 0.4956 -0.0862 0.3068 0.071 Uiso 0.5 1 calc R U P A 1
C4D1 C 0.4155(19) -0.1344(9) 0.1800(19) 0.075(5) Uani 0.5 1 d D U P A 1
H4D1 H 0.3621 -0.1640 0.2160 0.090 Uiso 0.5 1 calc R U P A 1
H4D2 H 0.4477 -0.1542 0.1167 0.090 Uiso 0.5 1 calc R U P A 1
C5D1 C 0.3379(18) -0.0780(9) 0.1475(18) 0.072(4) Uani 0.5 1 d D U P A 1
H5D1 H 0.3288 -0.0515 0.2087 0.108 Uiso 0.5 1 calc R U P A 1
H5D2 H 0.2552 -0.0908 0.1204 0.108 Uiso 0.5 1 calc R U P A 1
H5D3 H 0.3804 -0.0557 0.0926 0.108 Uiso 0.5 1 calc R U P A 1
C2C1 C 0.9696(18) 0.0808(12) 0.2958(16) 0.049(4) Uani 0.5 1 d D U P B 1
H2C1 H 1.0432 0.0735 0.3434 0.059 Uiso 0.5 1 calc R U P B 1
H2C2 H 0.9265 0.1177 0.3204 0.059 Uiso 0.5 1 calc R U P B 1
C4C1 C 1.116(2) 0.0446(11) 0.1622(18) 0.087(5) Uani 0.5 1 d D U P B 1
H4C1 H 1.1787 0.0462 0.2216 0.105 Uiso 0.5 1 calc R U P B 1
H4C2 H 1.0787 0.0034 0.1616 0.105 Uiso 0.5 1 calc R U P B 1
C5C1 C 1.184(3) 0.0534(17) 0.060(2) 0.105(8) Uani 0.5 1 d D U P B 1
H5C1 H 1.1250 0.0479 0.0001 0.157 Uiso 0.5 1 calc R U P B 1
H5C2 H 1.2513 0.0234 0.0562 0.157 Uiso 0.5 1 calc R U P B 1
H5C3 H 1.2193 0.0945 0.0583 0.157 Uiso 0.5 1 calc R U P B 1
C3C1 C 1.013(2) 0.0914(12) 0.1825(15) 0.060(5) Uani 0.5 1 d D U P B 1
H3C1 H 0.9423 0.0859 0.1311 0.072 Uiso 0.5 1 calc R U P B 1
H3C2 H 1.0458 0.1332 0.1753 0.072 Uiso 0.5 1 calc R U P B 1
C4C2 C 1.036(2) 0.0542(12) 0.1083(16) 0.087(5) Uani 0.5 1 d D . P B 2
H4C3 H 0.9550 0.0641 0.0720 0.105 Uiso 0.5 1 calc R U P B 2
H4C4 H 1.0376 0.0098 0.1219 0.105 Uiso 0.5 1 calc R U P B 2
C5C2 C 1.143(3) 0.0715(16) 0.038(3) 0.105(8) Uani 0.5 1 d D . P B 2
H5C4 H 1.1273 0.1118 0.0074 0.157 Uiso 0.5 1 calc R U P B 2
H5C5 H 1.1494 0.0415 -0.0185 0.157 Uiso 0.5 1 calc R U P B 2
H5C6 H 1.2217 0.0723 0.0801 0.157 Uiso 0.5 1 calc R U P B 2
C2C2 C 0.9247(16) 0.0851(12) 0.2713(18) 0.049(4) Uani 0.5 1 d D . P B 2
H2C3 H 0.9338 0.1105 0.3353 0.059 Uiso 0.5 1 calc R U P B 2
H2C4 H 0.8578 0.1034 0.2258 0.059 Uiso 0.5 1 calc R U P B 2
C3C2 C 1.0473(18) 0.0886(13) 0.2129(16) 0.060(5) Uani 0.5 1 d D . P B 2
H3C3 H 1.0679 0.1318 0.1994 0.072 Uiso 0.5 1 calc R U P B 2
H3C4 H 1.1159 0.0709 0.2573 0.072 Uiso 0.5 1 calc R U P B 2
C2D2 C 0.6743(11) -0.0582(7) 0.1691(12) 0.037(3) Uani 0.5 1 d D . P A 2
H2D3 H 0.7179 -0.0884 0.1260 0.044 Uiso 0.5 1 calc R U P A 2
H2D4 H 0.6984 -0.0173 0.1446 0.044 Uiso 0.5 1 calc R U P A 2
C3D2 C 0.5344(12) -0.0660(7) 0.1495(14) 0.059(3) Uani 0.5 1 d D . P A 2
H3D3 H 0.5117 -0.0605 0.0740 0.071 Uiso 0.5 1 calc R U P A 2
H3D4 H 0.4882 -0.0356 0.1904 0.071 Uiso 0.5 1 calc R U P A 2
C4D2 C 0.5024(14) -0.1309(7) 0.1851(19) 0.075(5) Uani 0.5 1 d D . P A 2
H4D3 H 0.5417 -0.1616 0.1401 0.090 Uiso 0.5 1 calc R U P A 2
H4D4 H 0.5303 -0.1378 0.2592 0.090 Uiso 0.5 1 calc R U P A 2
C5D2 C 0.3592(15) -0.1334(10) 0.172(2) 0.072(4) Uani 0.5 1 d D . P A 2
H5D4 H 0.3222 -0.1092 0.2279 0.108 Uiso 0.5 1 calc R U P A 2
H5D5 H 0.3312 -0.1757 0.1773 0.108 Uiso 0.5 1 calc R U P A 2
H5D6 H 0.3328 -0.1168 0.1034 0.108 Uiso 0.5 1 calc R U P A 2
loop_
_atom_site_aniso_label
_atom_site_aniso_U_11
_atom_site_aniso_U_22
_atom_site_aniso_U_33
_atom_site_aniso_U_23
_atom_site_aniso_U_13
_atom_site_aniso_U_12
Co 0.0218(4) 0.0235(4) 0.0352(5) 0.0042(4) 0.0004(3) -0.0006(3)
S1 0.0409(11) 0.0438(11) 0.0606(13) 0.0290(10) 0.0071(9) 0.0102(9)
O1A 0.029(2) 0.026(2) 0.032(2) 0.0085(19) 0.0043(19) 0.0029(19)
O2A 0.025(2) 0.045(3) 0.029(2) 0.000(2) 0.0031(19) 0.009(2)
N1A 0.025(3) 0.042(3) 0.028(3) 0.008(3) 0.001(2) 0.002(2)
N3A 0.022(3) 0.031(3) 0.028(3) 0.005(2) 0.001(2) 0.005(2)
C2A 0.024(3) 0.033(4) 0.037(4) 0.009(3) -0.005(3) 0.000(3)
C4A 0.026(3) 0.016(3) 0.028(3) 0.002(2) 0.000(3) 0.000(2)
C5A 0.022(3) 0.026(3) 0.033(3) 0.003(3) -0.001(3) 0.003(3)
C6A 0.026(3) 0.036(4) 0.027(3) 0.000(3) -0.005(3) 0.000(3)
C7A 0.030(4) 0.052(5) 0.041(4) 0.016(4) 0.009(3) 0.000(3)
C8A 0.059(5) 0.069(6) 0.041(5) 0.017(4) 0.010(4) -0.004(5)
C9A 0.028(3) 0.028(4) 0.043(4) 0.003(3) 0.004(3) 0.010(3)
C10A 0.051(5) 0.036(4) 0.049(5) -0.001(4) 0.006(4) 0.015(4)
S2 0.0458(11) 0.0211(9) 0.0713(14) -0.0141(9) -0.0039(10) 0.0037(8)
O1B 0.031(2) 0.023(2) 0.042(3) -0.003(2) -0.004(2) 0.0016(19)
O2B 0.033(3) 0.035(3) 0.054(3) -0.013(2) -0.011(2) 0.011(2)
N1B 0.024(3) 0.022(3) 0.036(3) -0.011(2) 0.002(2) 0.000(2)
N3B 0.024(3) 0.022(3) 0.041(3) 0.002(2) 0.004(2) 0.000(2)
C2B 0.026(3) 0.024(3) 0.040(4) -0.010(3) 0.008(3) -0.001(3)
C4B 0.027(3) 0.023(3) 0.032(3) -0.001(3) 0.007(3) 0.000(3)
C5B 0.027(3) 0.019(3) 0.039(4) -0.009(3) 0.003(3) 0.005(3)
C6B 0.023(3) 0.024(3) 0.038(4) 0.000(3) 0.004(3) -0.001(3)
C7B 0.032(4) 0.025(3) 0.048(4) -0.011(3) -0.003(3) -0.003(3)
C8B 0.067(6) 0.080(7) 0.038(5) -0.021(5) 0.006(4) -0.015(5)
C9B 0.042(4) 0.024(3) 0.047(4) 0.001(3) -0.007(3) 0.003(3)
C10B 0.033(4) 0.031(4) 0.068(5) -0.006(4) -0.009(4) -0.004(3)
O1C 0.038(3) 0.023(3) 0.082(4) 0.007(3) 0.025(3) 0.003(2)
O1D 0.040(3) 0.043(3) 0.070(4) -0.019(3) -0.022(3) 0.007(3)
C2D1 0.036(6) 0.037(6) 0.037(5) -0.007(5) 0.005(4) 0.003(4)
C3D1 0.068(7) 0.068(7) 0.041(6) -0.003(5) -0.004(5) -0.007(6)
C4D1 0.060(8) 0.083(8) 0.082(8) 0.008(7) 0.004(8) 0.003(8)
C5D1 0.065(7) 0.080(8) 0.071(7) 0.004(7) 0.005(6) -0.007(7)
C2C1 0.039(9) 0.042(5) 0.067(8) 0.002(6) 0.012(7) -0.007(7)
C4C1 0.092(9) 0.092(8) 0.079(8) -0.001(7) 0.012(7) -0.015(8)
C5C1 0.094(11) 0.119(12) 0.105(10) -0.005(8) 0.042(8) 0.010(8)
C3C1 0.049(8) 0.061(6) 0.072(9) -0.001(7) 0.017(7) -0.013(6)
C4C2 0.092(9) 0.092(8) 0.079(8) -0.001(7) 0.012(7) -0.015(8)
C5C2 0.094(11) 0.119(12) 0.105(10) -0.005(8) 0.042(8) 0.010(8)
C2C2 0.039(9) 0.042(5) 0.067(8) 0.002(6) 0.012(7) -0.007(7)
C3C2 0.049(8) 0.061(6) 0.072(9) -0.001(7) 0.017(7) -0.013(6)
C2D2 0.036(6) 0.037(6) 0.037(5) -0.007(5) 0.005(4) 0.003(4)
C3D2 0.068(7) 0.068(7) 0.041(6) -0.003(5) -0.004(5) -0.007(6)
C4D2 0.060(8) 0.083(8) 0.082(8) 0.008(7) 0.004(8) 0.003(8)
C5D2 0.065(7) 0.080(8) 0.071(7) 0.004(7) 0.005(6) -0.007(7)
loop_
_atom_type_symbol
_atom_type_description
_atom_type_scat_dispersion_real
_atom_type_scat_dispersion_imag
_atom_type_scat_source
C C 0.0033 0.0016 'International Tables Vol C Tables 4.2.6.8 and 6.1.1.4'
Co Co 0.3494 0.9721 'International Tables Vol C Tables 4.2.6.8 and 6.1.1.4'
O O 0.0106 0.0060 'International Tables Vol C Tables 4.2.6.8 and 6.1.1.4'
S S 0.1246 0.1234 'International Tables Vol C Tables 4.2.6.8 and 6.1.1.4'
N N 0.0061 0.0033 'International Tables Vol C Tables 4.2.6.8 and 6.1.1.4'
H H 0.0000 0.0000 'International Tables Vol C Tables 4.2.6.8 and 6.1.1.4'
loop_
_geom_angle_atom_site_label_1
_geom_angle_atom_site_label_2
_geom_angle_atom_site_label_3
_geom_angle
_geom_angle_site_symmetry_1
_geom_angle_site_symmetry_3
O2A Co O1A 133.15(19) . 3_656
O2A Co O1C 119.6(2) . .
O1A Co O1C 103.9(2) 3_656 .
O2A Co O1B 88.69(19) . .
O1A Co O1B 103.77(19) 3_656 .
O1C Co O1B 96.6(2) . .
O2A Co O1D 85.2(2) . .
O1A Co O1D 82.0(2) 3_656 .
O1C Co O1D 84.6(2) . .
O1B Co O1D 173.5(2) . .
C4A O1A Co 123.8(4) . 3_656
C6A O2A Co 131.4(4) . .
C2A N1A C6A 123.3(6) . .
C2A N1A C7A 119.8(6) . .
C6A N1A C7A 116.9(6) . .
C2A N3A C4A 123.1(5) . .
C2A N3A C9A 118.4(5) . .
C4A N3A C9A 118.4(5) . .
N1A C2A N3A 115.7(6) . .
N1A C2A S1 121.7(5) . .
N3A C2A S1 122.6(5) . .
O1A C4A C5A 124.8(6) . .
O1A C4A N3A 117.0(5) . .
C5A C4A N3A 118.2(6) . .
C6A C5A C4A 121.7(6) . .
C6A C5A H5A 119.2 . .
C4A C5A H5A 119.2 . .
O2A C6A C5A 124.7(6) . .
O2A C6A N1A 117.4(6) . .
C5A C6A N1A 117.9(6) . .
N1A C7A C8A 111.3(6) . .
N1A C7A H7A1 109.4 . .
C8A C7A H7A1 109.4 . .
N1A C7A H7A2 109.4 . .
C8A C7A H7A2 109.4 . .
H7A1 C7A H7A2 108.0 . .
C7A C8A H8A1 109.5 . .
C7A C8A H8A2 109.5 . .
H8A1 C8A H8A2 109.5 . .
C7A C8A H8A3 109.5 . .
H8A1 C8A H8A3 109.5 . .
H8A2 C8A H8A3 109.5 . .
N3A C9A C10A 112.2(6) . .
N3A C9A H9A1 109.2 . .
C10A C9A H9A1 109.2 . .
N3A C9A H9A2 109.2 . .
C10A C9A H9A2 109.2 . .
H9A1 C9A H9A2 107.9 . .
C9A C10A H10A 109.5 . .
C9A C10A H10B 109.5 . .
H10A C10A H10B 109.5 . .
C9A C10A H10C 109.5 . .
H10A C10A H10C 109.5 . .
H10B C10A H10C 109.5 . .
C4B O1B Co 132.7(4) . .
C2B N1B C6B 122.7(5) . .
C2B N1B C7B 120.7(5) . .
C6B N1B C7B 116.6(5) . .
C2B N3B C4B 122.7(6) . .
C2B N3B C9B 119.8(5) . .
C4B N3B C9B 117.4(6) . .
N3B C2B N1B 117.0(5) . .
N3B C2B S2 122.0(5) . .
N1B C2B S2 121.0(5) . .
O1B C4B C5B 127.3(6) . .
O1B C4B N3B 114.9(6) . .
C5B C4B N3B 117.7(6) . .
C4B C5B C6B 121.9(6) . .
C4B C5B H5B 119.0 . .
C6B C5B H5B 119.0 . .
O2B C6B C5B 125.3(6) . .
O2B C6B N1B 117.0(6) . .
C5B C6B N1B 117.7(6) . .
N1B C7B C8B 112.1(6) . .
N1B C7B H7B1 109.2 . .
C8B C7B H7B1 109.2 . .
N1B C7B H7B2 109.2 . .
C8B C7B H7B2 109.2 . .
H7B1 C7B H7B2 107.9 . .
C7B C8B H8B1 109.5 . .
C7B C8B H8B2 109.5 . .
H8B1 C8B H8B2 109.5 . .
C7B C8B H8B3 109.5 . .
H8B1 C8B H8B3 109.5 . .
H8B2 C8B H8B3 109.5 . .
N3B C9B C10B 112.2(6) . .
N3B C9B H9B1 109.2 . .
C10B C9B H9B1 109.2 . .
N3B C9B H9B2 109.2 . .
C10B C9B H9B2 109.2 . .
H9B1 C9B H9B2 107.9 . .
C9B C10B H10D 109.5 . .
C9B C10B H10E 109.5 . .
H10D C10B H10E 109.5 . .
C9B C10B H10F 109.5 . .
H10D C10B H10F 109.5 . .
H10E C10B H10F 109.5 . .
C2C2 O1C Co 124.7(9) . .
C2C1 O1C Co 134.7(10) . .
C2C2 O1C H1C 127(5) . .
C2C1 O1C H1C 111(5) . .
Co O1C H1C 108(5) . .
C2D2 O1D Co 120.5(7) . .
C2D1 O1D Co 135.5(7) . .
C2D2 O1D H1D 103(6) . .
C2D1 O1D H1D 113(6) . .
Co O1D H1D 108(6) . .
O1D C2D1 C3D1 101.8(11) . .
O1D C2D1 H2D1 111.4 . .
C3D1 C2D1 H2D1 111.4 . .
O1D C2D1 H2D2 111.4 . .
C3D1 C2D1 H2D2 111.4 . .
H2D1 C2D1 H2D2 109.3 . .
C4D1 C3D1 C2D1 108.9(15) . .
C4D1 C3D1 H3D1 109.9 . .
C2D1 C3D1 H3D1 109.9 . .
C4D1 C3D1 H3D2 109.9 . .
C2D1 C3D1 H3D2 109.9 . .
H3D1 C3D1 H3D2 108.3 . .
C3D1 C4D1 C5D1 109.8(17) . .
C3D1 C4D1 H4D1 109.7 . .
C5D1 C4D1 H4D1 109.7 . .
C3D1 C4D1 H4D2 109.7 . .
C5D1 C4D1 H4D2 109.7 . .
H4D1 C4D1 H4D2 108.2 . .
C4D1 C5D1 H5D1 109.5 . .
C4D1 C5D1 H5D2 109.5 . .
H5D1 C5D1 H5D2 109.5 . .
C4D1 C5D1 H5D3 109.5 . .
H5D1 C5D1 H5D3 109.5 . .
H5D2 C5D1 H5D3 109.5 . .
O1C C2C1 C3C1 111.2(19) . .
O1C C2C1 H2C1 109.4 . .
C3C1 C2C1 H2C1 109.4 . .
O1C C2C1 H2C2 109.4 . .
C3C1 C2C1 H2C2 109.4 . .
H2C1 C2C1 H2C2 108.0 . .
C5C1 C4C1 C3C1 115(2) . .
C5C1 C4C1 H4C1 108.4 . .
C3C1 C4C1 H4C1 108.4 . .
C5C1 C4C1 H4C2 108.4 . .
C3C1 C4C1 H4C2 108.4 . .
H4C1 C4C1 H4C2 107.5 . .
C4C1 C5C1 H5C1 109.5 . .
C4C1 C5C1 H5C2 109.5 . .
H5C1 C5C1 H5C2 109.5 . .
C4C1 C5C1 H5C3 109.5 . .
H5C1 C5C1 H5C3 109.5 . .
H5C2 C5C1 H5C3 109.5 . .
C4C1 C3C1 C2C1 107.5(17) . .
C4C1 C3C1 H3C1 110.2 . .
C2C1 C3C1 H3C1 110.2 . .
C4C1 C3C1 H3C2 110.2 . .
C2C1 C3C1 H3C2 110.2 . .
H3C1 C3C1 H3C2 108.5 . .
C3C2 C4C2 C5C2 110(2) . .
C3C2 C4C2 H4C3 109.6 . .
C5C2 C4C2 H4C3 109.6 . .
C3C2 C4C2 H4C4 109.6 . .
C5C2 C4C2 H4C4 109.6 . .
H4C3 C4C2 H4C4 108.1 . .
C4C2 C5C2 H5C4 109.5 . .
C4C2 C5C2 H5C5 109.5 . .
H5C4 C5C2 H5C5 109.5 . .
C4C2 C5C2 H5C6 109.5 . .
H5C4 C5C2 H5C6 109.5 . .
H5C5 C5C2 H5C6 109.5 . .
O1C C2C2 C3C2 117(2) . .
O1C C2C2 H2C3 108.1 . .
C3C2 C2C2 H2C3 108.1 . .
O1C C2C2 H2C4 108.1 . .
C3C2 C2C2 H2C4 108.1 . .
H2C3 C2C2 H2C4 107.3 . .
C4C2 C3C2 C2C2 110.7(18) . .
C4C2 C3C2 H3C3 109.5 . .
C2C2 C3C2 H3C3 109.5 . .
C4C2 C3C2 H3C4 109.5 . .
C2C2 C3C2 H3C4 109.5 . .
H3C3 C3C2 H3C4 108.1 . .
O1D C2D2 C3D2 114.8(11) . .
O1D C2D2 H2D3 108.6 . .
C3D2 C2D2 H2D3 108.6 . .
O1D C2D2 H2D4 108.6 . .
C3D2 C2D2 H2D4 108.6 . .
H2D3 C2D2 H2D4 107.5 . .
C2D2 C3D2 C4D2 106.6(10) . .
C2D2 C3D2 H3D3 110.4 . .
C4D2 C3D2 H3D3 110.4 . .
C2D2 C3D2 H3D4 110.4 . .
C4D2 C3D2 H3D4 110.4 . .
H3D3 C3D2 H3D4 108.6 . .
C5D2 C4D2 C3D2 103.6(11) . .
C5D2 C4D2 H4D3 111.0 . .
C3D2 C4D2 H4D3 111.0 . .
C5D2 C4D2 H4D4 111.0 . .
C3D2 C4D2 H4D4 111.0 . .
H4D3 C4D2 H4D4 109.0 . .
C4D2 C5D2 H5D4 109.5 . .
C4D2 C5D2 H5D5 109.5 . .
H5D4 C5D2 H5D5 109.5 . .
C4D2 C5D2 H5D6 109.5 . .
H5D4 C5D2 H5D6 109.5 . .
H5D5 C5D2 H5D6 109.5 . .
loop_
_geom_bond_atom_site_label_1
_geom_bond_atom_site_label_2
_geom_bond_distance
_geom_bond_site_symmetry_2
Co O2A 1.967(4) .
Co O1A 2.004(4) 3_656
Co O1C 2.010(5) .
Co O1B 2.022(5) .
Co O1D 2.148(6) .
S1 C2A 1.654(7) .
O1A C4A 1.271(7) .
O1A Co 2.004(4) 3_656
O2A C6A 1.272(8) .
N1A C2A 1.382(9) .
N1A C6A 1.409(9) .
N1A C7A 1.483(8) .
N3A C2A 1.386(8) .
N3A C4A 1.391(8) .
N3A C9A 1.482(8) .
C4A C5A 1.386(8) .
C5A C6A 1.359(9) .
C5A H5A 0.9500 .
C7A C8A 1.526(11) .
C7A H7A1 0.9900 .
C7A H7A2 0.9900 .
C8A H8A1 0.9800 .
C8A H8A2 0.9800 .
C8A H8A3 0.9800 .
C9A C10A 1.499(10) .
C9A H9A1 0.9900 .
C9A H9A2 0.9900 .
C10A H10A 0.9800 .
C10A H10B 0.9800 .
C10A H10C 0.9800 .
S2 C2B 1.677(6) .
O1B C4B 1.266(8) .
O2B C6B 1.273(8) .
N1B C2B 1.380(9) .
N1B C6B 1.408(8) .
N1B C7B 1.481(8) .
N3B C2B 1.376(9) .
N3B C4B 1.413(8) .
N3B C9B 1.473(9) .
C4B C5B 1.377(9) .
C5B C6B 1.385(9) .
C5B H5B 0.9500 .
C7B C8B 1.498(11) .
C7B H7B1 0.9900 .
C7B H7B2 0.9900 .
C8B H8B1 0.9800 .
C8B H8B2 0.9800 .
C8B H8B3 0.9800 .
C9B C10B 1.514(10) .
C9B H9B1 0.9900 .
C9B H9B2 0.9900 .
C10B H10D 0.9800 .
C10B H10E 0.9800 .
C10B H10F 0.9800 .
O1C C2C2 1.33(3) .
O1C C2C1 1.43(2) .
O1C H1C 0.92(9) .
O1D C2D2 1.352(15) .
O1D C2D1 1.456(16) .
O1D H1D 0.85(9) .
C2D1 C3D1 1.533(9) .
C2D1 H2D1 0.9900 .
C2D1 H2D2 0.9900 .
C3D1 C4D1 1.531(10) .
C3D1 H3D1 0.9900 .
C3D1 H3D2 0.9900 .
C4D1 C5D1 1.541(10) .
C4D1 H4D1 0.9900 .
C4D1 H4D2 0.9900 .
C5D1 H5D1 0.9800 .
C5D1 H5D2 0.9800 .
C5D1 H5D3 0.9800 .
C2C1 C3C1 1.549(10) .
C2C1 H2C1 0.9900 .
C2C1 H2C2 0.9900 .
C4C1 C5C1 1.524(10) .
C4C1 C3C1 1.540(10) .
C4C1 H4C1 0.9900 .
C4C1 H4C2 0.9900 .
C5C1 H5C1 0.9800 .
C5C1 H5C2 0.9800 .
C5C1 H5C3 0.9800 .
C3C1 H3C1 0.9900 .
C3C1 H3C2 0.9900 .
C4C2 C3C2 1.532(10) .
C4C2 C5C2 1.534(10) .
C4C2 H4C3 0.9900 .
C4C2 H4C4 0.9900 .
C5C2 H5C4 0.9800 .
C5C2 H5C5 0.9800 .
C5C2 H5C6 0.9800 .
C2C2 C3C2 1.536(10) .
C2C2 H2C3 0.9900 .
C2C2 H2C4 0.9900 .
C3C2 H3C3 0.9900 .
C3C2 H3C4 0.9900 .
C2D2 C3D2 1.520(9) .
C2D2 H2D3 0.9900 .
C2D2 H2D4 0.9900 .
C3D2 C4D2 1.539(10) .
C3D2 H3D3 0.9900 .
C3D2 H3D4 0.9900 .
C4D2 C5D2 1.539(10) .
C4D2 H4D3 0.9900 .
C4D2 H4D4 0.9900 .
C5D2 H5D4 0.9800 .
C5D2 H5D5 0.9800 .
C5D2 H5D6 0.9800 .
