#------------------------------------------------------------------------------
#$Date: 2017-06-05 03:48:34 +0300 (Mon, 05 Jun 2017) $
#$Revision: 197498 $
#$URL: file:///home/coder/svn-repositories/cod/cif/1/54/58/1545891.cif $
#------------------------------------------------------------------------------
#
# This file is available in the Crystallography Open Database (COD),
# http://www.crystallography.net/
#
# All data on this site have been placed in the public domain by the
# contributors.
#
data_1545891
loop_
_publ_author_name
'Saputra, Mirza A.'
'Dange, Nitin S.'
'Cleveland, Alexander H.'
'Malone, Joshua A.'
'Fronczek, Frank R.'
'Kartika, Rendy'
_publ_section_title
;
 Regioselective Functionalization of Enamides at the \a-Carbon via
 Unsymmetrical 2-Amidoallyl Cations.
;
_journal_issue                   9
_journal_name_full               'Organic letters'
_journal_page_first              2414
_journal_page_last               2417
_journal_paper_doi               10.1021/acs.orglett.7b00962
_journal_volume                  19
_journal_year                    2017
_chemical_formula_moiety         'C33 H30 N2 O2 S'
_chemical_formula_sum            'C33 H30 N2 O2 S'
_chemical_formula_weight         518.65
_space_group_crystal_system      monoclinic
_space_group_IT_number           14
_space_group_name_Hall           '-P 2ybc'
_space_group_name_H-M_alt        'P 1 21/c 1'
_symmetry_space_group_name_Hall  '-P 2ybc'
_symmetry_space_group_name_H-M   'P 1 21/c 1'
_atom_sites_solution_hydrogens   mixed
_audit_creation_method           SHELXL-2014/7
_cell_angle_alpha                90
_cell_angle_beta                 93.718(3)
_cell_angle_gamma                90
_cell_formula_units_Z            8
_cell_length_a                   12.1930(5)
_cell_length_b                   15.4970(7)
_cell_length_c                   28.3046(13)
_cell_measurement_reflns_used    5545
_cell_measurement_temperature    90.0(5)
_cell_measurement_theta_max      68.20
_cell_measurement_theta_min      3.13
_cell_volume                     5337.0(4)
_computing_cell_refinement       'Bruker SAINT'
_computing_data_collection       'Bruker APEX3'
_computing_data_reduction        'Bruker SAINT'
_computing_structure_refinement  'SHELXL-2014/7 (Sheldrick, 2014)'
_computing_structure_solution    'SHELXS-97 (Sheldrick, 2008)'
_diffrn_ambient_temperature      90.0(5)
_diffrn_measured_fraction_theta_full 0.934
_diffrn_measured_fraction_theta_max 0.927
_diffrn_measurement_device_type  'Bruker Kappa APEX-II DUO'
_diffrn_measurement_method       '\f and \w scans'
_diffrn_radiation_monochromator  'QUAZAR multilayer optics'
_diffrn_radiation_source         'I\mS microfocus'
_diffrn_radiation_type           CuK\a
_diffrn_radiation_wavelength     1.54184
_diffrn_reflns_av_R_equivalents  0.064
_diffrn_reflns_av_unetI/netI     0.0471
_diffrn_reflns_Laue_measured_fraction_full 0.934
_diffrn_reflns_Laue_measured_fraction_max 0.927
_diffrn_reflns_limit_h_max       14
_diffrn_reflns_limit_h_min       -14
_diffrn_reflns_limit_k_max       18
_diffrn_reflns_limit_k_min       0
_diffrn_reflns_limit_l_max       34
_diffrn_reflns_limit_l_min       0
_diffrn_reflns_number            33427
_diffrn_reflns_point_group_measured_fraction_full 0.934
_diffrn_reflns_point_group_measured_fraction_max 0.927
_diffrn_reflns_theta_full        66.600
_diffrn_reflns_theta_max         68.389
_diffrn_reflns_theta_min         3.129
_exptl_absorpt_coefficient_mu    1.336
_exptl_absorpt_correction_T_max  0.912
_exptl_absorpt_correction_T_min  0.811
_exptl_absorpt_correction_type   multi-scan
_exptl_absorpt_process_details   'SADABS (Sheldrick, 2004)'
_exptl_crystal_colour            colourless
_exptl_crystal_density_diffrn    1.291
_exptl_crystal_description       'needle fragment'
_exptl_crystal_F_000             2192
_exptl_crystal_size_max          0.210
_exptl_crystal_size_mid          0.120
_exptl_crystal_size_min          0.070
_refine_diff_density_max         0.613
_refine_diff_density_min         -0.477
_refine_diff_density_rms         0.076
_refine_ls_extinction_method     none
_refine_ls_goodness_of_fit_ref   1.122
_refine_ls_hydrogen_treatment    mixed
_refine_ls_matrix_type           full
_refine_ls_number_parameters     694
_refine_ls_number_reflns         8885
_refine_ls_number_restraints     1
_refine_ls_restrained_S_all      1.122
_refine_ls_R_factor_all          0.0689
_refine_ls_R_factor_gt           0.0618
_refine_ls_shift/su_max          0.002
_refine_ls_shift/su_mean         0.000
_refine_ls_structure_factor_coef Fsqd
_refine_ls_weighting_details
'w=1/[\s^2^(Fo^2^)+(0.0580P)^2^+10.6057P] where P=(Fo^2^+2Fc^2^)/3'
_refine_ls_weighting_scheme      calc
_refine_ls_wR_factor_gt          0.1605
_refine_ls_wR_factor_ref         0.1649
_reflns_Friedel_coverage         0.000
_reflns_number_gt                8093
_reflns_number_total             8885
_reflns_threshold_expression     'I > 2\s(I)'
_cod_data_source_file            ol7b00962_si_013.cif
_cod_data_source_block           Saputra16
_cod_depositor_comments
'Adding full bibliography for 1545888--1545892.cif.'
_cod_database_code               1545891
_shelx_shelxl_version_number     2014/7
_shelx_space_group_comment
;
The symmetry employed for this shelxl refinement is uniquely defined
by the following loop, which should always be used as a source of
symmetry information in preference to the above space-group names.
They are only intended as comments.
;
_shelx_estimated_absorpt_t_min   0.767
_shelx_estimated_absorpt_t_max   0.912
_shelx_res_file
;

    shelxl.res created by SHELXL-2014/7


TITL Saputra16 in P21/c
CELL  1.54184  12.1930  15.4970  28.3046   90.000   93.718   90.000
ZERR     8.00   0.0005   0.0007   0.0013    0.000    0.003    0.000
LATT   1
SYMM  - X, 1/2 + Y, 1/2 - Z
SFAC  C    H    N    O    S
UNIT  264  240  16   16   8
MERG   0
FMAP   2
PLAN   -10
OMIT -6 6 19
OMIT -6 1 6
OMIT 6 6 17
OMIT -2 3 5
OMIT 2 3 6
OMIT -5 12 2
OMIT 5 12 0
OMIT -1 3 5
OMIT -2 3 7
OMIT 0 3 5
OMIT 1 3 5
OMIT 2 3 5
OMIT -2 3 6
OMIT 3 3 5
SADI N1 H1N N3 H3N
HTAB N1 O3
EQIV $1 x, y-1, z
HTAB N3 O1_$1
SIZE     0.07   0.12   0.21
ACTA   133.20
BOND   $H
CONF
L.S.  20
TEMP  -183
WGHT    0.058000   10.605700
BASF   0.49819
FVAR       0.34235
MOLE    1
S1    5    0.694322    0.674874    0.578405    11.00000    0.02096    0.02196 =
         0.02781   -0.00366   -0.00191    0.00098
O1    4    0.710901    0.749976    0.550230    11.00000    0.03645    0.02119 =
         0.02963   -0.00020   -0.00545    0.00192
O2    4    0.605635    0.672614    0.609047    11.00000    0.02150    0.03440 =
         0.04173   -0.00907    0.00267   -0.00434
N1    3    0.960705    0.401499    0.567270    11.00000    0.03171    0.01999 =
         0.03273   -0.00365    0.00063   -0.00663
H1N   2    0.915885    0.357237    0.564587    11.00000   -1.20000
N2    3    0.806555    0.662483    0.611983    11.00000    0.02067    0.01832 =
         0.02189    0.00014    0.00210   -0.00400
C1    1    0.909793    0.689542    0.595084    11.00000    0.02484    0.02261 =
         0.01611    0.00648    0.00428    0.00477
C2    1    0.971564    0.754850    0.613360    11.00000    0.02394    0.01695 =
         0.02264    0.00439    0.00023   -0.00475
C3    1    1.078281    0.757626    0.589729    11.00000    0.02094    0.02352 =
         0.02958    0.00134    0.00653   -0.00418
AFIX  23
H3A   2    1.139918    0.739469    0.612006    11.00000   -1.20000
H3B   2    1.093117    0.816684    0.578432    11.00000   -1.20000
AFIX   0
C4    1    1.064207    0.694150    0.547574    11.00000    0.02444    0.02412 =
         0.02633    0.00062    0.00239   -0.00739
AFIX  23
H4A   2    1.053940    0.726196    0.517353    11.00000   -1.20000
H4B   2    1.129889    0.656867    0.546333    11.00000   -1.20000
AFIX   0
C5    1    0.961769    0.639293    0.555793    11.00000    0.02048    0.02063 =
         0.02138   -0.00223   -0.00024    0.00011
AFIX  13
H5    2    0.911049    0.642226    0.526622    11.00000   -1.20000
AFIX   0
C6    1    0.981027    0.545994    0.568098    11.00000    0.02195    0.02102 =
         0.02573   -0.00433    0.00427    0.00083
C7    1    0.925564    0.477858    0.547321    11.00000    0.02727    0.02591 =
         0.02689   -0.00301    0.00094    0.00064
AFIX  43
H7    2    0.869998    0.482844    0.522349    11.00000   -1.20000
AFIX   0
C8    1    1.041011    0.418010    0.601721    11.00000    0.02670    0.02237 =
         0.02840   -0.00509    0.00324    0.00212
C9    1    1.057194    0.508629    0.603457    11.00000    0.02457    0.01741 =
         0.02446   -0.00067    0.00296    0.00439
C10   1    1.135748    0.541856    0.637014    11.00000    0.03475    0.01885 =
         0.02796   -0.00255    0.00086   -0.00261
AFIX  43
H10   2    1.147212    0.602344    0.639667    11.00000   -1.20000
AFIX   0
C11   1    1.195793    0.485932    0.665943    11.00000    0.03306    0.03112 =
         0.03763   -0.00151   -0.00780   -0.00052
AFIX  43
H11   2    1.250214    0.508045    0.688263    11.00000   -1.20000
AFIX   0
C12   1    1.177975    0.395702    0.663080    11.00000    0.04370    0.02656 =
         0.03780    0.00162   -0.00958    0.00186
AFIX  43
H12   2    1.219812    0.358334    0.683857    11.00000   -1.20000
AFIX   0
C13   1    1.101740    0.361645    0.630982    11.00000    0.04533    0.02327 =
         0.03659    0.00162   -0.00190    0.00829
AFIX  43
H13   2    1.090611    0.301070    0.628755    11.00000   -1.20000
AFIX   0
C14   1    0.949109    0.818261    0.649976    11.00000    0.02720    0.01992 =
         0.02389    0.00520   -0.00085    0.00465
C15   1    1.036332    0.868752    0.669200    11.00000    0.03360    0.02797 =
         0.03612   -0.00352   -0.00489   -0.00033
AFIX  43
H15   2    1.107922    0.861012    0.658493    11.00000   -1.20000
AFIX   0
C16   1    1.018936    0.930439    0.704010    11.00000    0.03723    0.03670 =
         0.04323   -0.00905   -0.00802   -0.00142
AFIX  43
H16   2    1.078644    0.964464    0.716664    11.00000   -1.20000
AFIX   0
C17   1    0.915564    0.942125    0.720057    11.00000    0.04771    0.03594 =
         0.03217   -0.00863   -0.00294    0.00752
AFIX  43
H17   2    0.904238    0.982771    0.744389    11.00000   -1.20000
AFIX   0
C18   1    0.828382    0.894016    0.700352    11.00000    0.04297    0.02620 =
         0.03119   -0.00112    0.00703    0.00526
AFIX  43
H18   2    0.756902    0.902795    0.710975    11.00000   -1.20000
AFIX   0
C19   1    0.843635    0.833244    0.665378    11.00000    0.03429    0.02052 =
         0.03011    0.00045    0.00581   -0.00351
AFIX  43
H19   2    0.782595    0.801724    0.651834    11.00000   -1.20000
AFIX   0
C20   1    0.809514    0.593818    0.648996    11.00000    0.02429    0.01980 =
         0.02222    0.00423    0.00167    0.00005
AFIX  23
H20A  2    0.875455    0.557596    0.645687    11.00000   -1.20000
H20B  2    0.744160    0.556423    0.643309    11.00000   -1.20000
AFIX   0
C21   1    0.811673    0.627494    0.698850    11.00000    0.02515    0.01987 =
         0.02458    0.00630    0.00024   -0.00384
C22   1    0.714444    0.655539    0.717725    11.00000    0.03375    0.03463 =
         0.03094   -0.00114    0.00855   -0.00260
AFIX  43
H22   2    0.648374    0.657383    0.698023    11.00000   -1.20000
AFIX   0
C23   1    0.713067    0.680677    0.764748    11.00000    0.05494    0.02929 =
         0.03285   -0.00376    0.01523   -0.00312
AFIX  43
H23   2    0.646820    0.699950    0.777188    11.00000   -1.20000
AFIX   0
C24   1    0.809279    0.677280    0.793170    11.00000    0.05859    0.02718 =
         0.02630   -0.00259    0.00352   -0.00803
AFIX  43
H24   2    0.808364    0.692383    0.825671    11.00000   -1.20000
AFIX   0
C25   1    0.905639    0.652584    0.775333    11.00000    0.04103    0.03919 =
         0.03828    0.00381   -0.00904   -0.01302
AFIX  43
H25   2    0.971740    0.652056    0.795040    11.00000   -1.20000
AFIX   0
C26   1    0.906463    0.627931    0.727611    11.00000    0.02852    0.03768 =
         0.03603    0.00667   -0.00362   -0.00335
AFIX  43
H26   2    0.973742    0.611314    0.715093    11.00000   -1.20000
AFIX   0
C27   1    0.674931    0.586435    0.539108    11.00000    0.01783    0.02482 =
         0.03390   -0.00426   -0.00456    0.00373
C28   1    0.636245    0.507974    0.556013    11.00000    0.02710    0.02983 =
         0.03729   -0.00489    0.00109   -0.00367
AFIX  43
H28   2    0.616487    0.502811    0.587809    11.00000   -1.20000
AFIX   0
C29   1    0.627243    0.437715    0.525446    11.00000    0.02482    0.02688 =
         0.05322   -0.00881    0.00131   -0.00832
AFIX  43
H29   2    0.602533    0.383826    0.536721    11.00000   -1.20000
AFIX   0
C30   1    0.654056    0.445312    0.478364    11.00000    0.02349    0.03455 =
         0.04544   -0.01674   -0.01065    0.00779
C31   1    0.689888    0.524037    0.462110    11.00000    0.02386    0.03679 =
         0.02973   -0.00911   -0.00112    0.00062
AFIX  43
H31   2    0.706843    0.529875    0.429977    11.00000   -1.20000
AFIX   0
C32   1    0.701384    0.595115    0.492548    11.00000    0.02581    0.02810 =
         0.03072   -0.00216   -0.00898    0.00433
AFIX  43
H32   2    0.727082    0.648754    0.481350    11.00000   -1.20000
AFIX   0
C33   1    0.640893    0.367120    0.446244    11.00000    0.02681    0.04663 =
         0.06776   -0.03339   -0.00448   -0.00226
AFIX 137
H33A  2    0.564025    0.362236    0.434108    11.00000   -1.50000
H33B  2    0.662194    0.315013    0.464189    11.00000   -1.50000
H33C  2    0.687956    0.373602    0.419686    11.00000   -1.50000
AFIX   0
MOLE    2
S2    5    0.840450    0.166154    0.585619    11.00000    0.02511    0.02156 =
         0.02013   -0.00213    0.00182   -0.00413
O3    4    0.822533    0.242407    0.557234    11.00000    0.03904    0.01939 =
         0.02232    0.00099    0.00559   -0.00627
O4    4    0.932952    0.161789    0.619081    11.00000    0.03034    0.03734 =
         0.02113   -0.00393   -0.00024   -0.00113
N3    3    0.561762   -0.096389    0.563823    11.00000    0.03234    0.02361 =
         0.03206   -0.00536    0.00756    0.00043
H3N   2    0.593934   -0.145439    0.557909    11.00000   -1.20000
N4    3    0.731983    0.155784    0.615736    11.00000    0.02160    0.01762 =
         0.02046    0.00064    0.00230   -0.00073
C34   1    0.626754    0.186439    0.595789    11.00000    0.01986    0.02020 =
         0.01860    0.00642   -0.00028   -0.00224
C35   1    0.574629    0.252759    0.613623    11.00000    0.02765    0.02214 =
         0.02341    0.00217    0.00482   -0.00375
C36   1    0.460924    0.261669    0.589047    11.00000    0.03587    0.02393 =
         0.03564   -0.00033   -0.00299    0.00699
AFIX  23
H36A  2    0.446871    0.321917    0.578716    11.00000   -1.20000
H36B  2    0.403572    0.244014    0.610295    11.00000   -1.20000
AFIX   0
C37   1    0.462851    0.200474    0.545986    11.00000    0.02837    0.02685 =
         0.02993    0.00299   -0.00711    0.00021
AFIX  23
H37A  2    0.468702    0.234030    0.516493    11.00000   -1.20000
H37B  2    0.394728    0.165604    0.542930    11.00000   -1.20000
AFIX   0
C38   1    0.564343    0.141292    0.554906    11.00000    0.03092    0.02339 =
         0.02193    0.00194    0.00342   -0.00200
AFIX  13
H38   2    0.609326    0.144934    0.526661    11.00000   -1.20000
AFIX   0
C39   1    0.541832    0.047068    0.564307    11.00000    0.02296    0.02207 =
         0.02278   -0.00131   -0.00531   -0.00143
C40   1    0.598045   -0.020591    0.545691    11.00000    0.02381    0.02283 =
         0.02737   -0.00353    0.00409    0.00141
AFIX  43
H40   2    0.653338   -0.015433    0.523707    11.00000   -1.20000
AFIX   0
C41   1    0.483865   -0.081291    0.594372    11.00000    0.02477    0.02318 =
         0.02932   -0.00355   -0.00235    0.00250
C42   1    0.467518    0.010517    0.595650    11.00000    0.02320    0.02129 =
         0.02020   -0.00157   -0.00180    0.00258
C43   1    0.389112    0.042678    0.625775    11.00000    0.02664    0.02872 =
         0.01894   -0.00379   -0.00078    0.00369
AFIX  43
H43   2    0.376764    0.103041    0.627895    11.00000   -1.20000
AFIX   0
C44   1    0.331532   -0.012923    0.651657    11.00000    0.03228    0.03553 =
         0.02509   -0.00154    0.00417    0.00502
AFIX  43
H44   2    0.277428    0.009316    0.671058    11.00000   -1.20000
AFIX   0
C45   1    0.349567   -0.102805    0.650636    11.00000    0.03615    0.02924 =
         0.03211    0.00491    0.00349   -0.00719
AFIX  43
H45   2    0.309261   -0.139884    0.669862    11.00000   -1.20000
AFIX   0
C46   1    0.425726   -0.137115    0.621743    11.00000    0.03565    0.02385 =
         0.03400    0.00274    0.00006   -0.00887
AFIX  43
H46   2    0.437941   -0.197607    0.620671    11.00000   -1.20000
AFIX   0
C47   1    0.614364    0.313306    0.651735    11.00000    0.03920    0.01988 =
         0.02088    0.00311    0.00027    0.00479
C48   1    0.541938    0.340091    0.685469    11.00000    0.04924    0.03215 =
         0.04004   -0.00478    0.01065    0.00786
AFIX  43
H48   2    0.467934    0.320553    0.683603    11.00000   -1.20000
AFIX   0
C49   1    0.579752    0.395711    0.721774    11.00000    0.06484    0.03650 =
         0.03355   -0.00532    0.01576    0.00629
AFIX  43
H49   2    0.531402    0.413767    0.744852    11.00000   -1.20000
AFIX   0
C50   1    0.686599    0.424444    0.724264    11.00000    0.07751    0.02702 =
         0.03120   -0.00449    0.00056   -0.00867
AFIX  43
H50   2    0.711743    0.462361    0.749023    11.00000   -1.20000
AFIX   0
C51   1    0.756898    0.398697    0.691258    11.00000    0.06345    0.02325 =
         0.02611    0.00187   -0.00439   -0.00740
AFIX  43
H51   2    0.830883    0.418284    0.693332    11.00000   -1.20000
AFIX   0
C52   1    0.720593    0.344424    0.655026    11.00000    0.04674    0.01902 =
         0.02476    0.00090   -0.00380   -0.00367
AFIX  43
H52   2    0.769630    0.328099    0.631854    11.00000   -1.20000
AFIX   0
C53   1    0.731241    0.084706    0.650919    11.00000    0.03160    0.01890 =
         0.01954    0.00745   -0.00140    0.00501
AFIX  23
H53A  2    0.805471    0.058736    0.654721    11.00000   -1.20000
H53B  2    0.679401    0.039351    0.638976    11.00000   -1.20000
AFIX   0
C54   1    0.697861    0.115998    0.698726    11.00000    0.02380    0.01841 =
         0.02282    0.00271   -0.00093    0.00104
C55   1    0.765652    0.173744    0.724699    11.00000    0.03884    0.02063 =
         0.02695    0.00347    0.00070    0.00338
AFIX  43
H55   2    0.830811    0.194525    0.711942    11.00000   -1.20000
AFIX   0
C56   1    0.738339    0.200722    0.768818    11.00000    0.05846    0.02386 =
         0.02531    0.00133   -0.00590    0.00062
AFIX  43
H56   2    0.784290    0.240564    0.786241    11.00000   -1.20000
AFIX   0
C57   1    0.643715    0.169796    0.787908    11.00000    0.06705    0.03249 =
         0.02789   -0.00090    0.01418    0.01965
AFIX  43
H57   2    0.623917    0.188704    0.818127    11.00000   -1.20000
AFIX   0
C58   1    0.579032    0.111067    0.762119    11.00000    0.03924    0.03811 =
         0.04091    0.01618    0.01631    0.01741
AFIX  43
H58   2    0.515100    0.088605    0.775165    11.00000   -1.20000
AFIX   0
C59   1    0.605505    0.084492    0.717865    11.00000    0.02942    0.03178 =
         0.02639    0.00787    0.00067   -0.00054
AFIX  43
H59   2    0.559762    0.044314    0.700589    11.00000   -1.20000
AFIX   0
C60   1    0.849261    0.077907    0.546468    11.00000    0.02122    0.02194 =
         0.02772   -0.00156    0.00075   -0.00390
C61   1    0.819091    0.087849    0.499026    11.00000    0.02736    0.02342 =
         0.02400    0.00463    0.00080   -0.00194
AFIX  43
H61   2    0.796568    0.142827    0.487140    11.00000   -1.20000
AFIX   0
C62   1    0.821485    0.017869    0.468556    11.00000    0.02795    0.02992 =
         0.02312   -0.00083    0.00074   -0.00653
AFIX  43
H62   2    0.800900    0.025190    0.435854    11.00000   -1.20000
AFIX   0
C63   1    0.853754   -0.062661    0.485582    11.00000    0.02513    0.02547 =
         0.02979   -0.00392    0.00573   -0.00283
C64   1    0.885416   -0.071732    0.533472    11.00000    0.02445    0.02087 =
         0.03286    0.00050    0.00509    0.00186
AFIX  43
H64   2    0.907710   -0.126673    0.545487    11.00000   -1.20000
AFIX   0
C65   1    0.884806   -0.001315    0.563949    11.00000    0.02820    0.02819 =
         0.02395   -0.00369    0.00049   -0.00003
AFIX  43
H65   2    0.908541   -0.007591    0.596402    11.00000   -1.20000
AFIX   0
C66   1    0.853955   -0.139920    0.452990    11.00000    0.03433    0.02968 =
         0.03653   -0.01230    0.00372   -0.00378
AFIX 137
H66A  2    0.862574   -0.120448    0.420499    11.00000   -1.50000
H66B  2    0.784368   -0.171208    0.454289    11.00000   -1.50000
H66C  2    0.915054   -0.178195    0.463052    11.00000   -1.50000
AFIX   0
HKLF    5

REM  Saputra16 in P21/c
REM R1 =  0.0618 for    8093 Fo > 4sig(Fo)  and  0.0689 for all    8885 data
REM    694 parameters refined using      1 restraints

END

WGHT      0.0532     10.4731

REM Highest difference peak  0.613,  deepest hole -0.477,  1-sigma level  0.076
Q1    1   0.5580  0.6690  0.5819  11.00000  0.05    0.61
Q2    1   0.7300  0.1652  0.5864  11.00000  0.05    0.55
Q3    1   0.7630  0.6623  0.5914  11.00000  0.05    0.51
Q4    1   0.8726  0.1593  0.6070  11.00000  0.05    0.45
Q5    1   1.0065  0.1620  0.5885  11.00000  0.05    0.43
Q6    1   0.1245  0.0147  0.0312  11.00000  0.05    0.35
Q7    1   0.9457  0.1667  0.5887  11.00000  0.05    0.35
Q8    1   0.8237 -0.0259  0.5520  11.00000  0.05    0.32
Q9    1   0.8033 -0.1418  0.4200  11.00000  0.05    0.32
Q10   1   0.9691  0.6823  0.6181  11.00000  0.05    0.31
;
_shelx_res_checksum              17561
_shelx_hkl_file
;
   1   0   0 228.303 8.10269   1
   2   0   0 293.687 8.32762   1
  -3   0   1 39.7196 3.07580  -2
   3   0   0 39.7196 3.07580   1
  -4   0   1 1195.54 42.0264  -2
   4   0   0 1195.54 42.0264   1
   5   0   0 3.44479 1.28388   1
  -6   0   2 511.705 26.0601  -2
   6   0   0 511.705 26.0601   1
  -7   0   2 195.947 10.9740  -2
   7   0   0 195.947 10.9740   1
  -8   0   2 2004.08 99.4501  -2
   8   0   0 2004.08 99.4501   1
 -10   0   3 -0.8415 3.24603  -2
  10   0   0 -0.8415 3.24603   1
 -11   0   3 58.2499 7.43705  -2
  11   0   0 58.2499 7.43705   1
 -12   0   4 38.8708 6.33245  -2
  12   0   0 38.8708 6.33245   1
 -13   0   4 39.3940 4.63838  -2
  13   0   0 39.3940 4.63838   1
   0   1   0 -0.4643 0.55635  -2
   0   1   0 -0.4643 0.55635   1
   1   1   0 23.5083 1.12900   1
   2   1   0 727.331 25.7411   1
  -3   1   1 4071.23 116.816  -2
   3   1   0 4071.23 116.816   1
  -4   1   1 259.197 5.58888  -2
   4   1   0 259.197 5.58888   1
  -5   1   1 65.4781 5.39197  -2
   5   1   0 65.4781 5.39197   1
  -6   1   2 354.582 13.0432  -2
   6   1   0 354.582 13.0432   1
  -7   1   2 329.350 12.2850  -2
   7   1   0 329.350 12.2850   1
  -8   1   2 39.9033 3.59230  -2
   8   1   0 39.9033 3.59230   1
 -10   1   3 66.8071 3.29169  -2
  10   1   0 66.8071 3.29169   1
 -11   1   3 540.395 19.9786  -2
  11   1   0 540.395 19.9786   1
 -12   1   4 33.1163 4.30314  -2
  12   1   0 33.1163 4.30314   1
 -13   1   4 10.9497 2.12483  -2
  13   1   0 10.9497 2.12483   1
   0   2   0 147.634 8.33247  -2
   0   2   0 147.634 8.33247   1
   1   2   0 3.41086 2.42129  -2
   1   2   0 3.41086 2.42129   1
   2   2   0 84.5943 3.31804   1
  -3   2   1 195.685 6.70070  -2
   3   2   0 195.685 6.70070   1
  -4   2   1 289.507 8.73327  -2
   4   2   0 289.507 8.73327   1
  -5   2   1 6.07335 2.44498  -2
   5   2   0 6.07335 2.44498   1
  -6   2   2 237.026 9.06915  -2
   6   2   0 237.026 9.06915   1
  -7   2   2 252.811 9.66194  -2
   7   2   0 252.811 9.66194   1
  -8   2   2 582.050 21.2728  -2
   8   2   0 582.050 21.2728   1
  -9   2   3 122.073 12.0210  -2
   9   2   0 122.073 12.0210   1
 -10   2   3 24.4844 2.50990  -2
  10   2   0 24.4844 2.50990   1
 -11   2   3 30.8659 6.71575  -2
  11   2   0 30.8659 6.71575   1
 -12   2   4 9.63384 5.63982  -2
  12   2   0 9.63384 5.63982   1
 -13   2   4 46.9375 3.45941  -2
  13   2   0 46.9375 3.45941   1
   0   3   0 0.12981 1.41820  -2
   0   3   0 0.12981 1.41820   1
   1   3   0 90.3983 6.16171  -2
   1   3   0 90.3983 6.16171   1
  -2   3   1 2330.89 127.269  -2
   2   3   0 2330.89 127.269   1
  -3   3   1 30.0897 1.59130  -2
   3   3   0 30.0897 1.59130   1
  -4   3   1 46.4900 1.86458  -2
   4   3   0 46.4900 1.86458   1
  -5   3   1 390.877 20.4369  -2
   5   3   0 390.877 20.4369   1
  -6   3   2 102.324 4.16537  -2
   6   3   0 102.324 4.16537   1
  -7   3   2 44.4834 2.70537  -2
   7   3   0 44.4834 2.70537   1
  -8   3   2 102.693 7.30050  -2
   8   3   0 102.693 7.30050   1
  -9   3   3 179.922 11.8796  -2
   9   3   0 179.922 11.8796   1
 -10   3   3 399.012 10.5451  -2
  10   3   0 399.012 10.5451   1
 -11   3   3 347.910 19.6947  -2
  11   3   0 347.910 19.6947   1
 -12   3   4 16.8679 6.29482  -2
  12   3   0 16.8679 6.29482   1
 -13   3   4 18.6663 2.15468  -2
  13   3   0 18.6663 2.15468   1
   0   4   0 9983.73 542.779  -2
   0   4   0 9983.73 542.779   1
   1   4   0 79.5819 3.66005  -2
   1   4   0 79.5819 3.66005   1
  -2   4   1 829.829 46.0503  -2
   2   4   0 829.829 46.0503   1
  -3   4   1 725.904 17.3381  -2
   3   4   0 725.904 17.3381   1
  -4   4   1 41.1255 2.27380  -2
   4   4   0 41.1255 2.27380   1
  -5   4   1 270.022 14.7738  -2
   5   4   0 270.022 14.7738   1
  -6   4   2 117.441 4.54839  -2
   6   4   0 117.441 4.54839   1
  -7   4   2 250.396 8.60712  -2
   7   4   0 250.396 8.60712   1
  -8   4   2 51.8951 5.26561  -2
   8   4   0 51.8951 5.26561   1
  -9   4   3 68.6934 7.42080  -2
   9   4   0 68.6934 7.42080   1
 -10   4   3 27.5793 2.04067  -2
  10   4   0 27.5793 2.04067   1
 -12   4   4 18.1577 5.78851  -2
  12   4   0 18.1577 5.78851   1
 -13   4   4 18.1834 2.67031  -2
  13   4   0 18.1834 2.67031   1
   0   5   0 0.55031 1.15791  -2
   0   5   0 0.55031 1.15791   1
   1   5   0 224.156 8.16985  -2
   1   5   0 224.156 8.16985   1
  -2   5   1 905.792 33.0281  -2
   2   5   0 905.792 33.0281   1
  -3   5   1 14.0157 1.71357  -2
   3   5   0 14.0157 1.71357   1
  -4   5   1 5.42430 1.96326  -2
   4   5   0 5.42430 1.96326   1
  -6   5   2 158.519 13.2158  -2
   6   5   0 158.519 13.2158   1
  -7   5   2 26.3986 2.73908  -2
   7   5   0 26.3986 2.73908   1
  -8   5   2 335.873 17.9549  -2
   8   5   0 335.873 17.9549   1
  -9   5   3 186.997 12.3023  -2
   9   5   0 186.997 12.3023   1
 -10   5   3 29.7609 1.96448  -2
  10   5   0 29.7609 1.96448   1
 -13   5   4 26.5290 2.89289  -2
  13   5   0 26.5290 2.89289   1
   0   6   0 2287.96 112.476  -2
   0   6   0 2287.96 112.476   1
   1   6   0 55.2160 2.76172  -2
   1   6   0 55.2160 2.76172   1
   2   6   0 213.178 8.31775   1
  -3   6   1 219.713 8.33898  -2
   3   6   0 219.713 8.33898   1
  -4   6   1 183.075 10.2711  -2
   4   6   0 183.075 10.2711   1
   5   6   0 69.1248 5.53374   1
  -6   6   2 69.8825 8.73114  -2
   6   6   0 69.8825 8.73114   1
  -7   6   2 47.0921 8.02578  -2
   7   6   0 47.0921 8.02578   1
  -9   6   3 68.3742 7.96794  -2
   9   6   0 68.3742 7.96794   1
 -10   6   3 32.3104 1.93152  -2
  10   6   0 32.3104 1.93152   1
 -13   6   4 147.781 6.23662  -2
  13   6   0 147.781 6.23662   1
   0   7   0 0.33798 1.59607  -2
   0   7   0 0.33798 1.59607   1
   1   7   0 71.6448 3.39998  -2
   1   7   0 71.6448 3.39998   1
   2   7   0 199.459 11.1035   1
  -3   7   1 67.7995 3.71093  -2
   3   7   0 67.7995 3.71093   1
  -4   7   1 21.4491 2.49156  -2
   4   7   0 21.4491 2.49156   1
   5   7   0 30.0203 4.13906   1
  -9   7   3 187.102 12.5979  -2
   9   7   0 187.102 12.5979   1
 -10   7   3 153.907 4.27609  -2
  10   7   0 153.907 4.27609   1
 -13   7   4 27.3419 2.67985  -2
  13   7   0 27.3419 2.67985   1
   0   8   0 53.8146 2.14607  -2
   0   8   0 53.8146 2.14607   1
   1   8   0 11.9703 1.75806  -2
   1   8   0 11.9703 1.75806   1
  -2   8   1 72.5861 4.88819  -2
   2   8   0 72.5861 4.88819   1
  -3   8   1 53.0502 3.29199  -2
   3   8   0 53.0502 3.29199   1
  -4   8   1 16.5591 2.48805  -2
   4   8   0 16.5591 2.48805   1
   5   8   0 45.1960 4.84160   1
  -6   8   2 85.3614 8.35021  -2
   6   8   0 85.3614 8.35021   1
  -7   8   2 13.1277 3.09573  -2
   7   8   0 13.1277 3.09573   1
  -9   8   3 36.8132 6.87042  -2
   9   8   0 36.8132 6.87042   1
 -10   8   3 69.1531 2.77141  -2
  10   8   0 69.1531 2.77141   1
 -13   8   4 143.346 8.16939  -2
  13   8   0 143.346 8.16939   1
   0   9   0 1.04455 1.36105  -2
   0   9   0 1.04455 1.36105   1
   1   9   0 4.83406 1.67767  -2
   1   9   0 4.83406 1.67767   1
  -2   9   1 54.0823 4.51446  -2
   2   9   0 54.0823 4.51446   1
  -3   9   1 375.724 11.3767  -2
   3   9   0 375.724 11.3767   1
  -4   9   1 7.64261 2.55143  -2
   4   9   0 7.64261 2.55143   1
  -5   9   1 47.6276 6.69319  -2
   5   9   0 47.6276 6.69319   1
  -6   9   2 118.024 6.75774  -2
   6   9   0 118.024 6.75774   1
  -7   9   2 73.7348 4.40673  -2
   7   9   0 73.7348 4.40673   1
 -10   9   3 57.4457 3.15339  -2
  10   9   0 57.4457 3.15339   1
   0  10   0 108.854 6.71510  -2
   0  10   0 108.854 6.71510   1
   1  10   0 174.748 7.16386  -2
   1  10   0 174.748 7.16386   1
  -2  10   1 220.189 8.75018  -2
   2  10   0 220.189 8.75018   1
  -3  10   1 11.3492 1.67914  -2
   3  10   0 11.3492 1.67914   1
  -4  10   1 6.96882 2.23133  -2
   4  10   0 6.96882 2.23133   1
  -5  10   2 19.6840 6.18896  -2
   5  10   0 19.6840 6.18896   1
  -5  10   1 20.1971 5.60533  -2
   5  10   0 20.1971 5.60533   1
  -6  10   2 37.0512 4.17547  -2
   6  10   0 37.0512 4.17547   1
  -7  10   2 183.020 4.73151  -2
   7  10   0 183.020 4.73151   1
 -10  10   3 51.3594 2.99006  -2
  10  10   0 51.3594 2.99006   1
   0  11   0 1.44729 1.62730  -2
   0  11   0 1.44729 1.62730   1
   1  11   0 14.3152 2.59797  -2
   1  11   0 14.3152 2.59797   1
  -2  11   1 47.7108 6.18385  -2
   2  11   0 47.7108 6.18385   1
  -3  11   1 208.590 6.75070  -2
   3  11   0 208.590 6.75070   1
  -4  11   1 283.022 11.3736  -2
   4  11   0 283.022 11.3736   1
  -5  11   2 26.7397 6.48524  -2
   5  11   0 26.7397 6.48524   1
  -6  11   2 55.2457 4.59213  -2
   6  11   0 55.2457 4.59213   1
  -7  11   2 15.8398 2.03174  -2
   7  11   0 15.8398 2.03174   1
 -10  11   3 77.3071 3.44229  -2
  10  11   0 77.3071 3.44229   1
   0  12   0 4104.12 202.380  -2
   0  12   0 4104.12 202.380   1
   1  12   0 3.65776 2.20202  -2
   1  12   0 3.65776 2.20202   1
  -2  12   1 221.110 7.49531  -2
   2  12   0 221.110 7.49531   1
  -3  12   1 35.9451 2.29652  -2
   3  12   0 35.9451 2.29652   1
  -4  12   1 54.9626 3.57287  -2
   4  12   0 54.9626 3.57287   1
  -5  12   2 254.599 15.7573  -2
   5  12   0 254.599 15.7573   1
  -6  12   2 157.533 7.08349  -2
   6  12   0 157.533 7.08349   1
  -7  12   2 63.2825 3.25558  -2
   7  12   0 63.2825 3.25558   1
 -10  12   3 28.9053 2.65793  -2
  10  12   0 28.9053 2.65793   1
   0  13   0 2.10307 1.79765  -2
   0  13   0 2.10307 1.79765   1
   1  13   0 15.8277 1.98099  -2
   1  13   0 15.8277 1.98099   1
  -2  13   1 493.156 11.5713  -2
   2  13   0 493.156 11.5713   1
  -3  13   1 175.155 4.94893  -2
   3  13   0 175.155 4.94893   1
  -4  13   1 26.0959 4.45405  -2
   4  13   0 26.0959 4.45405   1
  -5  13   2 21.0984 6.92474  -2
   5  13   0 21.0984 6.92474   1
  -6  13   2 48.0921 4.09904  -2
   6  13   0 48.0921 4.09904   1
  -7  13   2 119.028 3.72081  -2
   7  13   0 119.028 3.72081   1
 -10  13   3 31.4321 1.71892  -2
  10  13   0 31.4321 1.71892   1
   0  14   0 575.758 28.7724  -2
   0  14   0 575.758 28.7724   1
   1  14   0 47.8968 3.54256  -2
   1  14   0 47.8968 3.54256   1
  -2  14   1 98.9532 5.10619  -2
   2  14   0 98.9532 5.10619   1
  -3  14   1 27.4997 2.05798  -2
   3  14   0 27.4997 2.05798   1
  -4  14   1 24.7219 4.32142  -2
   4  14   0 24.7219 4.32142   1
  -6  14   2 15.6679 4.91180  -2
   6  14   0 15.6679 4.91180   1
  -7  14   2 88.8592 3.33519  -2
   7  14   0 88.8592 3.33519   1
   0  15   0 0.38875 3.87979  -2
   0  15   0 0.38875 3.87979   1
   1  15   0 31.2054 3.65151  -2
   1  15   0 31.2054 3.65151   1
  -2  15   1 30.8846 6.41291  -2
   2  15   0 30.8846 6.41291   1
  -3  15   1 43.4635 2.87572  -2
   3  15   0 43.4635 2.87572   1
  -4  15   1 47.8811 3.09868  -2
   4  15   0 47.8811 3.09868   1
  -6  15   2 37.5577 4.91484  -2
   6  15   0 37.5577 4.91484   1
  -7  15   2 45.9581 2.85055  -2
   7  15   0 45.9581 2.85055   1
   0  16   0 27.1035 3.32066  -2
   0  16   0 27.1035 3.32066   1
   1  16   0 6.18361 3.02745  -2
   1  16   0 6.18361 3.02745   1
  -2  16   1 45.9643 4.41096  -2
   2  16   0 45.9643 4.41096   1
  -3  16   1 39.5671 2.45822  -2
   3  16   0 39.5671 2.45822   1
  -4  16   1 24.7057 3.09529  -2
   4  16   0 24.7057 3.09529   1
  -6  16   2 22.3957 3.48596  -2
   6  16   0 22.3957 3.48596   1
  -7  16   2 32.3147 3.24112  -2
   7  16   0 32.3147 3.24112   1
   0  17   0 -1.8015 1.88894  -2
   0  17   0 -1.8015 1.88894   1
   1  17   0 11.8738 4.46334  -2
   1  17   0 11.8738 4.46334   1
  -3  17   1 13.4922 2.43352  -2
   3  17   0 13.4922 2.43352   1
  -4  17   1 7.26917 2.76189  -2
   4  17   0 7.26917 2.76189   1
   0  18   0 1.95917 2.87525  -2
   0  18   0 1.95917 2.87525   1
   1  18   0 0.30637 2.51347  -2
   1  18   0 0.30637 2.51347   1
  -3  18   1 14.9838 2.28354  -2
   3  18   0 14.9838 2.28354   1
 -13   0   3 2.06705 3.46193  -2
 -13   0   1 2.06705 3.46193   1
 -12   0   3 5.93642 5.42568  -2
 -12   0   1 5.93642 5.42568   1
 -11   0   2 2.67126 6.22445  -2
 -11   0   1 2.67126 6.22445   1
 -10   0   2 -1.4440 3.22728  -2
 -10   0   1 -1.4440 3.22728   1
  -8   0   1 268.953 15.0935  -2
  -8   0   1 268.953 15.0935   1
  -7   0   1 29.1001 3.51043  -2
  -7   0   1 29.1001 3.51043   1
  -6   0   1 28.4831 3.97679  -2
  -6   0   1 28.4831 3.97679   1
  -5   0   1 -0.3374 1.21250   1
   4   0   0 1206.90 34.2685  -2
  -4   0   1 1206.90 34.2685   1
   3   0   0 36.8728 2.10155  -2
  -3   0   1 36.8728 2.10155   1
  -2   0   1 -0.4586 0.42016   1
  -1   0   1 0.73008 0.25443   1
   1   0   1 -0.0042 0.60464   1
   2   0   1 1.60635 1.02329   1
  -3   0   2 28.3122 2.82456  -2
   3   0   1 28.3122 2.82456   1
  -4   0   2 679.425 24.0930  -2
   4   0   1 679.425 24.0930   1
   5   0   1 2.86242 0.92336   1
  -6   0   3 84.0467 5.98644  -2
   6   0   1 84.0467 5.98644   1
  -7   0   3 31.8948 3.58527  -2
   7   0   1 31.8948 3.58527   1
  -8   0   3 187.364 11.4040  -2
   8   0   1 187.364 11.4040   1
 -10   0   4 20.6807 3.65048  -2
  10   0   1 20.6807 3.65048   1
 -11   0   4 13.7271 6.27893  -2
  11   0   1 13.7271 6.27893   1
 -12   0   5 0.78733 5.41731  -2
  12   0   1 0.78733 5.41731   1
 -13   0   5 -0.4972 3.24879  -2
  13   0   1 -0.4972 3.24879   1
 -13   1   3 22.8570 2.36429  -2
 -13   1   1 22.8570 2.36429   1
 -12   1   3 113.971 6.21695  -2
 -12   1   1 113.971 6.21695   1
 -11   1   2 151.428 7.44985  -2
 -11   1   1 151.428 7.44985   1
 -10   1   2 508.793 13.3871  -2
 -10   1   1 508.793 13.3871   1
  -9   1   2 74.9089 9.48659  -2
  -9   1   1 74.9089 9.48659   1
  -8   1   1 20.2124 3.34935  -2
  -8   1   1 20.2124 3.34935   1
  -7   1   1 982.476 34.8012  -2
  -7   1   1 982.476 34.8012   1
  -6   1   1 52.1295 3.34179  -2
  -6   1   1 52.1295 3.34179   1
   5   1   0 53.6511 4.92623  -2
  -5   1   1 53.6511 4.92623   1
   4   1   0 260.020 5.48207  -2
  -4   1   1 260.020 5.48207   1
   3   1   0 4386.60 122.489  -2
  -3   1   1 4386.60 122.489   1
  -2   1   1 171.669 5.02095   1
  -1   1   1 162.853 3.98298   1
   0   1   1 29.3480 0.98604  -2
   0   1   1 29.3480 0.98604   1
   1   1   1 250.454 7.54933   1
  -3   1   2 3613.23 103.727  -2
   3   1   1 3613.23 103.727   1
  -4   1   2 403.911 9.31972  -2
   4   1   1 403.911 9.31972   1
  -5   1   2 89.5075 6.14357  -2
   5   1   1 89.5075 6.14357   1
  -6   1   3 276.834 10.4062  -2
   6   1   1 276.834 10.4062   1
  -7   1   3 213.823 8.32582  -2
   7   1   1 213.823 8.32582   1
  -8   1   3 126.698 6.05148  -2
   8   1   1 126.698 6.05148   1
 -10   1   4 190.359 5.71288  -2
  10   1   1 190.359 5.71288   1
 -11   1   4 170.643 8.07708  -2
  11   1   1 170.643 8.07708   1
 -12   1   5 19.1922 4.05623  -2
  12   1   1 19.1922 4.05623   1
 -13   1   5 3.20647 3.49432  -2
  13   1   1 3.20647 3.49432   1
 -13   2   3 217.506 8.57798  -2
 -13   2   1 217.506 8.57798   1
 -12   2   3 26.1420 6.02777  -2
 -12   2   1 26.1420 6.02777   1
 -11   2   2 69.9687 7.94884  -2
 -11   2   1 69.9687 7.94884   1
 -10   2   2 51.0869 2.87963  -2
 -10   2   1 51.0869 2.87963   1
  -9   2   2 319.524 24.2676  -2
  -9   2   1 319.524 24.2676   1
  -8   2   1 175.237 7.63959  -2
  -8   2   1 175.237 7.63959   1
  -7   2   1 741.916 26.4966  -2
  -7   2   1 741.916 26.4966   1
  -6   2   1 146.913 6.11867  -2
  -6   2   1 146.913 6.11867   1
  -5   2   1 0.63571 0.77203   1
   4   2   0 290.931 6.08913  -2
  -4   2   1 290.931 6.08913   1
   3   2   0 204.102 5.63165  -2
  -3   2   1 204.102 5.63165   1
  -2   2   1 898.199 21.4916   1
  -1   2   1 1147.06 54.9130   1
   0   2   1 2769.27 79.5249  -2
   0   2   1 2769.27 79.5249   1
  -1   2   1 3079.70 167.727  -2
   1   2   1 3079.70 167.727   1
   2   2   1 1509.31 44.7563   1
  -3   2   2 337.263 10.3100  -2
   3   2   1 337.263 10.3100   1
  -4   2   2 242.075 6.60599  -2
   4   2   1 242.075 6.60599   1
  -5   2   2 40.0894 4.58861  -2
   5   2   1 40.0894 4.58861   1
  -6   2   3 124.829 5.35362  -2
   6   2   1 124.829 5.35362   1
  -7   2   3 405.210 14.8692  -2
   7   2   1 405.210 14.8692   1
  -8   2   3 175.691 7.54711  -2
   8   2   1 175.691 7.54711   1
  -8   2   4 158.779 14.7544  -2
   8   2   1 158.779 14.7544   1
  -9   2   4 154.778 14.0526  -2
   9   2   1 154.778 14.0526   1
 -10   2   4 121.239 4.26889  -2
  10   2   1 121.239 4.26889   1
 -11   2   4 1.84381 6.33140  -2
  11   2   1 1.84381 6.33140   1
 -12   2   5 32.0616 6.28420  -2
  12   2   1 32.0616 6.28420   1
 -13   2   5 21.3835 2.82778  -2
  13   2   1 21.3835 2.82778   1
 -13   3   3 7.73479 1.97833  -2
 -13   3   1 7.73479 1.97833   1
 -10   3   2 361.116 9.68513  -2
 -10   3   1 361.116 9.68513   1
  -9   3   2 392.196 17.1985  -2
  -9   3   1 392.196 17.1985   1
  -8   3   1 7.24548 4.30988  -2
  -8   3   1 7.24548 4.30988   1
  -7   3   1 9.46885 2.00166  -2
  -7   3   1 9.46885 2.00166   1
  -6   3   1 33.3184 2.61539  -2
  -6   3   1 33.3184 2.61539   1
   5   3   0 364.000 19.0853  -2
  -5   3   1 364.000 19.0853   1
   4   3   0 51.7540 1.94895  -2
  -4   3   1 51.7540 1.94895   1
   3   3   0 35.2182 1.60851  -2
  -3   3   1 35.2182 1.60851   1
  -2   3   1 41.6781 1.58976   1
   1   3   1 860.793 31.1149  -2
  -1   3   1 860.793 31.1149   1
   0   3   1 11.1585 0.68372  -2
   0   3   1 11.1585 0.68372   1
  -1   3   1 946.485 36.7564  -2
   1   3   1 946.485 36.7564   1
  -2   3   2 42.9589 5.13104  -2
   2   3   1 42.9589 5.13104   1
  -3   3   2 280.209 9.05700  -2
   3   3   1 280.209 9.05700   1
  -4   3   2 20.1101 1.68832  -2
   4   3   1 20.1101 1.68832   1
  -5   3   2 217.485 12.1844  -2
   5   3   1 217.485 12.1844   1
  -5   3   3 71.1715 8.20502  -2
   5   3   1 71.1715 8.20502   1
  -6   3   3 114.236 4.48880  -2
   6   3   1 114.236 4.48880   1
  -7   3   3 20.1622 2.08733  -2
   7   3   1 20.1622 2.08733   1
  -8   3   4 44.1988 9.38648  -2
   8   3   1 44.1988 9.38648   1
  -8   3   3 50.2470 5.35058  -2
   8   3   1 50.2470 5.35058   1
  -9   3   4 196.846 12.5284  -2
   9   3   1 196.846 12.5284   1
 -10   3   4 418.919 9.77215  -2
  10   3   1 418.919 9.77215   1
 -11   3   4 156.454 11.4252  -2
  11   3   1 156.454 11.4252   1
 -12   3   5 180.932 11.7719  -2
  12   3   1 180.932 11.7719   1
 -13   3   5 26.8039 1.91981  -2
  13   3   1 26.8039 1.91981   1
 -13   4   3 18.1659 2.72453  -2
 -13   4   1 18.1659 2.72453   1
 -10   4   2 7.91909 1.68122  -2
 -10   4   1 7.91909 1.68122   1
  -9   4   2 132.569 10.0231  -2
  -9   4   1 132.569 10.0231   1
  -8   4   1 6.16520 4.45939  -2
  -8   4   1 6.16520 4.45939   1
  -7   4   1 542.359 17.4562  -2
  -7   4   1 542.359 17.4562   1
  -6   4   1 11.0493 2.49070  -2
  -6   4   1 11.0493 2.49070   1
   5   4   0 245.134 13.5910  -2
  -5   4   1 245.134 13.5910   1
   4   4   0 44.2535 1.97857  -2
  -4   4   1 44.2535 1.97857   1
   3   4   0 735.176 17.5495  -2
  -3   4   1 735.176 17.5495   1
   2   4   0 722.133 26.3785  -2
  -2   4   1 722.133 26.3785   1
   1   4   1 1006.10 28.4903  -2
  -1   4   1 1006.10 28.4903   1
   0   4   1 5525.05 212.562  -2
   0   4   1 5525.05 212.562   1
  -1   4   1 1001.25 38.9323  -2
   1   4   1 1001.25 38.9323   1
  -2   4   2 459.775 26.1043  -2
   2   4   1 459.775 26.1043   1
  -3   4   2 251.061 8.00633  -2
   3   4   1 251.061 8.00633   1
  -4   4   2 14.6123 2.21483  -2
   4   4   1 14.6123 2.21483   1
  -5   4   2 106.129 7.49258  -2
   5   4   1 106.129 7.49258   1
  -6   4   3 125.695 4.83153  -2
   6   4   1 125.695 4.83153   1
  -7   4   3 73.7223 3.41357  -2
   7   4   1 73.7223 3.41357   1
  -8   4   3 198.018 8.39686  -2
   8   4   1 198.018 8.39686   1
  -8   4   4 151.147 14.7410  -2
   8   4   1 151.147 14.7410   1
  -9   4   4 37.0476 6.50648  -2
   9   4   1 37.0476 6.50648   1
 -10   4   4 34.0432 2.07974  -2
  10   4   1 34.0432 2.07974   1
 -11   4   4 20.0794 6.90822  -2
  11   4   1 20.0794 6.90822   1
 -12   4   5 46.3574 6.60646  -2
  12   4   1 46.3574 6.60646   1
 -13   4   5 13.9496 2.52091  -2
  13   4   1 13.9496 2.52091   1
 -13   5   3 7.34064 2.33309  -2
 -13   5   1 7.34064 2.33309   1
 -10   5   2 78.5422 2.70191  -2
 -10   5   1 78.5422 2.70191   1
  -9   5   2 119.461 9.45574  -2
  -9   5   1 119.461 9.45574   1
  -7   5   1 49.9624 3.59179  -2
  -7   5   1 49.9624 3.59179   1
  -6   5   1 36.1264 2.93912  -2
  -6   5   1 36.1264 2.93912   1
   4   5   0 1.80191 2.05917  -2
  -4   5   1 1.80191 2.05917   1
   3   5   0 15.4526 1.65953  -2
  -3   5   1 15.4526 1.65953   1
   2   5   0 985.372 36.3996  -2
  -2   5   1 985.372 36.3996   1
   1   5   1 66.7297 2.56082  -2
  -1   5   1 66.7297 2.56082   1
   0   5   1 10.6246 0.91363  -2
   0   5   1 10.6246 0.91363   1
  -1   5   1 69.7069 2.23260  -2
   1   5   1 69.7069 2.23260   1
   2   5   1 294.086 11.1604   1
  -3   5   2 61.8941 2.59283  -2
   3   5   1 61.8941 2.59283   1
  -4   5   2 90.5911 4.75268  -2
   4   5   1 90.5911 4.75268   1
  -6   5   3 338.348 24.5267  -2
   6   5   1 338.348 24.5267   1
  -7   5   3 4.29077 5.52911  -2
   7   5   1 4.29077 5.52911   1
  -8   5   3 37.3735 4.65545  -2
   8   5   1 37.3735 4.65545   1
  -8   5   4 17.5626 9.00269  -2
   8   5   1 17.5626 9.00269   1
  -9   5   4 200.315 12.9305  -2
   9   5   1 200.315 12.9305   1
 -10   5   4 26.4434 1.94026  -2
  10   5   1 26.4434 1.94026   1
 -12   5   5 27.3750 6.23759  -2
  12   5   1 27.3750 6.23759   1
 -13   5   5 36.2839 3.14608  -2
  13   5   1 36.2839 3.14608   1
 -13   6   3 21.9944 2.55003  -2
 -13   6   1 21.9944 2.55003   1
 -10   6   2 150.483 3.95795  -2
 -10   6   1 150.483 3.95795   1
  -9   6   2 19.5379 6.38334  -2
  -9   6   1 19.5379 6.38334   1
  -7   6   1 130.001 12.5133  -2
  -7   6   1 130.001 12.5133   1
  -6   6   1 33.0298 7.61912  -2
  -6   6   1 33.0298 7.61912   1
  -5   6   1 11.0905 2.87490   1
   4   6   0 177.416 9.99482  -2
  -4   6   1 177.416 9.99482   1
   3   6   0 215.447 8.19343  -2
  -3   6   1 215.447 8.19343   1
  -2   6   1 44.0330 3.34645   1
   1   6   1 189.544 7.15011  -2
  -1   6   1 189.544 7.15011   1
   0   6   1 133.727 4.34017  -2
   0   6   1 133.727 4.34017   1
  -1   6   1 189.862 7.08710  -2
   1   6   1 189.862 7.08710   1
  -2   6   2 61.7189 4.52785  -2
   2   6   1 61.7189 4.52785   1
  -3   6   2 100.429 3.86532  -2
   3   6   1 100.429 3.86532   1
  -4   6   2 228.310 12.4315  -2
   4   6   1 228.310 12.4315   1
   5   6   1 68.7695 5.69134   1
  -6   6   3 27.3330 6.57063  -2
   6   6   1 27.3330 6.57063   1
  -7   6   3 11.8018 6.60816  -2
   7   6   1 11.8018 6.60816   1
  -9   6   4 229.357 14.4286  -2
   9   6   1 229.357 14.4286   1
 -10   6   4 42.9767 2.71121  -2
  10   6   1 42.9767 2.71121   1
 -13   6   5 15.2377 2.53304  -2
  13   6   1 15.2377 2.53304   1
 -13   7   3 18.7489 2.44423  -2
 -13   7   1 18.7489 2.44423   1
 -10   7   2 81.4680 3.00751  -2
 -10   7   1 81.4680 3.00751   1
  -9   7   2 29.2060 7.07878  -2
  -9   7   1 29.2060 7.07878   1
  -6   7   1 22.9307 5.77262  -2
  -6   7   1 22.9307 5.77262   1
  -5   7   1 60.4027 5.46954   1
   4   7   0 21.6160 2.53495  -2
  -4   7   1 21.6160 2.53495   1
   3   7   0 65.5745 3.59853  -2
  -3   7   1 65.5745 3.59853   1
   2   7   0 246.738 12.7612  -2
  -2   7   1 246.738 12.7612   1
   1   7   1 69.1997 3.33580  -2
  -1   7   1 69.1997 3.33580   1
   0   7   1 1.26454 0.87818  -2
   0   7   1 1.26454 0.87818   1
  -1   7   1 65.3194 3.20395  -2
   1   7   1 65.3194 3.20395   1
   2   7   1 2.64663 2.09767   1
  -3   7   2 27.6603 2.75311  -2
   3   7   1 27.6603 2.75311   1
  -4   7   2 18.3073 2.39256  -2
   4   7   1 18.3073 2.39256   1
   5   7   1 24.8562 3.88630   1
  -7   7   3 52.2681 6.52146  -2
   7   7   1 52.2681 6.52146   1
  -9   7   4 29.7231 6.74407  -2
   9   7   1 29.7231 6.74407   1
 -10   7   4 90.5133 3.18860  -2
  10   7   1 90.5133 3.18860   1
 -13   7   5 3.54647 1.98181  -2
  13   7   1 3.54647 1.98181   1
 -13   8   3 6.00848 3.16073  -2
 -13   8   1 6.00848 3.16073   1
 -10   8   2 39.1906 2.31386  -2
 -10   8   1 39.1906 2.31386   1
  -9   8   2 47.7309 7.30393  -2
  -9   8   1 47.7309 7.30393   1
  -7   8   1 64.0273 6.37846  -2
  -7   8   1 64.0273 6.37846   1
  -6   8   1 23.8504 6.30290  -2
  -6   8   1 23.8504 6.30290   1
  -5   8   1 101.641 7.53836   1
   4   8   0 16.4674 2.54271  -2
  -4   8   1 16.4674 2.54271   1
   3   8   0 54.4102 2.50011  -2
  -3   8   1 54.4102 2.50011   1
   2   8   0 71.7166 4.91112  -2
  -2   8   1 71.7166 4.91112   1
   1   8   1 122.447 4.22120  -2
  -1   8   1 122.447 4.22120   1
   0   8   1 1277.92 36.7097  -2
   0   8   1 1277.92 36.7097   1
  -1   8   1 123.558 4.24834  -2
   1   8   1 123.558 4.24834   1
  -2   8   2 7.66279 2.44873  -2
   2   8   1 7.66279 2.44873   1
  -3   8   2 159.972 6.76162  -2
   3   8   1 159.972 6.76162   1
  -4   8   2 110.890 5.27459  -2
   4   8   1 110.890 5.27459   1
  -5   8   2 64.0845 6.69623  -2
   5   8   1 64.0845 6.69623   1
  -6   8   3 50.2861 6.68573  -2
   6   8   1 50.2861 6.68573   1
  -7   8   3 114.603 9.97338  -2
   7   8   1 114.603 9.97338   1
  -9   8   4 108.677 9.28748  -2
   9   8   1 108.677 9.28748   1
 -10   8   4 60.3270 2.67258  -2
  10   8   1 60.3270 2.67258   1
 -13   8   5 12.5008 3.42274  -2
  13   8   1 12.5008 3.42274   1
 -10   9   2 118.387 5.42234  -2
 -10   9   1 118.387 5.42234   1
  -7   9   1 19.4206 3.07528  -2
  -7   9   1 19.4206 3.07528   1
  -6   9   1 93.6943 6.08480  -2
  -6   9   1 93.6943 6.08480   1
  -5   9   1 32.3049 4.48946   1
   4   9   0 7.68337 2.36750  -2
  -4   9   1 7.68337 2.36750   1
   3   9   0 355.608 10.8446  -2
  -3   9   1 355.608 10.8446   1
   2   9   0 64.0393 3.60478  -2
  -2   9   1 64.0393 3.60478   1
   1   9   1 518.560 18.7274  -2
  -1   9   1 518.560 18.7274   1
   0   9   1 2.05970 0.77413  -2
   0   9   1 2.05970 0.77413   1
  -1   9   1 511.957 15.1562  -2
   1   9   1 511.957 15.1562   1
  -2   9   2 134.006 7.78887  -2
   2   9   1 134.006 7.78887   1
  -3   9   2 84.5959 4.42252  -2
   3   9   1 84.5959 4.42252   1
  -4   9   2 11.1995 2.57091  -2
   4   9   1 11.1995 2.57091   1
  -5   9   2 111.306 8.98263  -2
   5   9   1 111.306 8.98263   1
  -6   9   3 73.8244 5.18295  -2
   6   9   1 73.8244 5.18295   1
  -7   9   3 5.84584 2.81184  -2
   7   9   1 5.84584 2.81184   1
 -10   9   4 123.212 4.56324  -2
  10   9   1 123.212 4.56324   1
 -10  10   2 3.45738 2.01618  -2
 -10  10   1 3.45738 2.01618   1
  -7  10   1 36.9799 2.33520  -2
  -7  10   1 36.9799 2.33520   1
  -6  10   1 23.2464 4.39737  -2
  -6  10   1 23.2464 4.39737   1
  -5  10   1 13.9158 5.96155  -2
  -5  10   1 13.9158 5.96155   1
   4  10   0 6.56698 3.38797  -2
  -4  10   1 6.56698 3.38797   1
   3  10   0 12.8613 1.89927  -2
  -3  10   1 12.8613 1.89927   1
   2  10   0 195.512 10.9531  -2
  -2  10   1 195.512 10.9531   1
   1  10   1 278.134 15.1399  -2
  -1  10   1 278.134 15.1399   1
   0  10   1 353.803 13.1115  -2
   0  10   1 353.803 13.1115   1
  -1  10   1 275.084 10.5251  -2
   1  10   1 275.084 10.5251   1
   2  10   1 137.558 8.29202   1
  -3  10   2 16.0673 2.76822  -2
   3  10   1 16.0673 2.76822   1
  -4  10   2 25.7443 2.63762  -2
   4  10   1 25.7443 2.63762   1
  -5  10   3 142.205 10.3084  -2
   5  10   1 142.205 10.3084   1
  -5  10   2 50.4656 6.30128  -2
   5  10   1 50.4656 6.30128   1
  -6  10   3 28.3146 4.03298  -2
   6  10   1 28.3146 4.03298   1
  -7  10   3 244.934 5.84570  -2
   7  10   1 244.934 5.84570   1
 -10  10   4 40.2137 2.44177  -2
  10  10   1 40.2137 2.44177   1
 -10  11   2 149.397 6.00445  -2
 -10  11   1 149.397 6.00445   1
  -7  11   1 -0.3774 2.27645  -2
  -7  11   1 -0.3774 2.27645   1
  -6  11   1 6.44840 3.57604  -2
  -6  11   1 6.44840 3.57604   1
  -5  11   1 -2.0959 5.99388  -2
  -5  11   1 -2.0959 5.99388   1
   4  11   0 305.407 11.9813  -2
  -4  11   1 305.407 11.9813   1
   3  11   0 212.819 6.88042  -2
  -3  11   1 212.819 6.88042   1
   2  11   0 39.5438 6.03713  -2
  -2  11   1 39.5438 6.03713   1
   1  11   1 22.5493 2.79041  -2
  -1  11   1 22.5493 2.79041   1
   0  11   1 35.0296 2.80943  -2
   0  11   1 35.0296 2.80943   1
  -1  11   1 23.7861 2.81899  -2
   1  11   1 23.7861 2.81899   1
  -2  11   2 179.181 10.6954  -2
   2  11   1 179.181 10.6954   1
  -3  11   2 58.7278 2.99246  -2
   3  11   1 58.7278 2.99246   1
  -4  11   2 132.988 4.55143  -2
   4  11   1 132.988 4.55143   1
  -5  11   3 79.3610 8.78683  -2
   5  11   1 79.3610 8.78683   1
  -6  11   3 176.522 7.73511  -2
   6  11   1 176.522 7.73511   1
  -7  11   3 23.5247 2.16224  -2
   7  11   1 23.5247 2.16224   1
 -10  11   4 43.1563 2.70526  -2
  10  11   1 43.1563 2.70526   1
 -10  12   2 28.2808 2.56794  -2
 -10  12   1 28.2808 2.56794   1
  -7  12   1 8.79335 2.40724  -2
  -7  12   1 8.79335 2.40724   1
  -6  12   1 77.6909 4.91921  -2
  -6  12   1 77.6909 4.91921   1
  -5  12   1 1076.11 54.1303  -2
  -5  12   1 1076.11 54.1303   1
   4  12   0 57.7923 3.69754  -2
  -4  12   1 57.7923 3.69754   1
   3  12   0 37.0099 2.16423  -2
  -3  12   1 37.0099 2.16423   1
   2  12   0 239.788 6.91729  -2
  -2  12   1 239.788 6.91729   1
   1  12   1 94.9988 3.75328  -2
  -1  12   1 94.9988 3.75328   1
   0  12   1 8.94066 1.74141  -2
   0  12   1 8.94066 1.74141   1
  -1  12   1 94.5939 3.78134  -2
   1  12   1 94.5939 3.78134   1
  -2  12   2 88.0929 5.72070  -2
   2  12   1 88.0929 5.72070   1
  -3  12   2 207.895 6.03755  -2
   3  12   1 207.895 6.03755   1
  -4  12   2 8.88776 2.46465  -2
   4  12   1 8.88776 2.46465   1
  -5  12   3 305.398 18.0184  -2
   5  12   1 305.398 18.0184   1
  -6  12   3 32.7779 4.03130  -2
   6  12   1 32.7779 4.03130   1
  -7  12   3 51.5258 3.01456  -2
   7  12   1 51.5258 3.01456   1
 -10  12   4 24.9391 3.17125  -2
  10  12   1 24.9391 3.17125   1
 -10  13   2 100.814 3.41223  -2
 -10  13   1 100.814 3.41223   1
  -7  13   1 230.594 6.58884  -2
  -7  13   1 230.594 6.58884   1
  -6  13   1 23.2371 3.66144  -2
  -6  13   1 23.2371 3.66144   1
   4  13   0 23.6392 2.97740  -2
  -4  13   1 23.6392 2.97740   1
   3  13   0 172.482 4.91863  -2
  -3  13   1 172.482 4.91863   1
   2  13   0 523.249 12.1916  -2
  -2  13   1 523.249 12.1916   1
   1  13   1 244.850 5.70959  -2
  -1  13   1 244.850 5.70959   1
   0  13   1 193.563 5.74881  -2
   0  13   1 193.563 5.74881   1
  -1  13   1 253.471 5.40868  -2
   1  13   1 253.471 5.40868   1
  -2  13   2 704.791 16.3110  -2
   2  13   1 704.791 16.3110   1
  -3  13   2 104.108 2.89194  -2
   3  13   1 104.108 2.89194   1
  -4  13   2 73.0147 5.45157  -2
   4  13   1 73.0147 5.45157   1
  -5  13   3 70.5322 8.22665  -2
   5  13   1 70.5322 8.22665   1
  -6  13   3 102.236 5.36414  -2
   6  13   1 102.236 5.36414   1
  -7  13   3 8.89229 1.86417  -2
   7  13   1 8.89229 1.86417   1
 -10  13   4 39.3064 1.82717  -2
  10  13   1 39.3064 1.82717   1
  -7  14   1 91.4102 3.40940  -2
  -7  14   1 91.4102 3.40940   1
  -6  14   1 7.53043 4.58696  -2
  -6  14   1 7.53043 4.58696   1
   4  14   0 25.0165 4.39354  -2
  -4  14   1 25.0165 4.39354   1
   3  14   0 27.7837 2.09309  -2
  -3  14   1 27.7837 2.09309   1
   2  14   0 100.980 5.14808  -2
  -2  14   1 100.980 5.14808   1
   1  14   1 526.797 15.5814  -2
  -1  14   1 526.797 15.5814   1
   0  14   1 6.57568 3.08951  -2
   0  14   1 6.57568 3.08951   1
  -1  14   1 527.792 12.3225  -2
   1  14   1 527.792 12.3225   1
  -2  14   2 23.6880 3.72942  -2
   2  14   1 23.6880 3.72942   1
  -3  14   2 41.6897 1.97477  -2
   3  14   1 41.6897 1.97477   1
  -4  14   2 18.4433 4.21278  -2
   4  14   1 18.4433 4.21278   1
  -5  14   3 177.939 11.7750  -2
   5  14   1 177.939 11.7750   1
  -6  14   3 6.12898 2.62323  -2
   6  14   1 6.12898 2.62323   1
  -7  14   3 168.980 5.05145  -2
   7  14   1 168.980 5.05145   1
  -7  15   1 218.248 7.19851  -2
  -7  15   1 218.248 7.19851   1
  -6  15   1 5.62989 3.96463  -2
  -6  15   1 5.62989 3.96463   1
   4  15   0 44.8067 4.40855  -2
  -4  15   1 44.8067 4.40855   1
   3  15   0 40.4275 2.80295  -2
  -3  15   1 40.4275 2.80295   1
   1  15   1 51.2857 3.91907  -2
  -1  15   1 51.2857 3.91907   1
   0  15   1 2.92840 2.38482  -2
   0  15   1 2.92840 2.38482   1
  -1  15   1 53.3200 3.90492  -2
   1  15   1 53.3200 3.90492   1
  -2  15   2 27.2801 3.61281  -2
   2  15   1 27.2801 3.61281   1
  -3  15   2 6.30660 2.26138  -2
   3  15   1 6.30660 2.26138   1
  -4  15   2 119.046 4.43528  -2
   4  15   1 119.046 4.43528   1
  -5  15   3 95.2053 8.09687  -2
   5  15   1 95.2053 8.09687   1
  -6  15   3 29.9524 4.77433  -2
   6  15   1 29.9524 4.77433   1
  -7  15   3 23.8319 2.40380  -2
   7  15   1 23.8319 2.40380   1
  -7  16   1 48.1521 3.72516  -2
  -7  16   1 48.1521 3.72516   1
  -6  16   1 8.89269 3.00415  -2
  -6  16   1 8.89269 3.00415   1
   4  16   0 34.9788 3.78702  -2
  -4  16   1 34.9788 3.78702   1
   3  16   0 41.0139 2.46408  -2
  -3  16   1 41.0139 2.46408   1
   2  16   0 51.6733 6.10038  -2
  -2  16   1 51.6733 6.10038   1
   1  16   1 28.7358 3.29883  -2
  -1  16   1 28.7358 3.29883   1
   0  16   1 86.0801 3.61935  -2
   0  16   1 86.0801 3.61935   1
  -1  16   1 28.5281 3.27446  -2
   1  16   1 28.5281 3.27446   1
  -2  16   2 40.9015 4.37400  -2
   2  16   1 40.9015 4.37400   1
  -3  16   2 10.4070 2.01905  -2
   3  16   1 10.4070 2.01905   1
  -4  16   2 47.1343 2.77397  -2
   4  16   1 47.1343 2.77397   1
  -6  16   3 82.8885 5.89919  -2
   6  16   1 82.8885 5.89919   1
  -7  16   3 15.2575 2.79836  -2
   7  16   1 15.2575 2.79836   1
   4  17   0 0.91632 2.77822  -2
  -4  17   1 0.91632 2.77822   1
   3  17   0 8.40986 2.30034  -2
  -3  17   1 8.40986 2.30034   1
   1  17   1 237.559 9.33313  -2
  -1  17   1 237.559 9.33313   1
   0  17   1 1.58844 1.39244  -2
   0  17   1 1.58844 1.39244   1
  -1  17   1 247.953 13.5849  -2
   1  17   1 247.953 13.5849   1
  -2  17   2 40.2490 5.83196  -2
   2  17   1 40.2490 5.83196   1
  -3  17   2 6.65646 2.17156  -2
   3  17   1 6.65646 2.17156   1
  -4  17   2 24.6142 2.11016  -2
   4  17   1 24.6142 2.11016   1
   3  18   0 11.9466 2.19608  -2
  -3  18   1 11.9466 2.19608   1
   1  18   1 20.7731 2.90607  -2
  -1  18   1 20.7731 2.90607   1
   0  18   1 -0.1250 1.97905  -2
   0  18   1 -0.1250 1.97905   1
  -1  18   1 19.8705 2.79764  -2
   1  18   1 19.8705 2.79764   1
  -3  18   2 2.84544 2.56943  -2
   3  18   1 2.84544 2.56943   1
 -13   0   2 64.2194 5.58240  -2
 -13   0   2 64.2194 5.58240   1
 -12   0   2 34.9610 6.32061  -2
 -12   0   2 34.9610 6.32061   1
 -10   0   1 4.30944 3.29755  -2
 -10   0   2 4.30944 3.29755   1
   8   0   0 2053.62 101.921  -2
  -8   0   2 2053.62 101.921   1
   7   0   0 197.289 11.0356  -2
  -7   0   2 197.289 11.0356   1
   6   0   0 507.276 25.8861  -2
  -6   0   2 507.276 25.8861   1
   5   0   1 222.072 11.9420  -2
  -5   0   2 222.072 11.9420   1
   4   0   1 722.502 20.0793  -2
  -4   0   2 722.502 20.0793   1
   3   0   1 28.6004 2.03219  -2
  -3   0   2 28.6004 2.03219   1
  -2   0   2 639.770 22.1555   1
  -1   0   2 4035.58 136.021   1
   0   0   2 4938.91 269.404  -2
   0   0   2 4938.91 269.404   1
   1   0   2 3668.23 199.457   1
   2   0   2 639.398 32.1285   1
  -3   0   3 79.3120 4.98783  -2
   3   0   2 79.3120 4.98783   1
  -4   0   3 691.101 20.4647  -2
   4   0   2 691.101 20.4647   1
  -5   0   3 4.08883 3.05746  -2
   5   0   2 4.08883 3.05746   1
  -6   0   4 378.613 19.6028  -2
   6   0   2 378.613 19.6028   1
  -7   0   4 32.7103 3.70186  -2
   7   0   2 32.7103 3.70186   1
  -8   0   4 409.858 21.7735  -2
   8   0   2 409.858 21.7735   1
 -10   0   5 178.151 7.96880  -2
  10   0   2 178.151 7.96880   1
 -11   0   5 3.33535 5.77363  -2
  11   0   2 3.33535 5.77363   1
 -12   0   6 30.8018 5.94750  -2
  12   0   2 30.8018 5.94750   1
 -13   0   6 152.210 9.20679  -2
  13   0   2 152.210 9.20679   1
 -13   1   2 28.8540 2.50644  -2
 -13   1   2 28.8540 2.50644   1
 -12   1   2 141.773 7.02235  -2
 -12   1   2 141.773 7.02235   1
 -10   1   1 513.757 13.4949  -2
 -10   1   2 513.757 13.4949   1
  -9   1   1 82.0917 9.50710  -2
  -9   1   2 82.0917 9.50710   1
   8   1   0 49.4634 3.98260  -2
  -8   1   2 49.4634 3.98260   1
   7   1   0 317.293 11.9112  -2
  -7   1   2 317.293 11.9112   1
   6   1   0 356.872 13.1591  -2
  -6   1   2 356.872 13.1591   1
   5   1   1 112.194 7.10953  -2
  -5   1   2 112.194 7.10953   1
   4   1   1 426.170 8.01093  -2
  -4   1   2 426.170 8.01093   1
   3   1   1 3724.09 78.3714  -2
  -3   1   2 3724.09 78.3714   1
  -2   1   2 1667.41 40.2511   1
  -1   1   2 567.570 13.6446   1
   0   1   2 0.61568 0.47057  -2
   0   1   2 0.61568 0.47057   1
   1   1   2 163.712 6.28925   1
   2   1   2 2578.93 128.290   1
  -3   1   3 6528.60 324.289  -2
   3   1   2 6528.60 324.289   1
  -4   1   3 213.166 5.16652  -2
   4   1   2 213.166 5.16652   1
  -5   1   3 476.612 17.0080  -2
   5   1   2 476.612 17.0080   1
  -6   1   4 1653.40 57.8454  -2
   6   1   2 1653.40 57.8454   1
  -7   1   4 71.5127 3.67697  -2
   7   1   2 71.5127 3.67697   1
  -8   1   4 80.3502 4.71286  -2
   8   1   2 80.3502 4.71286   1
  -9   1   5 15.8299 6.63292  -2
   9   1   2 15.8299 6.63292   1
 -10   1   5 6.40929 2.19097  -2
  10   1   2 6.40929 2.19097   1
 -11   1   5 237.663 14.8002  -2
  11   1   2 237.663 14.8002   1
 -12   1   6 15.0248 5.50110  -2
  12   1   2 15.0248 5.50110   1
 -13   1   6 10.4137 3.60536  -2
  13   1   2 10.4137 3.60536   1
 -13   2   2 21.2753 2.93621  -2
 -13   2   2 21.2753 2.93621   1
 -10   2   1 50.3120 2.91484  -2
 -10   2   2 50.3120 2.91484   1
  -9   2   1 406.011 29.8091  -2
  -9   2   2 406.011 29.8091   1
   8   2   0 608.533 22.2628  -2
  -8   2   2 608.533 22.2628   1
   7   2   0 238.430 8.25644  -2
  -7   2   2 238.430 8.25644   1
   6   2   0 245.361 9.40569  -2
  -6   2   2 245.361 9.40569   1
   5   2   1 50.6013 4.30837  -2
  -5   2   2 50.6013 4.30837   1
   4   2   1 245.497 5.70883  -2
  -4   2   2 245.497 5.70883   1
   3   2   1 353.850 8.15711  -2
  -3   2   2 353.850 8.15711   1
   2   2   1 1763.81 115.006  -2
  -2   2   2 1763.81 115.006   1
  -1   2   2 1048.06 28.4785   1
   0   2   2 836.008 24.4536  -2
   0   2   2 836.008 24.4536   1
  -1   2   2 2515.23 83.3933  -2
   1   2   2 2515.23 83.3933   1
  -2   2   3 464.090 31.0480  -2
   2   2   2 464.090 31.0480   1
  -3   2   3 439.913 11.7597  -2
   3   2   2 439.913 11.7597   1
  -4   2   3 450.124 11.7717  -2
   4   2   2 450.124 11.7717   1
  -5   2   3 50.5780 5.04556  -2
   5   2   2 50.5780 5.04556   1
  -6   2   4 106.348 4.02120  -2
   6   2   2 106.348 4.02120   1
  -7   2   4 409.826 15.0576  -2
   7   2   2 409.826 15.0576   1
  -8   2   4 79.5700 4.62789  -2
   8   2   2 79.5700 4.62789   1
 -10   2   5 4.88424 2.20136  -2
  10   2   2 4.88424 2.20136   1
 -11   2   5 25.5442 6.78499  -2
  11   2   2 25.5442 6.78499   1
 -12   2   6 87.7526 7.91388  -2
  12   2   2 87.7526 7.91388   1
 -13   2   6 17.0680 2.78013  -2
  13   2   2 17.0680 2.78013   1
 -13   3   2 36.6068 2.65715  -2
 -13   3   2 36.6068 2.65715   1
 -10   3   1 328.926 8.93430  -2
 -10   3   2 328.926 8.93430   1
  -9   3   1 414.837 18.0499  -2
  -9   3   2 414.837 18.0499   1
   8   3   0 93.9754 5.35079  -2
  -8   3   2 93.9754 5.35079   1
   7   3   0 48.8601 2.87241  -2
  -7   3   2 48.8601 2.87241   1
   6   3   0 109.065 4.42463  -2
  -6   3   2 109.065 4.42463   1
  -5   3   2 227.639 8.47052   1
   4   3   1 19.5576 1.22174  -2
  -4   3   2 19.5576 1.22174   1
   3   3   1 297.341 6.98439  -2
  -3   3   2 297.341 6.98439   1
  -2   3   2 24.9423 1.73857   1
   1   3   2 1021.08 29.4701  -2
  -1   3   2 1021.08 29.4701   1
   0   3   2 0.38615 0.81207  -2
   0   3   2 0.38615 0.81207   1
  -1   3   2 988.916 38.4612  -2
   1   3   2 988.916 38.4612   1
  -2   3   3 974.071 41.2394  -2
   2   3   2 974.071 41.2394   1
  -3   3   3 580.909 15.4213  -2
   3   3   2 580.909 15.4213   1
  -4   3   3 291.799 8.65418  -2
   4   3   2 291.799 8.65418   1
  -5   3   4 242.567 18.1507  -2
   5   3   2 242.567 18.1507   1
  -5   3   3 100.505 7.12232  -2
   5   3   2 100.505 7.12232   1
  -6   3   4 444.629 14.3279  -2
   6   3   2 444.629 14.3279   1
  -7   3   4 4.53154 1.87325  -2
   7   3   2 4.53154 1.87325   1
  -8   3   4 89.3435 5.02424  -2
   8   3   2 89.3435 5.02424   1
  -9   3   5 144.902 10.3400  -2
   9   3   2 144.902 10.3400   1
 -10   3   5 547.093 12.3742  -2
  10   3   2 547.093 12.3742   1
 -11   3   5 38.1197 7.54694  -2
  11   3   2 38.1197 7.54694   1
 -12   3   6 91.4351 8.06578  -2
  12   3   2 91.4351 8.06578   1
 -13   3   6 60.3331 2.56297  -2
  13   3   2 60.3331 2.56297   1
 -13   4   2 3.12649 2.23915  -2
 -13   4   2 3.12649 2.23915   1
 -10   4   1 7.99305 1.65120  -2
 -10   4   2 7.99305 1.65120   1
  -9   4   1 106.938 8.95822  -2
  -9   4   2 106.938 8.95822   1
   8   4   0 44.6131 4.07963  -2
  -8   4   2 44.6131 4.07963   1
   7   4   0 250.061 8.67085  -2
  -7   4   2 250.061 8.67085   1
   6   4   0 117.977 4.73709  -2
  -6   4   2 117.977 4.73709   1
   5   4   1 87.7462 6.58531  -2
  -5   4   2 87.7462 6.58531   1
   4   4   1 16.9090 1.33887  -2
  -4   4   2 16.9090 1.33887   1
   3   4   1 270.551 6.79213  -2
  -3   4   2 270.551 6.79213   1
   2   4   1 535.857 29.9871  -2
  -2   4   2 535.857 29.9871   1
   1   4   2 1853.22 52.2494  -2
  -1   4   2 1853.22 52.2494   1
   0   4   2 5224.45 151.969  -2
   0   4   2 5224.45 151.969   1
  -1   4   2 1684.35 51.5686  -2
   1   4   2 1684.35 51.5686   1
   2   4   2 64.1899 2.63252   1
  -3   4   3 87.6377 3.57910  -2
   3   4   2 87.6377 3.57910   1
  -4   4   3 154.345 5.13728  -2
   4   4   2 154.345 5.13728   1
  -5   4   3 165.483 10.0174  -2
   5   4   2 165.483 10.0174   1
  -6   4   4 33.6459 2.30584  -2
   6   4   2 33.6459 2.30584   1
  -7   4   4 217.878 7.60524  -2
   7   4   2 217.878 7.60524   1
  -8   4   4 75.6989 6.36507  -2
   8   4   2 75.6989 6.36507   1
  -8   4   5 298.789 23.6920  -2
   8   4   2 298.789 23.6920   1
  -9   4   5 14.1803 6.47766  -2
   9   4   2 14.1803 6.47766   1
 -10   4   5 323.798 7.06800  -2
  10   4   2 323.798 7.06800   1
 -11   4   5 105.240 9.36920  -2
  11   4   2 105.240 9.36920   1
 -12   4   6 99.7803 8.21903  -2
  12   4   2 99.7803 8.21903   1
 -13   4   6 12.6095 2.54338  -2
  13   4   2 12.6095 2.54338   1
 -13   5   2 5.03426 2.30616  -2
 -13   5   2 5.03426 2.30616   1
 -10   5   1 69.9132 2.61255  -2
 -10   5   2 69.9132 2.61255   1
  -9   5   1 123.918 9.71104  -2
  -9   5   2 123.918 9.71104   1
   7   5   0 25.0833 3.04828  -2
  -7   5   2 25.0833 3.04828   1
   6   5   0 176.492 8.06069  -2
  -6   5   2 176.492 8.06069   1
  -5   5   2 229.167 11.8323   1
   4   5   1 94.5383 3.45407  -2
  -4   5   2 94.5383 3.45407   1
   3   5   1 57.9625 2.10254  -2
  -3   5   2 57.9625 2.10254   1
   2   5   1 316.113 12.2101  -2
  -2   5   2 316.113 12.2101   1
   1   5   2 1850.45 44.2634  -2
  -1   5   2 1850.45 44.2634   1
   0   5   2 17.0315 1.05242  -2
   0   5   2 17.0315 1.05242   1
  -1   5   2 1773.52 52.4427  -2
   1   5   2 1773.52 52.4427   1
   2   5   2 2.35042 1.34436   1
  -3   5   3 200.899 7.22550  -2
   3   5   2 200.899 7.22550   1
  -4   5   3 2.59209 4.30667  -2
   4   5   2 2.59209 4.30667   1
  -5   5   4 152.527 13.1692  -2
   5   5   2 152.527 13.1692   1
  -6   5   4 76.5998 8.33331  -2
   6   5   2 76.5998 8.33331   1
  -7   5   4 18.2319 5.94914  -2
   7   5   2 18.2319 5.94914   1
  -8   5   4 25.1594 4.27804  -2
   8   5   2 25.1594 4.27804   1
  -8   5   5 154.567 15.3325  -2
   8   5   2 154.567 15.3325   1
  -9   5   5 18.4964 6.63605  -2
   9   5   2 18.4964 6.63605   1
 -10   5   5 99.6126 3.33519  -2
  10   5   2 99.6126 3.33519   1
 -11   5   5 10.2423 6.55402  -2
  11   5   2 10.2423 6.55402   1
 -12   5   6 30.1057 5.97496  -2
  12   5   2 30.1057 5.97496   1
 -13   5   6 13.5354 2.61916  -2
  13   5   2 13.5354 2.61916   1
 -13   6   2 52.4781 3.43693  -2
 -13   6   2 52.4781 3.43693   1
 -11   6   1 17.0134 3.75218  -2
 -11   6   2 17.0134 3.75218   1
 -10   6   1 155.439 4.42690  -2
 -10   6   2 155.439 4.42690   1
  -9   6   1 24.7573 6.39017  -2
  -9   6   2 24.7573 6.39017   1
   7   6   0 45.6393 3.61772  -2
  -7   6   2 45.6393 3.61772   1
   6   6   0 67.6568 8.68558  -2
  -6   6   2 67.6568 8.68558   1
  -5   6   2 132.519 5.63255   1
   4   6   1 237.311 9.35876  -2
  -4   6   2 237.311 9.35876   1
   3   6   1 94.1881 3.29974  -2
  -3   6   2 94.1881 3.29974   1
   2   6   1 63.9553 3.37636  -2
  -2   6   2 63.9553 3.37636   1
   1   6   2 332.255 9.72661  -2
  -1   6   2 332.255 9.72661   1
   0   6   2 61.7463 2.21133  -2
   0   6   2 61.7463 2.21133   1
  -1   6   2 299.885 10.8122  -2
   1   6   2 299.885 10.8122   1
   2   6   2 116.438 5.01172   1
  -3   6   3 173.562 5.86156  -2
   3   6   2 173.562 5.86156   1
  -4   6   3 18.0901 2.43289  -2
   4   6   2 18.0901 2.43289   1
  -6   6   4 42.6285 7.10093  -2
   6   6   2 42.6285 7.10093   1
  -7   6   4 2.43751 6.42598  -2
   7   6   2 2.43751 6.42598   1
  -8   6   4 65.1301 8.42986  -2
   8   6   2 65.1301 8.42986   1
  -9   6   5 33.8987 6.90136  -2
   9   6   2 33.8987 6.90136   1
 -10   6   5 40.2151 2.65889  -2
  10   6   2 40.2151 2.65889   1
 -12   6   6 33.2875 5.98106  -2
  12   6   2 33.2875 5.98106   1
 -13   6   6 39.2093 3.12348  -2
  13   6   2 39.2093 3.12348   1
 -13   7   2 18.2807 2.44043  -2
 -13   7   2 18.2807 2.44043   1
 -10   7   1 86.7388 3.10680  -2
 -10   7   2 86.7388 3.10680   1
  -9   7   1 19.9906 4.39693  -2
  -9   7   2 19.9906 4.39693   1
   6   7   0 36.6626 5.48581  -2
  -6   7   2 36.6626 5.48581   1
  -5   7   2 87.5137 6.81193   1
   4   7   1 21.9524 2.56909  -2
  -4   7   2 21.9524 2.56909   1
   3   7   1 26.6269 1.90144  -2
  -3   7   2 26.6269 1.90144   1
   2   7   1 14.2068 3.05179  -2
  -2   7   2 14.2068 3.05179   1
   1   7   2 97.9302 4.26398  -2
  -1   7   2 97.9302 4.26398   1
   0   7   2 -0.4070 0.96935  -2
   0   7   2 -0.4070 0.96935   1
  -1   7   2 92.6333 3.99967  -2
   1   7   2 92.6333 3.99967   1
   2   7   2 51.4878 4.32110   1
  -3   7   3 143.172 6.18396  -2
   3   7   2 143.172 6.18396   1
  -4   7   3 14.4943 2.33295  -2
   4   7   2 14.4943 2.33295   1
   5   7   2 11.5113 3.34419   1
  -7   7   4 26.6056 4.51743  -2
   7   7   2 26.6056 4.51743   1
  -9   7   5 3.31169 6.08275  -2
   9   7   2 3.31169 6.08275   1
 -10   7   5 34.6345 2.27322  -2
  10   7   2 34.6345 2.27322   1
 -13   7   6 31.2240 2.72599  -2
  13   7   2 31.2240 2.72599   1
 -13   8   2 31.3199 3.85993  -2
 -13   8   2 31.3199 3.85993   1
 -10   8   1 32.1656 2.49202  -2
 -10   8   2 32.1656 2.49202   1
   7   8   0 17.8713 4.84214  -2
  -7   8   2 17.8713 4.84214   1
   6   8   0 94.5513 7.95791  -2
  -6   8   2 94.5513 7.95791   1
  -5   8   2 11.7804 2.91861   1
   4   8   1 111.104 5.27789  -2
  -4   8   2 111.104 5.27789   1
   3   8   1 162.280 5.38178  -2
  -3   8   2 162.280 5.38178   1
   2   8   1 12.0670 2.96515  -2
  -2   8   2 12.0670 2.96515   1
   1   8   2 629.469 22.4676  -2
  -1   8   2 629.469 22.4676   1
   0   8   2 36.4661 1.75880  -2
   0   8   2 36.4661 1.75880   1
  -1   8   2 633.255 18.5121  -2
   1   8   2 633.255 18.5121   1
  -2   8   3 151.426 8.14757  -2
   2   8   2 151.426 8.14757   1
  -3   8   3 32.7634 2.90076  -2
   3   8   2 32.7634 2.90076   1
  -4   8   3 2.13510 2.24231  -2
   4   8   2 2.13510 2.24231   1
   5   8   2 49.2760 5.17005   1
  -6   8   4 118.615 6.94553  -2
   6   8   2 118.615 6.94553   1
  -7   8   4 47.3773 6.57907  -2
   7   8   2 47.3773 6.57907   1
  -9   8   5 73.8566 8.09527  -2
   9   8   2 73.8566 8.09527   1
 -10   8   5 16.6107 1.99066  -2
  10   8   2 16.6107 1.99066   1
 -13   8   6 37.1098 2.55504  -2
  13   8   2 37.1098 2.55504   1
 -10   9   1 111.518 4.38444  -2
 -10   9   2 111.518 4.38444   1
   7   9   0 71.4698 5.10589  -2
  -7   9   2 71.4698 5.10589   1
   6   9   0 113.014 6.56047  -2
  -6   9   2 113.014 6.56047   1
  -5   9   2 77.7104 6.38312   1
   4   9   1 8.55846 1.82887  -2
  -4   9   2 8.55846 1.82887   1
   3   9   1 91.1430 4.15116  -2
  -3   9   2 91.1430 4.15116   1
   2   9   1 148.001 8.61109  -2
  -2   9   2 148.001 8.61109   1
   1   9   2 326.687 12.1741  -2
  -1   9   2 326.687 12.1741   1
   0   9   2 5.24898 0.87590  -2
   0   9   2 5.24898 0.87590   1
  -1   9   2 328.723 10.0009  -2
   1   9   2 328.723 10.0009   1
  -2   9   3 81.8462 5.26892  -2
   2   9   2 81.8462 5.26892   1
  -3   9   3 226.286 9.11208  -2
   3   9   2 226.286 9.11208   1
  -4   9   3 13.6372 2.61836  -2
   4   9   2 13.6372 2.61836   1
  -5   9   3 187.260 12.2648  -2
   5   9   2 187.260 12.2648   1
  -6   9   4 16.3312 3.99367  -2
   6   9   2 16.3312 3.99367   1
  -7   9   4 39.4663 4.50412  -2
   7   9   2 39.4663 4.50412   1
 -10   9   5 302.032 8.72599  -2
  10   9   2 302.032 8.72599   1
 -10  10   1 4.23441 1.99769  -2
 -10  10   2 4.23441 1.99769   1
   7  10   0 170.213 5.23127  -2
  -7  10   2 170.213 5.23127   1
   6  10   0 45.0635 4.89111  -2
  -6  10   2 45.0635 4.89111   1
   5  10   0 33.8517 6.47431  -2
  -5  10   2 33.8517 6.47431   1
   4  10   1 23.9066 2.30787  -2
  -4  10   2 23.9066 2.30787   1
   3  10   1 13.5013 1.99468  -2
  -3  10   2 13.5013 1.99468   1
   2  10   1 287.050 15.4345  -2
  -2  10   2 287.050 15.4345   1
   1  10   2 146.615 6.26440  -2
  -1  10   2 146.615 6.26440   1
   0  10   2 260.797 9.93527  -2
   0  10   2 260.797 9.93527   1
  -1  10   2 147.608 5.06129  -2
   1  10   2 147.608 5.06129   1
   2  10   2 48.6544 4.35165   1
  -3  10   3 94.6010 4.88664  -2
   3  10   2 94.6010 4.88664   1
  -4  10   3 36.7980 2.86276  -2
   4  10   2 36.7980 2.86276   1
  -5  10   4 276.717 16.4966  -2
   5  10   2 276.717 16.4966   1
  -6  10   4 36.7260 4.46925  -2
   6  10   2 36.7260 4.46925   1
  -7  10   4 613.580 12.6022  -2
   7  10   2 613.580 12.6022   1
 -10  10   5 88.7321 3.68265  -2
  10  10   2 88.7321 3.68265   1
 -10  11   1 170.865 6.63316  -2
 -10  11   2 170.865 6.63316   1
   7  11   0 15.3830 2.86564  -2
  -7  11   2 15.3830 2.86564   1
   6  11   0 48.7940 3.88146  -2
  -6  11   2 48.7940 3.88146   1
   5  11   0 32.1477 6.58087  -2
  -5  11   2 32.1477 6.58087   1
   4  11   1 125.023 4.89872  -2
  -4  11   2 125.023 4.89872   1
   3  11   1 55.6622 3.34155  -2
  -3  11   2 55.6622 3.34155   1
   2  11   1 162.765 5.79767  -2
  -2  11   2 162.765 5.79767   1
   1  11   2 36.3326 3.18516  -2
  -1  11   2 36.3326 3.18516   1
   0  11   2 97.2952 4.50133  -2
   0  11   2 97.2952 4.50133   1
  -1  11   2 35.9988 3.04132  -2
   1  11   2 35.9988 3.04132   1
  -2  11   3 81.6098 3.93565  -2
   2  11   2 81.6098 3.93565   1
  -3  11   3 99.3426 3.71048  -2
   3  11   2 99.3426 3.71048   1
  -4  11   3 0.52783 1.90846  -2
   4  11   2 0.52783 1.90846   1
  -5  11   4 66.6576 8.34572  -2
   5  11   2 66.6576 8.34572   1
  -6  11   4 204.698 6.17559  -2
   6  11   2 204.698 6.17559   1
  -7  11   4 97.3564 3.23827  -2
   7  11   2 97.3564 3.23827   1
 -10  11   5 82.9093 3.48616  -2
  10  11   2 82.9093 3.48616   1
 -10  12   1 24.6682 2.53329  -2
 -10  12   2 24.6682 2.53329   1
   7  12   0 59.3687 3.17090  -2
  -7  12   2 59.3687 3.17090   1
   6  12   0 155.592 7.00461  -2
  -6  12   2 155.592 7.00461   1
   5  12   0 272.292 16.2885  -2
  -5  12   2 272.292 16.2885   1
   4  12   1 14.6780 2.21586  -2
  -4  12   2 14.6780 2.21586   1
   3  12   1 213.632 6.12568  -2
  -3  12   2 213.632 6.12568   1
   2  12   1 95.3541 4.39042  -2
  -2  12   2 95.3541 4.39042   1
   1  12   2 1358.35 39.1087  -2
  -1  12   2 1358.35 39.1087   1
   0  12   2 221.877 7.10547  -2
   0  12   2 221.877 7.10547   1
  -1  12   2 1356.57 33.0081  -2
   1  12   2 1356.57 33.0081   1
  -2  12   3 17.1537 6.36295  -2
   2  12   2 17.1537 6.36295   1
  -3  12   3 14.0600 2.41711  -2
   3  12   2 14.0600 2.41711   1
  -4  12   3 60.7202 5.23725  -2
   4  12   2 60.7202 5.23725   1
  -5  12   4 415.769 23.0825  -2
   5  12   2 415.769 23.0825   1
  -6  12   4 25.6418 3.88261  -2
   6  12   2 25.6418 3.88261   1
  -7  12   4 42.5884 2.55649  -2
   7  12   2 42.5884 2.55649   1
 -10  12   5 5.60026 1.81752  -2
  10  12   2 5.60026 1.81752   1
 -10  13   1 105.379 4.24836  -2
 -10  13   2 105.379 4.24836   1
   7  13   0 119.113 4.20957  -2
  -7  13   2 119.113 4.20957   1
   6  13   0 47.6493 3.78587  -2
  -6  13   2 47.6493 3.78587   1
   4  13   1 62.7243 3.06073  -2
  -4  13   2 62.7243 3.06073   1
   3  13   1 102.272 3.48402  -2
  -3  13   2 102.272 3.48402   1
   2  13   1 682.155 15.4788  -2
  -2  13   2 682.155 15.4788   1
   1  13   2 102.842 3.63352  -2
  -1  13   2 102.842 3.63352   1
   0  13   2 -0.4184 1.20886  -2
   0  13   2 -0.4184 1.20886   1
  -1  13   2 104.703 3.08157  -2
   1  13   2 104.703 3.08157   1
  -2  13   3 538.603 12.7984  -2
   2  13   2 538.603 12.7984   1
  -3  13   3 50.8404 2.10068  -2
   3  13   2 50.8404 2.10068   1
  -4  13   3 147.024 7.39192  -2
   4  13   2 147.024 7.39192   1
  -5  13   4 146.540 10.7279  -2
   5  13   2 146.540 10.7279   1
  -6  13   4 132.119 6.21397  -2
   6  13   2 132.119 6.21397   1
  -7  13   4 31.9423 2.49326  -2
   7  13   2 31.9423 2.49326   1
 -10  13   5 14.5274 1.39787  -2
  10  13   2 14.5274 1.39787   1
   7  14   0 84.3735 3.20762  -2
  -7  14   2 84.3735 3.20762   1
   6  14   0 18.2585 5.05968  -2
  -6  14   2 18.2585 5.05968   1
   4  14   1 15.1214 4.21140  -2
  -4  14   2 15.1214 4.21140   1
   3  14   1 38.5511 3.21237  -2
  -3  14   2 38.5511 3.21237   1
   2  14   1 14.1248 4.46517  -2
  -2  14   2 14.1248 4.46517   1
   1  14   2 164.549 7.75036  -2
  -1  14   2 164.549 7.75036   1
   0  14   2 19.8140 3.33663  -2
   0  14   2 19.8140 3.33663   1
  -1  14   2 167.244 4.45008  -2
   1  14   2 167.244 4.45008   1
  -2  14   3 174.904 6.76232  -2
   2  14   2 174.904 6.76232   1
  -3  14   3 138.269 4.47760  -2
   3  14   2 138.269 4.47760   1
  -4  14   3 51.0136 4.86226  -2
   4  14   2 51.0136 4.86226   1
  -5  14   4 30.1158 6.52453  -2
   5  14   2 30.1158 6.52453   1
  -6  14   4 37.2627 3.21642  -2
   6  14   2 37.2627 3.21642   1
  -7  14   4 172.212 4.52818  -2
   7  14   2 172.212 4.52818   1
   7  15   0 47.8713 2.96640  -2
  -7  15   2 47.8713 2.96640   1
   6  15   0 41.9745 5.14199  -2
  -6  15   2 41.9745 5.14199   1
   4  15   1 122.091 6.41537  -2
  -4  15   2 122.091 6.41537   1
   3  15   1 3.65188 1.52923  -2
  -3  15   2 3.65188 1.52923   1
   2  15   1 42.6250 6.72920  -2
  -2  15   2 42.6250 6.72920   1
   1  15   2 207.014 7.37278  -2
  -1  15   2 207.014 7.37278   1
   0  15   2 100.515 4.65752  -2
   0  15   2 100.515 4.65752   1
  -1  15   2 207.920 7.38075  -2
   1  15   2 207.920 7.38075   1
  -2  15   3 16.1572 4.19383  -2
   2  15   2 16.1572 4.19383   1
  -3  15   3 66.3517 3.16710  -2
   3  15   2 66.3517 3.16710   1
  -4  15   3 199.395 6.75618  -2
   4  15   2 199.395 6.75618   1
  -6  15   4 22.5371 4.54096  -2
   6  15   2 22.5371 4.54096   1
  -7  15   4 33.6840 2.58336  -2
   7  15   2 33.6840 2.58336   1
   7  16   0 38.1199 3.44205  -2
  -7  16   2 38.1199 3.44205   1
   6  16   0 24.7183 3.49663  -2
  -6  16   2 24.7183 3.49663   1
   4  16   1 51.3916 4.28831  -2
  -4  16   2 51.3916 4.28831   1
   3  16   1 11.5125 1.79392  -2
  -3  16   2 11.5125 1.79392   1
   2  16   1 31.6157 5.90515  -2
  -2  16   2 31.6157 5.90515   1
   1  16   2 33.7473 4.16077  -2
  -1  16   2 33.7473 4.16077   1
   0  16   2 7.49678 1.87419  -2
   0  16   2 7.49678 1.87419   1
  -1  16   2 39.5853 3.47579  -2
   1  16   2 39.5853 3.47579   1
  -2  16   3 37.9601 4.32747  -2
   2  16   2 37.9601 4.32747   1
  -3  16   3 7.45853 2.03956  -2
   3  16   2 7.45853 2.03956   1
  -4  16   3 34.9554 2.56531  -2
   4  16   2 34.9554 2.56531   1
  -6  16   4 28.6311 4.08619  -2
   6  16   2 28.6311 4.08619   1
  -7  16   4 21.9790 2.92623  -2
   7  16   2 21.9790 2.92623   1
   4  17   1 26.8729 2.62780  -2
  -4  17   2 26.8729 2.62780   1
   3  17   1 8.36460 2.23108  -2
  -3  17   2 8.36460 2.23108   1
   1  17   2 68.9815 4.54904  -2
  -1  17   2 68.9815 4.54904   1
   0  17   2 59.3166 2.44642  -2
   0  17   2 59.3166 2.44642   1
  -1  17   2 74.4261 4.67781  -2
   1  17   2 74.4261 4.67781   1
  -2  17   3 45.8538 5.86426  -2
   2  17   2 45.8538 5.86426   1
  -3  17   3 5.12064 2.22378  -2
   3  17   2 5.12064 2.22378   1
  -4  17   3 33.4490 2.33261  -2
   4  17   2 33.4490 2.33261   1
   3  18   1 1.37650 2.01125  -2
  -3  18   2 1.37650 2.01125   1
   2  18   1 40.2390 4.74986  -2
  -2  18   2 40.2390 4.74986   1
   1  18   2 46.9249 3.45929  -2
  -1  18   2 46.9249 3.45929   1
   0  18   2 87.5268 3.33399  -2
   0  18   2 87.5268 3.33399   1
  -1  18   2 48.9368 3.48466  -2
   1  18   2 48.9368 3.48466   1
  -3  18   3 20.8505 2.97552  -2
   3  18   2 20.8505 2.97552   1
 -13   0   1 5.00538 3.01850  -2
 -13   0   3 5.00538 3.01850   1
  10   0   0 3.54622 3.36773  -2
 -10   0   3 3.54622 3.36773   1
   8   0   1 125.015 8.69938  -2
  -8   0   3 125.015 8.69938   1
   7   0   1 30.2440 3.75700  -2
  -7   0   3 30.2440 3.75700   1
   6   0   1 127.263 7.90009  -2
  -6   0   3 127.263 7.90009   1
   5   0   2 19.7528 3.74937  -2
  -5   0   3 19.7528 3.74937   1
   4   0   2 750.673 20.8733  -2
  -4   0   3 750.673 20.8733   1
   3   0   2 86.7599 2.85203  -2
  -3   0   3 86.7599 2.85203   1
  -2   0   3 0.72776 0.62041   1
   1   0   3 4.13317 1.86891  -2
  -1   0   3 4.13317 1.86891   1
   0   0   3 1.23433 1.17889  -2
   0   0   3 1.23433 1.17889   1
   1   0   3 1.74889 1.44936   1
   2   0   3 0.35717 1.28440   1
  -3   0   4 253.648 13.4125  -2
   3   0   3 253.648 13.4125   1
  -4   0   4 111.087 3.92197  -2
   4   0   3 111.087 3.92197   1
  -5   0   4 15.4962 3.59150  -2
   5   0   3 15.4962 3.59150   1
  -6   0   5 9.26527 3.47254  -2
   6   0   3 9.26527 3.47254   1
  -7   0   5 -1.2813 2.85697  -2
   7   0   3 -1.2813 2.85697   1
  -8   0   5 37.3405 5.26392  -2
   8   0   3 37.3405 5.26392   1
  -9   0   6 53.7757 6.64718  -2
   9   0   3 53.7757 6.64718   1
 -10   0   6 56.9903 3.17336  -2
  10   0   3 56.9903 3.17336   1
 -11   0   6 10.0946 6.24468  -2
  11   0   3 10.0946 6.24468   1
 -12   0   7 -0.6114 4.87079  -2
  12   0   3 -0.6114 4.87079   1
 -13   0   7 5.27982 3.57610  -2
  13   0   3 5.27982 3.57610   1
 -13   1   1 24.3045 2.37144  -2
 -13   1   3 24.3045 2.37144   1
  10   1   0 38.8243 2.83099  -2
 -10   1   3 38.8243 2.83099   1
   9   1   0 175.872 15.1882  -2
  -9   1   3 175.872 15.1882   1
   8   1   1 124.694 6.13016  -2
  -8   1   3 124.694 6.13016   1
   7   1   1 228.515 8.91738  -2
  -7   1   3 228.515 8.91738   1
   6   1   1 384.125 14.1478  -2
  -6   1   3 384.125 14.1478   1
   5   1   2 765.587 35.7263  -2
  -5   1   3 765.587 35.7263   1
   4   1   2 230.540 4.49223  -2
  -4   1   3 230.540 4.49223   1
   3   1   2 6728.93 141.420  -2
  -3   1   3 6728.93 141.420   1
  -2   1   3 910.783 21.5695   1
   1   1   3 415.495 20.1227  -2
  -1   1   3 415.495 20.1227   1
   0   1   3 22.5412 1.02773  -2
   0   1   3 22.5412 1.02773   1
  -1   1   3 429.644 23.9607  -2
   1   1   3 429.644 23.9607   1
   2   1   3 121.711 4.02140   1
  -3   1   4 4681.23 169.205  -2
   3   1   3 4681.23 169.205   1
  -4   1   4 506.521 10.7285  -2
   4   1   3 506.521 10.7285   1
  -5   1   4 609.741 21.6256  -2
   5   1   3 609.741 21.6256   1
  -6   1   5 378.863 13.8732  -2
   6   1   3 378.863 13.8732   1
  -7   1   5 125.124 5.41150  -2
   7   1   3 125.124 5.41150   1
  -8   1   5 11.8325 3.10055  -2
   8   1   3 11.8325 3.10055   1
  -9   1   6 12.7320 5.25797  -2
   9   1   3 12.7320 5.25797   1
 -10   1   6 49.6466 2.74149  -2
  10   1   3 49.6466 2.74149   1
 -11   1   6 160.221 11.5759  -2
  11   1   3 160.221 11.5759   1
 -12   1   7 4.43892 5.17005  -2
  12   1   3 4.43892 5.17005   1
 -13   1   7 63.9775 5.62940  -2
  13   1   3 63.9775 5.62940   1
 -13   2   1 221.293 8.77544  -2
 -13   2   3 221.293 8.77544   1
  10   2   0 26.3325 2.52538  -2
 -10   2   3 26.3325 2.52538   1
   9   2   0 164.219 14.5399  -2
  -9   2   3 164.219 14.5399   1
   8   2   1 160.124 7.22945  -2
  -8   2   3 160.124 7.22945   1
   7   2   1 437.202 14.2689  -2
  -7   2   3 437.202 14.2689   1
   6   2   1 135.799 5.87555  -2
  -6   2   3 135.799 5.87555   1
  -5   2   3 10.4937 1.28679   1
   4   2   2 476.129 8.84738  -2
  -4   2   3 476.129 8.84738   1
   3   2   2 448.059 10.2602  -2
  -3   2   3 448.059 10.2602   1
   2   2   2 439.847 29.3308  -2
  -2   2   3 439.847 29.3308   1
   1   2   3 436.403 14.9715  -2
  -1   2   3 436.403 14.9715   1
   0   2   3 1984.57 49.8976  -2
   0   2   3 1984.57 49.8976   1
  -1   2   3 414.526 14.1035  -2
   1   2   3 414.526 14.1035   1
  -2   2   4 101.966 5.73153  -2
   2   2   3 101.966 5.73153   1
  -3   2   4 819.170 22.2257  -2
   3   2   3 819.170 22.2257   1
  -4   2   4 365.865 8.73269  -2
   4   2   3 365.865 8.73269   1
  -5   2   4 26.2147 4.22007  -2
   5   2   3 26.2147 4.22007   1
  -6   2   5 1032.27 30.4658  -2
   6   2   3 1032.27 30.4658   1
  -7   2   5 68.5301 3.27022  -2
   7   2   3 68.5301 3.27022   1
  -8   2   5 107.329 5.37498  -2
   8   2   3 107.329 5.37498   1
  -9   2   6 131.561 6.67290  -2
   9   2   3 131.561 6.67290   1
 -10   2   6 90.1629 3.60519  -2
  10   2   3 90.1629 3.60519   1
 -11   2   6 18.4915 6.52992  -2
  11   2   3 18.4915 6.52992   1
 -12   2   7 161.686 10.7031  -2
  12   2   3 161.686 10.7031   1
 -13   2   7 100.574 4.90535  -2
  13   2   3 100.574 4.90535   1
 -13   3   1 9.07087 2.05523  -2
 -13   3   3 9.07087 2.05523   1
  10   3   0 411.534 10.8152  -2
 -10   3   3 411.534 10.8152   1
   9   3   0 205.216 12.8037  -2
  -9   3   3 205.216 12.8037   1
   8   3   1 49.9343 5.57564  -2
  -8   3   3 49.9343 5.57564   1
   7   3   1 21.5813 2.34968  -2
  -7   3   3 21.5813 2.34968   1
   6   3   1 141.200 5.36151  -2
  -6   3   3 141.200 5.36151   1
   5   3   2 109.139 7.42444  -2
  -5   3   3 109.139 7.42444   1
   4   3   2 292.658 5.85582  -2
  -4   3   3 292.658 5.85582   1
   3   3   2 596.425 13.6021  -2
  -3   3   3 596.425 13.6021   1
  -2   3   3 333.979 9.39616   1
   1   3   3 3130.79 84.7312  -2
  -1   3   3 3130.79 84.7312   1
   0   3   3 12.4074 1.10511  -2
   0   3   3 12.4074 1.10511   1
  -1   3   3 3117.38 120.198  -2
   1   3   3 3117.38 120.198   1
  -2   3   4 451.286 19.7068  -2
   2   3   3 451.286 19.7068   1
  -3   3   4 501.309 10.9355  -2
   3   3   3 501.309 10.9355   1
  -4   3   4 709.912 19.9128  -2
   4   3   3 709.912 19.9128   1
   5   3   3 9.86915 1.29656   1
  -6   3   5 249.303 7.37030  -2
   6   3   3 249.303 7.37030   1
  -7   3   5 6.68102 1.82313  -2
   7   3   3 6.68102 1.82313   1
  -8   3   5 39.6679 3.63422  -2
   8   3   3 39.6679 3.63422   1
  -9   3   6 196.792 8.69364  -2
   9   3   3 196.792 8.69364   1
 -10   3   6 110.636 3.33152  -2
  10   3   3 110.636 3.33152   1
 -11   3   6 167.808 11.8263  -2
  11   3   3 167.808 11.8263   1
 -12   3   7 138.196 9.89911  -2
  12   3   3 138.196 9.89911   1
 -13   3   7 9.01531 2.60421  -2
  13   3   3 9.01531 2.60421   1
 -13   4   1 16.0095 1.74287  -2
 -13   4   3 16.0095 1.74287   1
  10   4   0 25.7370 1.96560  -2
 -10   4   3 25.7370 1.96560   1
   9   4   0 71.5088 7.28133  -2
  -9   4   3 71.5088 7.28133   1
   8   4   1 222.672 12.9117  -2
  -8   4   3 222.672 12.9117   1
   7   4   1 82.8360 3.84762  -2
  -7   4   3 82.8360 3.84762   1
   6   4   1 129.352 5.09275  -2
  -6   4   3 129.352 5.09275   1
   5   4   2 143.513 8.90058  -2
  -5   4   3 143.513 8.90058   1
   4   4   2 155.721 4.08782  -2
  -4   4   3 155.721 4.08782   1
   3   4   2 90.2140 2.35404  -2
  -3   4   3 90.2140 2.35404   1
   2   4   2 89.2300 6.63317  -2
  -2   4   3 89.2300 6.63317   1
   1   4   3 174.868 4.54435  -2
  -1   4   3 174.868 4.54435   1
   0   4   3 705.963 15.8906  -2
   0   4   3 705.963 15.8906   1
  -1   4   3 166.557 4.77349  -2
   1   4   3 166.557 4.77349   1
  -2   4   4 518.175 26.1812  -2
   2   4   3 518.175 26.1812   1
  -3   4   4 289.479 8.52506  -2
   3   4   3 289.479 8.52506   1
  -4   4   4 214.919 7.69888  -2
   4   4   3 214.919 7.69888   1
   5   4   3 25.4691 3.77617   1
  -6   4   5 99.7925 5.83052  -2
   6   4   3 99.7925 5.83052   1
  -7   4   5 10.8396 3.13439  -2
   7   4   3 10.8396 3.13439   1
  -8   4   5 330.562 17.5949  -2
   8   4   3 330.562 17.5949   1
  -9   4   6 313.923 12.4865  -2
   9   4   3 313.923 12.4865   1
 -10   4   6 127.533 3.89900  -2
  10   4   3 127.533 3.89900   1
 -11   4   6 121.476 10.0122  -2
  11   4   3 121.476 10.0122   1
 -12   4   7 30.0891 5.87763  -2
  12   4   3 30.0891 5.87763   1
 -13   4   7 49.7136 3.39757  -2
  13   4   3 49.7136 3.39757   1
 -13   5   1 5.16933 2.31079  -2
 -13   5   3 5.16933 2.31079   1
  10   5   0 35.2067 2.06888  -2
 -10   5   3 35.2067 2.06888   1
   9   5   0 199.877 13.1081  -2
  -9   5   3 199.877 13.1081   1
   7   5   1 7.90087 2.64143  -2
  -7   5   3 7.90087 2.64143   1
   6   5   1 375.608 15.7636  -2
  -6   5   3 375.608 15.7636   1
  -5   5   3 91.8795 5.44615   1
   4   5   2 -1.3141 1.75617  -2
  -4   5   3 -1.3141 1.75617   1
   3   5   2 188.435 4.99982  -2
  -3   5   3 188.435 4.99982   1
   2   5   2 97.4482 3.15099  -2
  -2   5   3 97.4482 3.15099   1
   1   5   3 1055.12 22.9055  -2
  -1   5   3 1055.12 22.9055   1
   0   5   3 1.56270 0.63740  -2
   0   5   3 1.56270 0.63740   1
  -1   5   3 1002.39 35.4983  -2
   1   5   3 1002.39 35.4983   1
  -2   5   4 249.625 10.0321  -2
   2   5   3 249.625 10.0321   1
  -3   5   4 476.743 13.6280  -2
   3   5   3 476.743 13.6280   1
  -4   5   4 156.320 12.5325  -2
   4   5   3 156.320 12.5325   1
  -5   5   5 55.9585 8.16694  -2
   5   5   3 55.9585 8.16694   1
  -6   5   5 109.714 10.2608  -2
   6   5   3 109.714 10.2608   1
  -7   5   5 45.1612 7.16742  -2
   7   5   3 45.1612 7.16742   1
  -9   5   6 35.5128 4.16132  -2
   9   5   3 35.5128 4.16132   1
 -10   5   6 45.7234 2.16174  -2
  10   5   3 45.7234 2.16174   1
 -11   5   6 56.2271 7.39814  -2
  11   5   3 56.2271 7.39814   1
 -12   5   7 49.9186 6.76470  -2
  12   5   3 49.9186 6.76470   1
 -13   5   7 10.7930 2.57340  -2
  13   5   3 10.7930 2.57340   1
 -13   6   1 21.7765 2.67630  -2
 -13   6   3 21.7765 2.67630   1
  10   6   0 23.1252 2.16582  -2
 -10   6   3 23.1252 2.16582   1
   7   6   1 11.1909 2.65535  -2
  -7   6   3 11.1909 2.65535   1
   6   6   1 26.4369 3.13500  -2
  -6   6   3 26.4369 3.13500   1
  -5   6   3 54.8464 4.82997   1
   4   6   2 16.3825 1.88486  -2
  -4   6   3 16.3825 1.88486   1
   3   6   2 173.022 5.46618  -2
  -3   6   3 173.022 5.46618   1
   2   6   2 574.280 20.2558  -2
  -2   6   3 574.280 20.2558   1
   1   6   3 232.134 6.13786  -2
  -1   6   3 232.134 6.13786   1
   0   6   3 469.062 16.6578  -2
   0   6   3 469.062 16.6578   1
  -1   6   3 209.038 7.64667  -2
   1   6   3 209.038 7.64667   1
  -2   6   4 229.244 12.4587  -2
   2   6   3 229.244 12.4587   1
  -3   6   4 33.3913 3.65697  -2
   3   6   3 33.3913 3.65697   1
  -4   6   4 151.010 12.4093  -2
   4   6   3 151.010 12.4093   1
  -6   6   5 37.6311 7.17130  -2
   6   6   3 37.6311 7.17130   1
  -7   6   5 34.9041 7.58868  -2
   7   6   3 34.9041 7.58868   1
  -8   6   5 54.0873 8.00103  -2
   8   6   3 54.0873 8.00103   1
  -9   6   6 27.2408 6.58957  -2
   9   6   3 27.2408 6.58957   1
 -10   6   6 178.888 5.32585  -2
  10   6   3 178.888 5.32585   1
 -12   6   7 13.4343 5.24815  -2
  12   6   3 13.4343 5.24815   1
 -13   6   7 15.6744 2.49624  -2
  13   6   3 15.6744 2.49624   1
 -13   7   1 23.1145 2.59399  -2
 -13   7   3 23.1145 2.59399   1
  10   7   0 159.467 4.42290  -2
 -10   7   3 159.467 4.42290   1
   7   7   1 49.4675 4.38019  -2
  -7   7   3 49.4675 4.38019   1
   6   7   1 19.2258 2.94654  -2
  -6   7   3 19.2258 2.94654   1
  -5   7   3 12.1057 3.12094   1
   4   7   2 24.5697 1.98629  -2
  -4   7   3 24.5697 1.98629   1
   3   7   2 146.376 4.90345  -2
  -3   7   3 146.376 4.90345   1
   2   7   2 162.944 9.03751  -2
  -2   7   3 162.944 9.03751   1
   1   7   3 147.373 5.88898  -2
  -1   7   3 147.373 5.88898   1
   0   7   3 0.69208 1.03242  -2
   0   7   3 0.69208 1.03242   1
  -1   7   3 143.800 5.62707  -2
   1   7   3 143.800 5.62707   1
   2   7   3 26.8967 3.60944   1
  -3   7   4 129.707 5.79619  -2
   3   7   3 129.707 5.79619   1
  -4   7   4 63.5163 3.84690  -2
   4   7   3 63.5163 3.84690   1
  -5   7   4 139.508 10.2736  -2
   5   7   3 139.508 10.2736   1
  -7   7   5 265.137 13.5776  -2
   7   7   3 265.137 13.5776   1
  -9   7   6 76.0056 8.23644  -2
   9   7   3 76.0056 8.23644   1
 -10   7   6 7.82388 1.88247  -2
  10   7   3 7.82388 1.88247   1
 -13   7   7 2.33462 3.25810  -2
  13   7   3 2.33462 3.25810   1
 -13   8   1 5.35413 2.05612  -2
 -13   8   3 5.35413 2.05612   1
  10   8   0 69.8903 3.13509  -2
 -10   8   3 69.8903 3.13509   1
   7   8   1 110.713 6.18177  -2
  -7   8   3 110.713 6.18177   1
  -5   8   3 36.9521 4.81130   1
   4   8   2 2.66437 1.79287  -2
  -4   8   3 2.66437 1.79287   1
   3   8   2 40.9741 2.67012  -2
  -3   8   3 40.9741 2.67012   1
   2   8   2 178.341 9.95819  -2
  -2   8   3 178.341 9.95819   1
   1   8   3 36.2231 2.67106  -2
  -1   8   3 36.2231 2.67106   1
   0   8   3 1558.61 44.7151  -2
   0   8   3 1558.61 44.7151   1
  -1   8   3 27.6346 2.00601  -2
   1   8   3 27.6346 2.00601   1
  -2   8   4 208.280 10.8371  -2
   2   8   3 208.280 10.8371   1
  -3   8   4 89.9076 4.57386  -2
   3   8   3 89.9076 4.57386   1
  -4   8   4 31.7793 3.07328  -2
   4   8   3 31.7793 3.07328   1
   5   8   3 5.67358 2.84185   1
  -6   8   5 64.3876 5.35191  -2
   6   8   3 64.3876 5.35191   1
  -7   8   5 9.74075 5.50292  -2
   7   8   3 9.74075 5.50292   1
  -9   8   6 160.612 11.3441  -2
   9   8   3 160.612 11.3441   1
 -10   8   6 189.903 4.89272  -2
  10   8   3 189.903 4.89272   1
 -13   8   7 27.7208 3.59414  -2
  13   8   3 27.7208 3.59414   1
  10   9   0 65.1772 3.42354  -2
 -10   9   3 65.1772 3.42354   1
   7   9   1 11.8925 3.28482  -2
  -7   9   3 11.8925 3.28482   1
   6   9   1 69.1102 6.98103  -2
  -6   9   3 69.1102 6.98103   1
   4   9   2 13.2766 2.22457  -2
  -4   9   3 13.2766 2.22457   1
   3   9   2 225.426 8.71420  -2
  -3   9   3 225.426 8.71420   1
   2   9   2 95.0861 6.35086  -2
  -2   9   3 95.0861 6.35086   1
   1   9   3 240.499 9.27892  -2
  -1   9   3 240.499 9.27892   1
   0   9   3 50.2065 2.19019  -2
   0   9   3 50.2065 2.19019   1
  -1   9   3 228.028 7.20958  -2
   1   9   3 228.028 7.20958   1
  -2   9   4 139.334 5.70483  -2
   2   9   3 139.334 5.70483   1
  -3   9   4 227.457 9.20457  -2
   3   9   3 227.457 9.20457   1
  -4   9   4 112.105 5.46818  -2
   4   9   3 112.105 5.46818   1
  -5   9   4 289.507 17.0427  -2
   5   9   3 289.507 17.0427   1
  -6   9   5 112.995 5.47330  -2
   6   9   3 112.995 5.47330   1
  -7   9   5 115.444 6.74342  -2
   7   9   3 115.444 6.74342   1
 -10   9   6 71.6231 3.45114  -2
  10   9   3 71.6231 3.45114   1
  10  10   0 52.7438 2.99885  -2
 -10  10   3 52.7438 2.99885   1
   7  10   1 263.859 7.16636  -2
  -7  10   3 263.859 7.16636   1
   6  10   1 40.7376 4.79853  -2
  -6  10   3 40.7376 4.79853   1
   5  10   1 149.332 10.7363  -2
  -5  10   3 149.332 10.7363   1
   4  10   2 32.5557 2.77336  -2
  -4  10   3 32.5557 2.77336   1
   3  10   2 97.6493 4.52772  -2
  -3  10   3 97.6493 4.52772   1
   2  10   2 138.645 6.11271  -2
  -2  10   3 138.645 6.11271   1
   1  10   3 90.6492 4.56318  -2
  -1  10   3 90.6492 4.56318   1
   0  10   3 740.524 18.7181  -2
   0  10   3 740.524 18.7181   1
  -1  10   3 82.3224 3.39707  -2
   1  10   3 82.3224 3.39707   1
  -2  10   4 92.6058 3.80829  -2
   2  10   3 92.6058 3.80829   1
  -3  10   4 28.5482 2.94280  -2
   3  10   3 28.5482 2.94280   1
  -4  10   4 116.214 4.59690  -2
   4  10   3 116.214 4.59690   1
  -5  10   5 31.8913 7.23706  -2
   5  10   3 31.8913 7.23706   1
  -6  10   5 54.6753 4.87856  -2
   6  10   3 54.6753 4.87856   1
  -7  10   5 61.8236 2.66513  -2
   7  10   3 61.8236 2.66513   1
  -8  10   5 148.267 11.6237  -2
   8  10   3 148.267 11.6237   1
 -10  10   6 60.2279 3.14816  -2
  10  10   3 60.2279 3.14816   1
  10  11   0 75.4770 3.99374  -2
 -10  11   3 75.4770 3.99374   1
   7  11   1 24.1305 2.88248  -2
  -7  11   3 24.1305 2.88248   1
   6  11   1 185.030 7.92727  -2
  -6  11   3 185.030 7.92727   1
   5  11   1 89.0480 8.66232  -2
  -5  11   3 89.0480 8.66232   1
   4  11   2 6.33339 2.04068  -2
  -4  11   3 6.33339 2.04068   1
   3  11   2 107.050 4.99007  -2
  -3  11   3 107.050 4.99007   1
   2  11   2 69.8053 4.22430  -2
  -2  11   3 69.8053 4.22430   1
   1  11   3 98.8202 4.99251  -2
  -1  11   3 98.8202 4.99251   1
   0  11   3 1.07193 1.22899  -2
   0  11   3 1.07193 1.22899   1
  -1  11   3 95.5822 3.99599  -2
   1  11   3 95.5822 3.99599   1
  -2  11   4 377.707 9.93938  -2
   2  11   3 377.707 9.93938   1
  -3  11   4 110.995 3.99435  -2
   3  11   3 110.995 3.99435   1
  -4  11   4 50.2439 2.83450  -2
   4  11   3 50.2439 2.83450   1
  -5  11   5 335.318 19.3426  -2
   5  11   3 335.318 19.3426   1
  -6  11   5 83.9418 3.36939  -2
   6  11   3 83.9418 3.36939   1
  -7  11   5 80.2714 2.99119  -2
   7  11   3 80.2714 2.99119   1
 -10  11   6 13.7109 2.06744  -2
  10  11   3 13.7109 2.06744   1
  10  12   0 22.2330 2.46463  -2
 -10  12   3 22.2330 2.46463   1
   7  12   1 45.4609 2.95225  -2
  -7  12   3 45.4609 2.95225   1
   6  12   1 39.0353 4.02681  -2
  -6  12   3 39.0353 4.02681   1
  -5  12   3 134.147 8.86759   1
   4  12   2 48.2173 2.83664  -2
  -4  12   3 48.2173 2.83664   1
   3  12   2 16.0385 2.06258  -2
  -3  12   3 16.0385 2.06258   1
   2  12   2 22.8998 3.67165  -2
  -2  12   3 22.8998 3.67165   1
   1  12   3 85.8613 4.10389  -2
  -1  12   3 85.8613 4.10389   1
   0  12   3 52.8292 2.43759  -2
   0  12   3 52.8292 2.43759   1
  -1  12   3 90.2443 3.67989  -2
   1  12   3 90.2443 3.67989   1
  -2  12   4 24.4829 3.53174  -2
   2  12   3 24.4829 3.53174   1
  -3  12   4 16.3601 2.62073  -2
   3  12   3 16.3601 2.62073   1
  -4  12   4 48.1689 3.84677  -2
   4  12   3 48.1689 3.84677   1
  -5  12   5 148.679 10.9405  -2
   5  12   3 148.679 10.9405   1
  -6  12   5 8.92694 3.52155  -2
   6  12   3 8.92694 3.52155   1
  -7  12   5 25.4367 2.09467  -2
   7  12   3 25.4367 2.09467   1
 -10  12   6 21.2520 1.92780  -2
  10  12   3 21.2520 1.92780   1
  10  13   0 24.7777 2.20267  -2
 -10  13   3 24.7777 2.20267   1
   7  13   1 11.7673 2.28966  -2
  -7  13   3 11.7673 2.28966   1
   6  13   1 104.649 5.21367  -2
  -6  13   3 104.649 5.21367   1
   4  13   2 152.072 6.11990  -2
  -4  13   3 152.072 6.11990   1
   3  13   2 50.8745 2.47002  -2
  -3  13   3 50.8745 2.47002   1
   2  13   2 580.150 13.3390  -2
  -2  13   3 580.150 13.3390   1
   1  13   3 122.232 3.99955  -2
  -1  13   3 122.232 3.99955   1
   0  13   3 29.5834 1.79763  -2
   0  13   3 29.5834 1.79763   1
  -1  13   3 121.540 3.30627  -2
   1  13   3 121.540 3.30627   1
  -2  13   4 170.044 4.29010  -2
   2  13   3 170.044 4.29010   1
  -3  13   4 0.29370 1.49580  -2
   3  13   3 0.29370 1.49580   1
  -4  13   4 186.307 6.76153  -2
   4  13   3 186.307 6.76153   1
  -5  13   5 143.980 10.8737  -2
   5  13   3 143.980 10.8737   1
  -6  13   5 27.9957 3.78662  -2
   6  13   3 27.9957 3.78662   1
  -7  13   5 39.5711 2.67186  -2
   7  13   3 39.5711 2.67186   1
 -10  13   6 37.9265 1.99440  -2
  10  13   3 37.9265 1.99440   1
   9  14   0 36.9307 3.55571  -2
  -9  14   3 36.9307 3.55571   1
   7  14   1 178.334 6.42809  -2
  -7  14   3 178.334 6.42809   1
   6  14   1 3.05786 4.74220  -2
  -6  14   3 3.05786 4.74220   1
   4  14   2 39.2896 4.47834  -2
  -4  14   3 39.2896 4.47834   1
   3  14   2 140.626 5.66972  -2
  -3  14   3 140.626 5.66972   1
   2  14   2 164.964 7.95270  -2
  -2  14   3 164.964 7.95270   1
   1  14   3 42.0291 4.60504  -2
  -1  14   3 42.0291 4.60504   1
   0  14   3 12.5143 2.47276  -2
   0  14   3 12.5143 2.47276   1
  -1  14   3 36.3067 2.52225  -2
   1  14   3 36.3067 2.52225   1
  -2  14   4 204.235 6.37807  -2
   2  14   3 204.235 6.37807   1
  -3  14   4 42.9527 2.67143  -2
   3  14   3 42.9527 2.67143   1
  -4  14   4 96.5732 5.98822  -2
   4  14   3 96.5732 5.98822   1
  -5  14   5 39.2935 6.52450  -2
   5  14   3 39.2935 6.52450   1
  -6  14   5 157.516 6.54766  -2
   6  14   3 157.516 6.54766   1
  -7  14   5 19.4239 1.85753  -2
   7  14   3 19.4239 1.85753   1
   7  15   1 17.8230 2.45544  -2
  -7  15   3 17.8230 2.45544   1
   6  15   1 25.9679 4.21857  -2
  -6  15   3 25.9679 4.21857   1
   4  15   2 197.653 8.63341  -2
  -4  15   3 197.653 8.63341   1
   3  15   2 62.1606 2.44636  -2
  -3  15   3 62.1606 2.44636   1
   2  15   2 19.1613 4.23385  -2
  -2  15   3 19.1613 4.23385   1
   1  15   3 40.4286 4.65499  -2
  -1  15   3 40.4286 4.65499   1
   0  15   3 2.40479 1.85117  -2
   0  15   3 2.40479 1.85117   1
  -1  15   3 40.1872 3.26911  -2
   1  15   3 40.1872 3.26911   1
  -2  15   4 37.8861 4.72167  -2
   2  15   3 37.8861 4.72167   1
  -3  15   4 64.6618 2.71446  -2
   3  15   3 64.6618 2.71446   1
  -4  15   4 89.4171 4.21759  -2
   4  15   3 89.4171 4.21759   1
  -6  15   5 39.5837 5.07181  -2
   6  15   3 39.5837 5.07181   1
  -7  15   5 10.7802 2.20195  -2
   7  15   3 10.7802 2.20195   1
   7  16   1 15.7883 2.78930  -2
  -7  16   3 15.7883 2.78930   1
   6  16   1 78.2112 5.68197  -2
  -6  16   3 78.2112 5.68197   1
   4  16   2 30.6997 4.01496  -2
  -4  16   3 30.6997 4.01496   1
   3  16   2 8.51429 2.64818  -2
  -3  16   3 8.51429 2.64818   1
   2  16   2 29.6382 4.12574  -2
  -2  16   3 29.6382 4.12574   1
   1  16   3 37.1125 4.32618  -2
  -1  16   3 37.1125 4.32618   1
   0  16   3 157.360 5.26652  -2
   0  16   3 157.360 5.26652   1
  -1  16   3 34.6464 3.33896  -2
   1  16   3 34.6464 3.33896   1
  -2  16   4 68.8905 5.03039  -2
   2  16   3 68.8905 5.03039   1
  -3  16   4 56.0823 2.88516  -2
   3  16   3 56.0823 2.88516   1
  -4  16   4 14.3069 2.57635  -2
   4  16   3 14.3069 2.57635   1
  -6  16   5 39.7684 4.56360  -2
   6  16   3 39.7684 4.56360   1
  -7  16   5 51.7112 3.95604  -2
   7  16   3 51.7112 3.95604   1
   4  17   2 30.3402 3.43523  -2
  -4  17   3 30.3402 3.43523   1
   3  17   2 6.34258 2.15021  -2
  -3  17   3 6.34258 2.15021   1
   2  17   2 42.5441 3.80766  -2
  -2  17   3 42.5441 3.80766   1
   1  17   3 20.8147 3.40796  -2
  -1  17   3 20.8147 3.40796   1
   0  17   3 32.9638 1.71852  -2
   0  17   3 32.9638 1.71852   1
  -1  17   3 15.1667 3.26733  -2
   1  17   3 15.1667 3.26733   1
  -3  17   4 11.4366 2.13657  -2
   3  17   3 11.4366 2.13657   1
  -4  17   4 130.910 4.00642  -2
   4  17   3 130.910 4.00642   1
   3  18   2 14.5437 2.20175  -2
  -3  18   3 14.5437 2.20175   1
   2  18   2 26.3733 4.41767  -2
  -2  18   3 26.3733 4.41767   1
   1  18   3 17.6681 2.78027  -2
  -1  18   3 17.6681 2.78027   1
   0  18   3 4.48247 1.04341  -2
   0  18   3 4.48247 1.04341   1
  -1  18   3 16.7943 2.77148  -2
   1  18   3 16.7943 2.77148   1
  -2  18   4 45.1604 4.86666  -2
   2  18   3 45.1604 4.86666   1
  -3  18   4 36.3135 3.52504  -2
   3  18   3 36.3135 3.52504   1
  13   0   0 41.8175 4.82524  -2
 -13   0   4 41.8175 4.82524   1
  10   0   1 26.9821 3.78765  -2
 -10   0   4 26.9821 3.78765   1
   8   0   2 412.865 22.0883  -2
  -8   0   4 412.865 22.0883   1
   7   0   2 35.6187 4.08961  -2
  -7   0   4 35.6187 4.08961   1
   6   0   2 368.746 19.2977  -2
  -6   0   4 368.746 19.2977   1
   5   0   3 8.46422 3.60659  -2
  -5   0   4 8.46422 3.60659   1
   4   0   3 126.015 4.18782  -2
  -4   0   4 126.015 4.18782   1
   3   0   3 276.757 9.64114  -2
  -3   0   4 276.757 9.64114   1
  -2   0   4 934.017 25.4646   1
   1   0   4 1449.19 69.3910  -2
  -1   0   4 1449.19 69.3910   1
   0   0   4 1656.82 90.3970  -2
   0   0   4 1656.82 90.3970   1
  -1   0   4 1678.95 64.8083  -2
   1   0   4 1678.95 64.8083   1
   2   0   4 761.478 28.3162   1
  -3   0   5 642.171 23.7185  -2
   3   0   4 642.171 23.7185   1
  -4   0   5 39.9184 2.28639  -2
   4   0   4 39.9184 2.28639   1
  -5   0   5 549.891 27.8117  -2
   5   0   4 549.891 27.8117   1
  -6   0   6 1076.97 53.6862  -2
   6   0   4 1076.97 53.6862   1
  -7   0   6 190.277 10.7067  -2
   7   0   4 190.277 10.7067   1
  -8   0   6 324.313 17.7427  -2
   8   0   4 324.313 17.7427   1
  -9   0   7 64.3496 6.93541  -2
   9   0   4 64.3496 6.93541   1
 -10   0   7 173.000 5.91538  -2
  10   0   4 173.000 5.91538   1
 -11   0   7 31.1023 6.43581  -2
  11   0   4 31.1023 6.43581   1
 -12   0   8 63.3645 6.46327  -2
  12   0   4 63.3645 6.46327   1
 -13   0   8 20.5594 2.81775  -2
  13   0   4 20.5594 2.81775   1
  13   1   0 6.50193 2.02334  -2
 -13   1   4 6.50193 2.02334   1
  10   1   1 206.545 5.46722  -2
 -10   1   4 206.545 5.46722   1
   9   1   1 44.5556 7.93584  -2
  -9   1   4 44.5556 7.93584   1
   8   1   2 66.0208 4.55357  -2
  -8   1   4 66.0208 4.55357   1
   7   1   2 79.3652 4.12656  -2
  -7   1   4 79.3652 4.12656   1
   6   1   2 1836.96 64.2871  -2
  -6   1   4 1836.96 64.2871   1
   5   1   3 713.241 35.0513  -2
  -5   1   4 713.241 35.0513   1
   4   1   3 573.631 11.3892  -2
  -4   1   4 573.631 11.3892   1
   3   1   3 4936.12 103.817  -2
  -3   1   4 4936.12 103.817   1
  -2   1   4 36.5657 2.45846   1
   1   1   4 504.460 24.4184  -2
  -1   1   4 504.460 24.4184   1
   0   1   4 61.9653 1.88735  -2
   0   1   4 61.9653 1.88735   1
  -1   1   4 509.868 19.1099  -2
   1   1   4 509.868 19.1099   1
   2   1   4 232.060 5.60764   1
  -3   1   5 1139.24 29.5514  -2
   3   1   4 1139.24 29.5514   1
  -4   1   5 222.070 5.08313  -2
   4   1   4 222.070 5.08313   1
  -5   1   5 560.604 28.4690  -2
   5   1   4 560.604 28.4690   1
  -6   1   6 21.9310 2.21213  -2
   6   1   4 21.9310 2.21213   1
  -7   1   6 -1.4096 1.82400  -2
   7   1   4 -1.4096 1.82400   1
  -8   1   6 89.7099 5.07014  -2
   8   1   4 89.7099 5.07014   1
  -9   1   7 58.3803 4.71613  -2
   9   1   4 58.3803 4.71613   1
 -10   1   7 474.602 12.1566  -2
  10   1   4 474.602 12.1566   1
 -11   1   7 131.715 10.1850  -2
  11   1   4 131.715 10.1850   1
 -12   1   8 20.2048 5.55799  -2
  12   1   4 20.2048 5.55799   1
 -13   1   8 23.9982 3.90420  -2
  13   1   4 23.9982 3.90420   1
  13   2   0 49.7673 3.70891  -2
 -13   2   4 49.7673 3.70891   1
  10   2   1 105.486 3.51318  -2
 -10   2   4 105.486 3.51318   1
   9   2   1 151.335 13.7309  -2
  -9   2   4 151.335 13.7309   1
   8   2   2 85.0278 5.15900  -2
  -8   2   4 85.0278 5.15900   1
   7   2   2 430.387 14.0627  -2
  -7   2   4 430.387 14.0627   1
   6   2   2 206.053 8.20877  -2
  -6   2   4 206.053 8.20877   1
   5   2   3 22.3993 2.84133  -2
  -5   2   4 22.3993 2.84133   1
   4   2   3 400.525 7.24324  -2
  -4   2   4 400.525 7.24324   1
   3   2   3 849.236 17.4477  -2
  -3   2   4 849.236 17.4477   1
   2   2   3 118.785 9.05448  -2
  -2   2   4 118.785 9.05448   1
   1   2   4 471.795 13.0392  -2
  -1   2   4 471.795 13.0392   1
   0   2   4 2331.70 46.0981  -2
   0   2   4 2331.70 46.0981   1
  -1   2   4 473.692 15.5307  -2
   1   2   4 473.692 15.5307   1
  -2   2   5 184.601 9.31647  -2
   2   2   4 184.601 9.31647   1
  -3   2   5 1641.46 38.7163  -2
   3   2   4 1641.46 38.7163   1
  -4   2   5 466.584 12.3484  -2
   4   2   4 466.584 12.3484   1
   5   2   4 194.652 11.8242   1
  -6   2   6 30.4089 2.35997  -2
   6   2   4 30.4089 2.35997   1
  -7   2   6 178.409 6.43289  -2
   7   2   4 178.409 6.43289   1
  -8   2   6 292.793 11.5032  -2
   8   2   4 292.793 11.5032   1
  -9   2   7 72.9290 4.21428  -2
   9   2   4 72.9290 4.21428   1
 -10   2   7 86.0814 3.05629  -2
  10   2   4 86.0814 3.05629   1
 -11   2   7 109.568 9.15463  -2
  11   2   4 109.568 9.15463   1
 -12   2   8 65.3981 7.01991  -2
  12   2   4 65.3981 7.01991   1
 -13   2   8 23.4962 2.19622  -2
  13   2   4 23.4962 2.19622   1
  13   3   0 15.4088 2.69274  -2
 -13   3   4 15.4088 2.69274   1
  10   3   1 403.801 8.50018  -2
 -10   3   4 403.801 8.50018   1
   9   3   1 236.066 14.0323  -2
  -9   3   4 236.066 14.0323   1
   8   3   2 94.2025 7.29828  -2
  -8   3   4 94.2025 7.29828   1
   7   3   2 3.56704 2.17443  -2
  -7   3   4 3.56704 2.17443   1
   6   3   2 482.582 15.5592  -2
  -6   3   4 482.582 15.5592   1
   5   3   3 101.096 4.68652  -2
  -5   3   4 101.096 4.68652   1
   4   3   3 726.123 13.9275  -2
  -4   3   4 726.123 13.9275   1
   3   3   3 525.203 10.7293  -2
  -3   3   4 525.203 10.7293   1
  -2   3   4 159.370 3.65524   1
   1   3   4 2909.51 78.7971  -2
  -1   3   4 2909.51 78.7971   1
   0   3   4 4.44765 0.71744  -2
   0   3   4 4.44765 0.71744   1
  -1   3   4 2907.56 88.6814  -2
   1   3   4 2907.56 88.6814   1
  -2   3   5 689.194 21.5882  -2
   2   3   4 689.194 21.5882   1
  -3   3   5 18.6324 1.35916  -2
   3   3   4 18.6324 1.35916   1
  -4   3   5 1288.22 33.6622  -2
   4   3   4 1288.22 33.6622   1
   5   3   4 5.62186 2.64715   1
  -6   3   6 215.152 6.51677  -2
   6   3   4 215.152 6.51677   1
  -7   3   6 17.4495 1.87438  -2
   7   3   4 17.4495 1.87438   1
  -8   3   6 34.5476 3.50258  -2
   8   3   4 34.5476 3.50258   1
  -9   3   7 268.129 9.06463  -2
   9   3   4 268.129 9.06463   1
 -10   3   7 11.5212 1.79549  -2
  10   3   4 11.5212 1.79549   1
 -11   3   7 17.0414 6.54375  -2
  11   3   4 17.0414 6.54375   1
 -12   3   8 49.4296 6.50272  -2
  12   3   4 49.4296 6.50272   1
 -13   3   8 44.7282 2.52005  -2
  13   3   4 44.7282 2.52005   1
  13   4   0 20.6385 1.88266  -2
 -13   4   4 20.6385 1.88266   1
  10   4   1 39.1635 2.35774  -2
 -10   4   4 39.1635 2.35774   1
   9   4   1 31.0731 6.14073  -2
  -9   4   4 31.0731 6.14073   1
   8   4   2 66.5725 6.36884  -2
  -8   4   4 66.5725 6.36884   1
   7   4   2 231.099 8.19760  -2
  -7   4   4 231.099 8.19760   1
   6   4   2 29.3598 2.78951  -2
  -6   4   4 29.3598 2.78951   1
  -5   4   4 114.885 6.67380   1
   4   4   3 234.837 6.55289  -2
  -4   4   4 234.837 6.55289   1
   3   4   3 289.070 6.90017  -2
  -3   4   4 289.070 6.90017   1
   2   4   3 453.488 12.7600  -2
  -2   4   4 453.488 12.7600   1
   1   4   4 1564.99 30.8226  -2
  -1   4   4 1564.99 30.8226   1
   0   4   4 205.195 4.41119  -2
   0   4   4 205.195 4.41119   1
  -1   4   4 1519.57 37.9820  -2
   1   4   4 1519.57 37.9820   1
  -2   4   5 396.626 15.3133  -2
   2   4   4 396.626 15.3133   1
  -3   4   5 475.625 11.8182  -2
   3   4   4 475.625 11.8182   1
  -4   4   5 5.85335 2.32773  -2
   4   4   4 5.85335 2.32773   1
   5   4   4 115.540 7.97222   1
  -6   4   6 23.4129 2.78611  -2
   6   4   4 23.4129 2.78611   1
  -7   4   6 291.534 9.82743  -2
   7   4   4 291.534 9.82743   1
  -8   4   6 8.84707 3.17908  -2
   8   4   4 8.84707 3.17908   1
  -9   4   7 489.261 18.3135  -2
   9   4   4 489.261 18.3135   1
 -10   4   7 61.0739 2.67494  -2
  10   4   4 61.0739 2.67494   1
 -11   4   7 68.6577 8.01608  -2
  11   4   4 68.6577 8.01608   1
 -12   4   8 43.9672 6.35573  -2
  12   4   4 43.9672 6.35573   1
 -13   4   8 9.56513 2.43290  -2
  13   4   4 9.56513 2.43290   1
  13   5   0 31.6867 3.07427  -2
 -13   5   4 31.6867 3.07427   1
  10   5   1 24.8622 1.95063  -2
 -10   5   4 24.8622 1.95063   1
   7   5   2 15.8829 2.85326  -2
  -7   5   4 15.8829 2.85326   1
   6   5   2 96.7511 5.33417  -2
  -6   5   4 96.7511 5.33417   1
  -5   5   4 3.40207 2.75939   1
   4   5   3 164.778 5.23844  -2
  -4   5   4 164.778 5.23844   1
   3   5   3 479.474 11.8559  -2
  -3   5   4 479.474 11.8559   1
   2   5   3 253.704 9.10616  -2
  -2   5   4 253.704 9.10616   1
   1   5   4 315.616 6.50800  -2
  -1   5   4 315.616 6.50800   1
   0   5   4 2.67105 0.72849  -2
   0   5   4 2.67105 0.72849   1
  -1   5   4 304.019 9.50236  -2
   1   5   4 304.019 9.50236   1
  -2   5   5 81.1223 4.43338  -2
   2   5   4 81.1223 4.43338   1
  -3   5   5 34.1861 2.42446  -2
   3   5   4 34.1861 2.42446   1
  -4   5   5 25.9493 3.69260  -2
   4   5   4 25.9493 3.69260   1
   5   5   4 161.289 10.5138   1
  -6   5   6 309.164 22.8010  -2
   6   5   4 309.164 22.8010   1
  -7   5   6 79.3520 9.22819  -2
   7   5   4 79.3520 9.22819   1
  -9   5   7 36.0540 4.52051  -2
   9   5   4 36.0540 4.52051   1
 -10   5   7 135.600 3.63852  -2
  10   5   4 135.600 3.63852   1
 -11   5   7 39.3931 7.14594  -2
  11   5   4 39.3931 7.14594   1
 -12   5   8 208.378 12.7612  -2
  12   5   4 208.378 12.7612   1
 -13   5   8 30.5287 2.87391  -2
  13   5   4 30.5287 2.87391   1
  13   6   0 156.632 6.49956  -2
 -13   6   4 156.632 6.49956   1
  10   6   1 45.0481 2.50440  -2
 -10   6   4 45.0481 2.50440   1
   7   6   2 6.26839 3.27469  -2
  -7   6   4 6.26839 3.27469   1
   6   6   2 45.9183 3.75359  -2
  -6   6   4 45.9183 3.75359   1
  -5   6   4 82.1483 6.19953   1
   4   6   3 124.403 4.40470  -2
  -4   6   4 124.403 4.40470   1
   3   6   3 35.4897 2.00060  -2
  -3   6   4 35.4897 2.00060   1
   2   6   3 221.063 11.2741  -2
  -2   6   4 221.063 11.2741   1
   1   6   4 640.326 18.6615  -2
  -1   6   4 640.326 18.6615   1
   0   6   4 2389.62 83.1043  -2
   0   6   4 2389.62 83.1043   1
  -1   6   4 552.710 19.4788  -2
   1   6   4 552.710 19.4788   1
  -2   6   5 36.8220 4.21847  -2
   2   6   4 36.8220 4.21847   1
  -3   6   5 2.05546 2.64853  -2
   3   6   4 2.05546 2.64853   1
  -4   6   5 426.718 29.9745  -2
   4   6   4 426.718 29.9745   1
  -6   6   6 24.4824 6.39656  -2
   6   6   4 24.4824 6.39656   1
  -7   6   6 78.6541 9.85246  -2
   7   6   4 78.6541 9.85246   1
  -8   6   6 47.1143 7.66172  -2
   8   6   4 47.1143 7.66172   1
  -9   6   7 12.6624 4.28150  -2
   9   6   4 12.6624 4.28150   1
 -10   6   7 96.5667 3.76494  -2
  10   6   4 96.5667 3.76494   1
 -11   6   7 11.4132 6.57873  -2
  11   6   4 11.4132 6.57873   1
 -12   6   8 26.3375 5.53894  -2
  12   6   4 26.3375 5.53894   1
 -13   6   8 6.87063 2.40654  -2
  13   6   4 6.87063 2.40654   1
  13   7   0 29.7325 2.15519  -2
 -13   7   4 29.7325 2.15519   1
  10   7   1 81.7502 2.76055  -2
 -10   7   4 81.7502 2.76055   1
   7   7   2 27.4655 3.90577  -2
  -7   7   4 27.4655 3.90577   1
   6   7   2 81.2045 5.94968  -2
  -6   7   4 81.2045 5.94968   1
  -5   7   4 96.6335 7.06497   1
   4   7   3 73.4498 3.73308  -2
  -4   7   4 73.4498 3.73308   1
   3   7   3 139.068 5.68107  -2
  -3   7   4 139.068 5.68107   1
  -2   7   4 51.1750 3.71960   1
   1   7   4 160.270 6.37055  -2
  -1   7   4 160.270 6.37055   1
   0   7   4 27.2182 1.88918  -2
   0   7   4 27.2182 1.88918   1
  -1   7   4 149.650 5.85796  -2
   1   7   4 149.650 5.85796   1
  -2   7   5 419.369 21.8055  -2
   2   7   4 419.369 21.8055   1
  -3   7   5 313.108 12.0042  -2
   3   7   4 313.108 12.0042   1
  -4   7   5 103.146 7.66412  -2
   4   7   4 103.146 7.66412   1
  -5   7   5 161.149 11.1860  -2
   5   7   4 161.149 11.1860   1
  -7   7   6 83.7670 8.73323  -2
   7   7   4 83.7670 8.73323   1
  -8   7   6 162.120 11.8195  -2
   8   7   4 162.120 11.8195   1
  -9   7   7 5.50619 6.43134  -2
   9   7   4 5.50619 6.43134   1
 -10   7   7 138.988 4.54885  -2
  10   7   4 138.988 4.54885   1
 -12   7   8 122.341 8.82308  -2
  12   7   4 122.341 8.82308   1
 -13   7   8 12.0708 3.24255  -2
  13   7   4 12.0708 3.24255   1
  13   8   0 132.219 4.16895  -2
 -13   8   4 132.219 4.16895   1
  10   8   1 51.5529 3.19552  -2
 -10   8   4 51.5529 3.19552   1
   9   8   1 93.0604 6.82229  -2
  -9   8   4 93.0604 6.82229   1
   7   8   2 45.2383 3.05219  -2
  -7   8   4 45.2383 3.05219   1
   6   8   2 122.462 7.65847  -2
  -6   8   4 122.462 7.65847   1
  -5   8   4 49.2837 5.70933   1
   4   8   3 37.8295 2.84691  -2
  -4   8   4 37.8295 2.84691   1
   3   8   3 101.121 4.58714  -2
  -3   8   4 101.121 4.58714   1
   2   8   3 246.478 13.2224  -2
  -2   8   4 246.478 13.2224   1
   1   8   4 46.9387 2.32810  -2
  -1   8   4 46.9387 2.32810   1
   0   8   4 72.8714 2.76794  -2
   0   8   4 72.8714 2.76794   1
  -1   8   4 45.2013 2.36636  -2
   1   8   4 45.2013 2.36636   1
  -2   8   5 6.74680 4.04953  -2
   2   8   4 6.74680 4.04953   1
  -3   8   5 40.4532 3.23295  -2
   3   8   4 40.4532 3.23295   1
  -4   8   5 52.5956 5.45721  -2
   4   8   4 52.5956 5.45721   1
  -5   8   5 188.440 12.5348  -2
   5   8   4 188.440 12.5348   1
  -6   8   6 64.8734 5.48206  -2
   6   8   4 64.8734 5.48206   1
  -7   8   6 17.6482 6.11329  -2
   7   8   4 17.6482 6.11329   1
  -9   8   7 100.964 8.86141  -2
   9   8   4 100.964 8.86141   1
 -10   8   7 70.9906 2.84462  -2
  10   8   4 70.9906 2.84462   1
 -13   8   8 21.6281 3.50698  -2
  13   8   4 21.6281 3.50698   1
  10   9   1 118.750 3.95392  -2
 -10   9   4 118.750 3.95392   1
   7   9   2 35.6054 6.39037  -2
  -7   9   4 35.6054 6.39037   1
   6   9   2 12.1551 5.38686  -2
  -6   9   4 12.1551 5.38686   1
   4   9   3 112.417 5.15226  -2
  -4   9   4 112.417 5.15226   1
   3   9   3 232.431 9.02282  -2
  -3   9   4 232.431 9.02282   1
   2   9   3 153.870 9.06000  -2
  -2   9   4 153.870 9.06000   1
   1   9   4 410.613 15.0876  -2
  -1   9   4 410.613 15.0876   1
   0   9   4 192.635 6.10040  -2
   0   9   4 192.635 6.10040   1
  -1   9   4 399.016 12.0277  -2
   1   9   4 399.016 12.0277   1
  -2   9   5 36.7574 2.33484  -2
   2   9   4 36.7574 2.33484   1
  -3   9   5 31.2344 3.08109  -2
   3   9   4 31.2344 3.08109   1
  -4   9   5 188.769 7.96293  -2
   4   9   4 188.769 7.96293   1
   5   9   4 1.76024 2.84574   1
  -6   9   6 21.3693 3.41563  -2
   6   9   4 21.3693 3.41563   1
  -7   9   6 43.6102 4.50729  -2
   7   9   4 43.6102 4.50729   1
 -10   9   7 53.9631 2.75954  -2
  10   9   4 53.9631 2.75954   1
  10  10   1 36.6980 2.66997  -2
 -10  10   4 36.6980 2.66997   1
   7  10   2 620.656 14.7845  -2
  -7  10   4 620.656 14.7845   1
   6  10   2 43.6253 6.33600  -2
  -6  10   4 43.6253 6.33600   1
   5  10   2 255.739 15.3326  -2
  -5  10   4 255.739 15.3326   1
   4  10   3 124.423 5.62299  -2
  -4  10   4 124.423 5.62299   1
   3  10   3 31.8247 2.52046  -2
  -3  10   4 31.8247 2.52046   1
   2  10   3 100.980 4.96433  -2
  -2  10   4 100.980 4.96433   1
   1  10   4 56.6688 3.56370  -2
  -1  10   4 56.6688 3.56370   1
   0  10   4 232.138 6.31088  -2
   0  10   4 232.138 6.31088   1
  -1  10   4 49.7023 2.63384  -2
   1  10   4 49.7023 2.63384   1
  -2  10   5 180.818 6.10212  -2
   2  10   4 180.818 6.10212   1
  -3  10   5 19.3186 2.32954  -2
   3  10   4 19.3186 2.32954   1
  -4  10   5 107.596 5.77945  -2
   4  10   4 107.596 5.77945   1
  -5  10   6 117.211 9.79692  -2
   5  10   4 117.211 9.79692   1
  -5  10   5 52.3157 6.99396  -2
   5  10   4 52.3157 6.99396   1
  -6  10   6 44.0408 4.03028  -2
   6  10   4 44.0408 4.03028   1
  -7  10   6 33.4951 2.62924  -2
   7  10   4 33.4951 2.62924   1
  -8  10   6 169.107 12.2166  -2
   8  10   4 169.107 12.2166   1
 -10  10   7 19.0490 2.05481  -2
  10  10   4 19.0490 2.05481   1
  10  11   1 46.6682 3.20078  -2
 -10  11   4 46.6682 3.20078   1
   7  11   2 97.1974 4.31949  -2
  -7  11   4 97.1974 4.31949   1
   6  11   2 215.893 7.35813  -2
  -6  11   4 215.893 7.35813   1
   5  11   2 102.229 9.17005  -2
  -5  11   4 102.229 9.17005   1
   4  11   3 52.8842 3.24842  -2
  -4  11   4 52.8842 3.24842   1
   3  11   3 101.940 4.17876  -2
  -3  11   4 101.940 4.17876   1
   2  11   3 402.009 15.1613  -2
  -2  11   4 402.009 15.1613   1
   1  11   4 109.220 5.24694  -2
  -1  11   4 109.220 5.24694   1
   0  11   4 9.16968 1.59546  -2
   0  11   4 9.16968 1.59546   1
  -1  11   4 102.113 3.56213  -2
   1  11   4 102.113 3.56213   1
  -2  11   5 387.248 11.8155  -2
   2  11   4 387.248 11.8155   1
  -3  11   5 97.6354 3.66399  -2
   3  11   4 97.6354 3.66399   1
  -4  11   5 123.990 5.33392  -2
   4  11   4 123.990 5.33392   1
  -5  11   6 925.010 46.8746  -2
   5  11   4 925.010 46.8746   1
  -6  11   6 119.438 3.84209  -2
   6  11   4 119.438 3.84209   1
  -7  11   6 14.5061 2.00927  -2
   7  11   4 14.5061 2.00927   1
 -10  11   7 120.170 3.27580  -2
  10  11   4 120.170 3.27580   1
  10  12   1 31.1483 2.63141  -2
 -10  12   4 31.1483 2.63141   1
   7  12   2 42.1676 3.85681  -2
  -7  12   4 42.1676 3.85681   1
   6  12   2 29.3682 3.76392  -2
  -6  12   4 29.3682 3.76392   1
  -5  12   4 239.910 13.2512   1
   4  12   3 43.5398 2.44659  -2
  -4  12   4 43.5398 2.44659   1
   3  12   3 16.5827 2.18621  -2
  -3  12   4 16.5827 2.18621   1
   2  12   3 24.3280 3.88347  -2
  -2  12   4 24.3280 3.88347   1
   1  12   4 616.167 22.6132  -2
  -1  12   4 616.167 22.6132   1
   0  12   4 380.882 9.95460  -2
   0  12   4 380.882 9.95460   1
  -1  12   4 597.886 15.1583  -2
   1  12   4 597.886 15.1583   1
  -2  12   5 10.0648 2.07095  -2
   2  12   4 10.0648 2.07095   1
  -3  12   5 106.322 3.16492  -2
   3  12   4 106.322 3.16492   1
  -4  12   5 8.86004 2.21974  -2
   4  12   4 8.86004 2.21974   1
  -5  12   6 236.681 14.9063  -2
   5  12   4 236.681 14.9063   1
  -6  12   6 8.72407 2.93740  -2
   6  12   4 8.72407 2.93740   1
  -7  12   6 76.7130 2.84032  -2
   7  12   4 76.7130 2.84032   1
 -10  12   7 8.87943 1.71032  -2
  10  12   4 8.87943 1.71032   1
  10  13   1 39.7543 2.49586  -2
 -10  13   4 39.7543 2.49586   1
   7  13   2 30.3700 2.71206  -2
  -7  13   4 30.3700 2.71206   1
   6  13   2 126.763 5.67930  -2
  -6  13   4 126.763 5.67930   1
   4  13   3 177.959 6.90373  -2
  -4  13   4 177.959 6.90373   1
   3  13   3 3.76415 1.54223  -2
  -3  13   4 3.76415 1.54223   1
   2  13   3 162.220 6.29364  -2
  -2  13   4 162.220 6.29364   1
   1  13   4 164.474 5.38883  -2
  -1  13   4 164.474 5.38883   1
   0  13   4 186.763 4.11031  -2
   0  13   4 186.763 4.11031   1
  -1  13   4 166.203 3.83064  -2
   1  13   4 166.203 3.83064   1
  -2  13   5 40.0224 2.36116  -2
   2  13   4 40.0224 2.36116   1
  -3  13   5 21.8937 2.02717  -2
   3  13   4 21.8937 2.02717   1
  -4  13   5 26.1445 3.57978  -2
   4  13   4 26.1445 3.57978   1
  -5  13   6 52.8092 7.23642  -2
   5  13   4 52.8092 7.23642   1
  -6  13   6 146.304 6.61742  -2
   6  13   4 146.304 6.61742   1
  -7  13   6 187.204 5.71158  -2
   7  13   4 187.204 5.71158   1
 -10  13   7 119.281 4.49410  -2
  10  13   4 119.281 4.49410   1
   9  14   1 27.0686 3.17858  -2
  -9  14   4 27.0686 3.17858   1
   7  14   2 174.955 7.29386  -2
  -7  14   4 174.955 7.29386   1
   6  14   2 28.0313 5.07053  -2
  -6  14   4 28.0313 5.07053   1
   4  14   3 82.3052 4.84386  -2
  -4  14   4 82.3052 4.84386   1
   3  14   3 39.1808 3.31878  -2
  -3  14   4 39.1808 3.31878   1
   2  14   3 213.029 9.32696  -2
  -2  14   4 213.029 9.32696   1
   1  14   4 111.224 6.40376  -2
  -1  14   4 111.224 6.40376   1
   0  14   4 186.540 5.20919  -2
   0  14   4 186.540 5.20919   1
  -1  14   4 109.201 3.54006  -2
   1  14   4 109.201 3.54006   1
  -2  14   5 218.128 5.82252  -2
   2  14   4 218.128 5.82252   1
  -3  14   5 16.0678 2.16920  -2
   3  14   4 16.0678 2.16920   1
  -4  14   5 109.049 4.49915  -2
   4  14   4 109.049 4.49915   1
  -5  14   6 50.8414 6.94708  -2
   5  14   4 50.8414 6.94708   1
  -6  14   6 95.2045 4.95264  -2
   6  14   4 95.2045 4.95264   1
  -7  14   6 99.4157 2.85573  -2
   7  14   4 99.4157 2.85573   1
   7  15   2 38.9566 3.20955  -2
  -7  15   4 38.9566 3.20955   1
   6  15   2 14.8122 3.87919  -2
  -6  15   4 14.8122 3.87919   1
   4  15   3 97.9564 5.72705  -2
  -4  15   4 97.9564 5.72705   1
   3  15   3 65.2706 2.87096  -2
  -3  15   4 65.2706 2.87096   1
   2  15   3 33.3628 6.68912  -2
  -2  15   4 33.3628 6.68912   1
   1  15   4 31.7725 4.48674  -2
  -1  15   4 31.7725 4.48674   1
   0  15   4 5.71667 1.90034  -2
   0  15   4 5.71667 1.90034   1
  -1  15   4 25.4731 2.66624  -2
   1  15   4 25.4731 2.66624   1
  -2  15   5 93.0582 5.94620  -2
   2  15   4 93.0582 5.94620   1
  -3  15   5 40.4128 2.28511  -2
   3  15   4 40.4128 2.28511   1
  -4  15   5 221.012 8.07269  -2
   4  15   4 221.012 8.07269   1
  -6  15   6 10.2048 4.27205  -2
   6  15   4 10.2048 4.27205   1
  -7  15   6 13.9057 1.63647  -2
   7  15   4 13.9057 1.63647   1
   7  16   2 15.1058 2.68892  -2
  -7  16   4 15.1058 2.68892   1
   6  16   2 31.6862 3.90162  -2
  -6  16   4 31.6862 3.90162   1
   4  16   3 12.6239 3.58603  -2
  -4  16   4 12.6239 3.58603   1
   3  16   3 49.2120 3.58978  -2
  -3  16   4 49.2120 3.58978   1
   2  16   3 80.9435 7.51090  -2
  -2  16   4 80.9435 7.51090   1
   1  16   4 39.6260 3.60697  -2
  -1  16   4 39.6260 3.60697   1
   0  16   4 15.1814 1.90549  -2
   0  16   4 15.1814 1.90549   1
  -1  16   4 34.6346 3.43183  -2
   1  16   4 34.6346 3.43183   1
  -2  16   5 171.248 7.80699  -2
   2  16   4 171.248 7.80699   1
  -3  16   5 90.5611 3.67214  -2
   3  16   4 90.5611 3.67214   1
  -4  16   5 35.0600 2.91175  -2
   4  16   4 35.0600 2.91175   1
  -6  16   6 24.9893 3.91165  -2
   6  16   4 24.9893 3.91165   1
  -7  16   6 20.8778 2.91527  -2
   7  16   4 20.8778 2.91527   1
   4  17   3 139.554 8.42932  -2
  -4  17   4 139.554 8.42932   1
   3  17   3 11.1365 2.02404  -2
  -3  17   4 11.1365 2.02404   1
   2  17   3 125.104 8.31160  -2
  -2  17   4 125.104 8.31160   1
   1  17   4 19.7908 3.34433  -2
  -1  17   4 19.7908 3.34433   1
   0  17   4 19.2135 1.50555  -2
   0  17   4 19.2135 1.50555   1
  -1  17   4 15.0026 2.69915  -2
   1  17   4 15.0026 2.69915   1
  -3  17   5 12.9920 2.21774  -2
   3  17   4 12.9920 2.21774   1
  -4  17   5 40.9427 2.37649  -2
   4  17   4 40.9427 2.37649   1
   3  18   3 32.4662 2.51947  -2
  -3  18   4 32.4662 2.51947   1
   2  18   3 20.9908 4.06434  -2
  -2  18   4 20.9908 4.06434   1
   1  18   4 18.0886 2.81003  -2
  -1  18   4 18.0886 2.81003   1
   0  18   4 5.99981 1.13195  -2
   0  18   4 5.99981 1.13195   1
  -1  18   4 21.8962 2.79766  -2
   1  18   4 21.8962 2.79766   1
  13   0   1 4.65304 2.64397  -2
 -13   0   5 4.65304 2.64397   1
  10   0   2 165.066 5.84845  -2
 -10   0   5 165.066 5.84845   1
   8   0   3 35.5638 5.51853  -2
  -8   0   5 35.5638 5.51853   1
   7   0   3 13.8477 3.58168  -2
  -7   0   5 13.8477 3.58168   1
   6   0   3 58.4837 5.28773  -2
  -6   0   5 58.4837 5.28773   1
   4   0   4 43.4102 2.38270  -2
  -4   0   5 43.4102 2.38270   1
   3   0   4 733.573 24.5299  -2
  -3   0   5 733.573 24.5299   1
   2   0   4 828.581 37.9588  -2
  -2   0   5 828.581 37.9588   1
   1   0   5 20.8998 1.76125  -2
  -1   0   5 20.8998 1.76125   1
   0   0   5 5.40662 1.86309  -2
   0   0   5 5.40662 1.86309   1
  -1   0   5 11.5820 2.14723  -2
   1   0   5 11.5820 2.14723   1
   2   0   5 3.68999 1.07592   1
  -3   0   6 1194.75 35.4557  -2
   3   0   5 1194.75 35.4557   1
  -4   0   6 2.99069 1.89448  -2
   4   0   5 2.99069 1.89448   1
   5   0   5 1.47243 2.28026   1
  -6   0   7 9.47539 3.46493  -2
   6   0   5 9.47539 3.46493   1
  -7   0   7 -0.1174 2.65451  -2
   7   0   5 -0.1174 2.65451   1
  -8   0   7 10.3141 4.73082  -2
   8   0   5 10.3141 4.73082   1
  -9   0   8 149.009 10.2004  -2
   9   0   5 149.009 10.2004   1
 -10   0   8 57.3751 3.22346  -2
  10   0   5 57.3751 3.22346   1
 -11   0   8 37.1204 6.31055  -2
  11   0   5 37.1204 6.31055   1
 -12   0   9 -2.1430 4.86763  -2
  12   0   5 -2.1430 4.86763   1
 -13   0   9 -0.0327 2.45642  -2
  13   0   5 -0.0327 2.45642   1
  13   1   1 10.3761 2.07918  -2
 -13   1   5 10.3761 2.07918   1
  10   1   2 4.47570 1.49846  -2
 -10   1   5 4.47570 1.49846   1
   9   1   2 8.28894 6.13901  -2
  -9   1   5 8.28894 6.13901   1
   8   1   3 9.16539 3.46035  -2
  -8   1   5 9.16539 3.46035   1
   7   1   3 137.267 5.98122  -2
  -7   1   5 137.267 5.98122   1
   6   1   3 416.542 15.3240  -2
  -6   1   5 416.542 15.3240   1
   4   1   4 255.681 5.37072  -2
  -4   1   5 255.681 5.37072   1
   3   1   4 1214.91 21.9381  -2
  -3   1   5 1214.91 21.9381   1
   2   1   4 1906.54 124.074  -2
  -2   1   5 1906.54 124.074   1
   1   1   5 2656.66 87.3084  -2
  -1   1   5 2656.66 87.3084   1
   0   1   5 9.15102 0.89710  -2
   0   1   5 9.15102 0.89710   1
  -1   1   5 5495.86 118.657  -2
   1   1   5 5495.86 118.657   1
  -2   1   6 1288.31 44.6028  -2
   2   1   5 1288.31 44.6028   1
  -3   1   6 1504.59 35.2152  -2
   3   1   5 1504.59 35.2152   1
  -4   1   6 981.269 22.9192  -2
   4   1   5 981.269 22.9192   1
  -5   1   7 63.1237 6.36210  -2
   5   1   5 63.1237 6.36210   1
  -6   1   7 277.366 8.87254  -2
   6   1   5 277.366 8.87254   1
  -7   1   7 55.1451 3.23434  -2
   7   1   5 55.1451 3.23434   1
  -8   1   7 46.1523 3.97059  -2
   8   1   5 46.1523 3.97059   1
  -9   1   8 25.9871 3.38766  -2
   9   1   5 25.9871 3.38766   1
 -10   1   8 310.478 8.39209  -2
  10   1   5 310.478 8.39209   1
 -11   1   8 76.7384 7.75155  -2
  11   1   5 76.7384 7.75155   1
 -12   1   9 -0.6762 4.81667  -2
  12   1   5 -0.6762 4.81667   1
 -13   1   9 7.44892 3.37426  -2
  13   1   5 7.44892 3.37426   1
  13   2   1 21.8373 2.32344  -2
 -13   2   5 21.8373 2.32344   1
  10   2   2 4.41114 1.54783  -2
 -10   2   5 4.41114 1.54783   1
   9   2   2 52.0846 5.20618  -2
  -9   2   5 52.0846 5.20618   1
   8   2   3 114.307 5.94960  -2
  -8   2   5 114.307 5.94960   1
   7   2   3 90.0150 4.13848  -2
  -7   2   5 90.0150 4.13848   1
   6   2   3 1079.65 33.7061  -2
  -6   2   5 1079.65 33.7061   1
   5   2   4 137.827 8.24712  -2
  -5   2   5 137.827 8.24712   1
   5   2   3 50.3913 4.76817  -2
  -5   2   5 50.3913 4.76817   1
   4   2   4 519.304 9.29734  -2
  -4   2   5 519.304 9.29734   1
   3   2   4 1673.87 33.9225  -2
  -3   2   5 1673.87 33.9225   1
   2   2   4 119.121 5.16906  -2
  -2   2   5 119.121 5.16906   1
   1   2   5 3347.37 91.7483  -2
  -1   2   5 3347.37 91.7483   1
   0   2   5 9450.10 204.746  -2
   0   2   5 9450.10 204.746   1
  -1   2   5 3279.68 68.5246  -2
   1   2   5 3279.68 68.5246   1
  -2   2   6 1135.85 51.9521  -2
   2   2   5 1135.85 51.9521   1
  -3   2   6 3147.77 81.4103  -2
   3   2   5 3147.77 81.4103   1
  -4   2   6 379.125 10.1765  -2
   4   2   5 379.125 10.1765   1
  -5   2   6 145.079 8.19138  -2
   5   2   5 145.079 8.19138   1
  -6   2   7 347.494 10.8533  -2
   6   2   5 347.494 10.8533   1
  -7   2   7 63.5893 3.19979  -2
   7   2   5 63.5893 3.19979   1
  -8   2   7 180.094 7.82895  -2
   8   2   5 180.094 7.82895   1
  -9   2   8 96.0452 4.75643  -2
   9   2   5 96.0452 4.75643   1
 -10   2   8 152.791 4.35683  -2
  10   2   5 152.791 4.35683   1
 -11   2   8 77.2808 8.09142  -2
  11   2   5 77.2808 8.09142   1
 -12   2   9 6.53059 5.17248  -2
  12   2   5 6.53059 5.17248   1
 -13   2   9 92.0626 3.83068  -2
  13   2   5 92.0626 3.83068   1
  13   3   1 30.5796 3.15801  -2
 -13   3   5 30.5796 3.15801   1
  10   3   2 569.984 12.4570  -2
 -10   3   5 569.984 12.4570   1
   8   3   3 42.4387 5.61230  -2
  -8   3   5 42.4387 5.61230   1
   7   3   3 7.34631 2.21692  -2
  -7   3   5 7.34631 2.21692   1
   6   3   3 283.228 9.61279  -2
  -6   3   5 283.228 9.61279   1
   5   3   4 8.71666 2.93528  -2
  -5   3   5 8.71666 2.93528   1
   4   3   4 1311.46 27.1825  -2
  -4   3   5 1311.46 27.1825   1
   3   3   4 23.6799 1.11912  -2
  -3   3   5 23.6799 1.11912   1
   2   3   4 161.410 7.89185  -2
  -2   3   5 161.410 7.89185   1
   1   3   5 109.748 3.60602  -2
  -1   3   5 109.748 3.60602   1
   0   3   5 15.4329 0.83454  -2
   0   3   5 15.4329 0.83454   1
  -1   3   5 107.853 3.39866  -2
   1   3   5 107.853 3.39866   1
  -2   3   6 357.237 16.9242  -2
   2   3   5 357.237 16.9242   1
  -3   3   6 6.08318 1.51283  -2
   3   3   5 6.08318 1.51283   1
  -4   3   6 692.511 18.4000  -2
   4   3   5 692.511 18.4000   1
  -5   3   7 161.337 11.3311  -2
   5   3   5 161.337 11.3311   1
  -6   3   7 586.742 16.2137  -2
   6   3   5 586.742 16.2137   1
  -7   3   7 46.0641 2.47528  -2
   7   3   5 46.0641 2.47528   1
  -8   3   7 30.1472 3.48665  -2
   8   3   5 30.1472 3.48665   1
  -9   3   8 324.886 10.6156  -2
   9   3   5 324.886 10.6156   1
 -10   3   8 110.531 3.32006  -2
  10   3   5 110.531 3.32006   1
 -11   3   8 126.510 10.0306  -2
  11   3   5 126.510 10.0306   1
 -13   3   9 4.80146 1.80297  -2
  13   3   5 4.80146 1.80297   1
  13   4   1 16.7208 2.68624  -2
 -13   4   5 16.7208 2.68624   1
  10   4   2 320.791 7.53034  -2
 -10   4   5 320.791 7.53034   1
   8   4   3 390.329 20.9417  -2
  -8   4   5 390.329 20.9417   1
   7   4   3 17.6436 2.95676  -2
  -7   4   5 17.6436 2.95676   1
   6   4   3 103.148 5.56832  -2
  -6   4   5 103.148 5.56832   1
   5   4   4 200.457 11.1409  -2
  -5   4   5 200.457 11.1409   1
   4   4   4 5.08031 1.64442  -2
  -4   4   5 5.08031 1.64442   1
   3   4   4 505.490 11.7056  -2
  -3   4   5 505.490 11.7056   1
   2   4   4 384.701 13.3492  -2
  -2   4   5 384.701 13.3492   1
   1   4   5 2996.48 64.5133  -2
  -1   4   5 2996.48 64.5133   1
   0   4   5 9999.99 181.898  -2
   0   4   5 9999.99 181.898   1
  -1   4   5 2901.96 80.3581  -2
   1   4   5 2901.96 80.3581   1
  -2   4   6 134.817 9.84185  -2
   2   4   5 134.817 9.84185   1
  -3   4   6 176.848 4.88472  -2
   3   4   5 176.848 4.88472   1
  -4   4   6 169.495 6.37270  -2
   4   4   5 169.495 6.37270   1
   5   4   5 296.711 17.4788   1
  -6   4   7 74.5257 4.09617  -2
   6   4   5 74.5257 4.09617   1
  -7   4   7 375.149 12.4059  -2
   7   4   5 375.149 12.4059   1
  -8   4   7 81.9159 4.96878  -2
   8   4   5 81.9159 4.96878   1
  -9   4   8 364.812 11.6276  -2
   9   4   5 364.812 11.6276   1
 -10   4   8 24.6780 2.43523  -2
  10   4   5 24.6780 2.43523   1
 -11   4   8 61.2421 7.88053  -2
  11   4   5 61.2421 7.88053   1
 -12   4   9 101.143 7.98612  -2
  12   4   5 101.143 7.98612   1
 -13   4   9 38.1640 3.18423  -2
  13   4   5 38.1640 3.18423   1
  13   5   1 37.4242 3.24333  -2
 -13   5   5 37.4242 3.24333   1
  10   5   2 97.3429 3.38314  -2
 -10   5   5 97.3429 3.38314   1
   7   5   3 63.9992 4.46727  -2
  -7   5   5 63.9992 4.46727   1
   6   5   3 154.498 7.38690  -2
  -6   5   5 154.498 7.38690   1
  -5   5   5 10.5357 2.95616   1
   4   5   4 21.8808 2.02111  -2
  -4   5   5 21.8808 2.02111   1
   3   5   4 35.8792 1.79185  -2
  -3   5   5 35.8792 1.79185   1
   2   5   4 84.2889 5.78654  -2
  -2   5   5 84.2889 5.78654   1
   1   5   5 533.459 13.2048  -2
  -1   5   5 533.459 13.2048   1
   0   5   5 46.5199 1.23069  -2
   0   5   5 46.5199 1.23069   1
  -1   5   5 517.101 19.2417  -2
   1   5   5 517.101 19.2417   1
   2   5   5 47.1720 3.10689   1
  -3   5   6 45.4296 2.74768  -2
   3   5   5 45.4296 2.74768   1
  -4   5   6 321.738 14.6813  -2
   4   5   5 321.738 14.6813   1
   5   5   5 37.1461 4.90586   1
  -6   5   7 38.3899 4.31659  -2
   6   5   5 38.3899 4.31659   1
  -7   5   7 44.0208 7.25456  -2
   7   5   5 44.0208 7.25456   1
   8   5   5 27.8689 4.60349   1
  -9   5   8 121.149 6.57927  -2
   9   5   5 121.149 6.57927   1
 -10   5   8 149.143 3.86533  -2
  10   5   5 149.143 3.86533   1
 -11   5   8 13.6636 6.59522  -2
  11   5   5 13.6636 6.59522   1
 -12   5   9 6.93509 5.02931  -2
  12   5   5 6.93509 5.02931   1
 -13   5   9 65.6465 3.82271  -2
  13   5   5 65.6465 3.82271   1
  13   6   1 14.4019 2.66644  -2
 -13   6   5 14.4019 2.66644   1
  10   6   2 41.1137 2.17159  -2
 -10   6   5 41.1137 2.17159   1
   7   6   3 39.6780 4.12284  -2
  -7   6   5 39.6780 4.12284   1
   6   6   3 47.6373 4.59612  -2
  -6   6   5 47.6373 4.59612   1
  -5   6   5 44.7827 4.58155   1
   4   6   4 443.513 12.8751  -2
  -4   6   5 443.513 12.8751   1
   3   6   4 2.80578 1.56758  -2
  -3   6   5 2.80578 1.56758   1
   2   6   4 36.4245 4.13576  -2
  -2   6   5 36.4245 4.13576   1
   1   6   5 562.044 16.4652  -2
  -1   6   5 562.044 16.4652   1
   0   6   5 274.173 10.0110  -2
   0   6   5 274.173 10.0110   1
  -1   6   5 498.427 17.6567  -2
   1   6   5 498.427 17.6567   1
  -2   6   6 1105.58 59.5956  -2
   2   6   5 1105.58 59.5956   1
  -3   6   6 4.94951 2.09910  -2
   3   6   5 4.94951 2.09910   1
  -4   6   6 985.852 36.7726  -2
   4   6   5 985.852 36.7726   1
  -6   6   7 27.1944 6.90928  -2
   6   6   5 27.1944 6.90928   1
  -7   6   7 24.7485 4.71081  -2
   7   6   5 24.7485 4.71081   1
  -8   6   7 73.5195 8.51693  -2
   8   6   5 73.5195 8.51693   1
  -9   6   8 41.9499 4.85639  -2
   9   6   5 41.9499 4.85639   1
 -10   6   8 55.4044 2.97598  -2
  10   6   5 55.4044 2.97598   1
 -11   6   8 59.9079 7.41490  -2
  11   6   5 59.9079 7.41490   1
 -12   6   9 15.8212 5.09417  -2
  12   6   5 15.8212 5.09417   1
 -13   6   9 0.94711 2.22639  -2
  13   6   5 0.94711 2.22639   1
  13   7   1 3.64886 1.65654  -2
 -13   7   5 3.64886 1.65654   1
  10   7   2 32.6890 2.03151  -2
 -10   7   5 32.6890 2.03151   1
   9   7   2 9.18183 5.13367  -2
  -9   7   5 9.18183 5.13367   1
   8   7   3 15.2457 4.92467  -2
  -8   7   5 15.2457 4.92467   1
   7   7   3 287.095 15.4239  -2
  -7   7   5 287.095 15.4239   1
   6   7   3 77.6369 5.79096  -2
  -6   7   5 77.6369 5.79096   1
  -5   7   5 17.4231 3.39741   1
   4   7   4 112.433 4.96659  -2
  -4   7   5 112.433 4.96659   1
   3   7   4 339.829 12.5386  -2
  -3   7   5 339.829 12.5386   1
  -2   7   5 296.891 15.5449   1
   1   7   5 237.707 8.98950  -2
  -1   7   5 237.707 8.98950   1
   0   7   5 271.555 8.23879  -2
   0   7   5 271.555 8.23879   1
  -1   7   5 227.766 7.08361  -2
   1   7   5 227.766 7.08361   1
  -2   7   6 963.217 48.3232  -2
   2   7   5 963.217 48.3232   1
  -3   7   6 210.376 8.53637  -2
   3   7   5 210.376 8.53637   1
  -4   7   6 110.667 8.13630  -2
   4   7   5 110.667 8.13630   1
  -5   7   6 30.1216 6.21256  -2
   5   7   5 30.1216 6.21256   1
  -7   7   7 44.2846 6.93847  -2
   7   7   5 44.2846 6.93847   1
  -8   7   7 32.3165 7.46422  -2
   8   7   5 32.3165 7.46422   1
  -9   7   8 78.4132 8.24994  -2
   9   7   5 78.4132 8.24994   1
 -10   7   8 301.358 7.95950  -2
  10   7   5 301.358 7.95950   1
 -12   7   9 12.8762 5.02517  -2
  12   7   5 12.8762 5.02517   1
 -13   7   9 3.80167 3.05286  -2
  13   7   5 3.80167 3.05286   1
  13   8   1 13.6381 2.07909  -2
 -13   8   5 13.6381 2.07909   1
  10   8   2 21.1039 2.56398  -2
 -10   8   5 21.1039 2.56398   1
   9   8   2 74.3537 6.72034  -2
  -9   8   5 74.3537 6.72034   1
   8   8   3 120.196 8.65978  -2
  -8   8   5 120.196 8.65978   1
   7   8   3 5.02764 3.04437  -2
  -7   8   5 5.02764 3.04437   1
   6   8   3 68.4719 5.63756  -2
  -6   8   5 68.4719 5.63756   1
   4   8   4 52.7383 3.35708  -2
  -4   8   5 52.7383 3.35708   1
   3   8   4 46.9572 2.91158  -2
  -3   8   5 46.9572 2.91158   1
   2   8   4 4.74653 3.38468  -2
  -2   8   5 4.74653 3.38468   1
   1   8   5 588.801 17.2626  -2
  -1   8   5 588.801 17.2626   1
   0   8   5 433.925 12.8878  -2
   0   8   5 433.925 12.8878   1
  -1   8   5 600.417 17.6543  -2
   1   8   5 600.417 17.6543   1
  -2   8   6 310.994 16.7662  -2
   2   8   5 310.994 16.7662   1
  -3   8   6 27.2159 2.89610  -2
   3   8   5 27.2159 2.89610   1
  -4   8   6 82.1807 6.95487  -2
   4   8   5 82.1807 6.95487   1
  -5   8   6 214.733 13.6628  -2
   5   8   5 214.733 13.6628   1
  -6   8   7 10.6422 3.88451  -2
   6   8   5 10.6422 3.88451   1
  -7   8   7 300.699 13.0615  -2
   7   8   5 300.699 13.0615   1
  -9   8   8 144.016 10.5423  -2
   9   8   5 144.016 10.5423   1
 -10   8   8 48.4916 2.49190  -2
  10   8   5 48.4916 2.49190   1
 -12   8   9 38.7767 5.26106  -2
  12   8   5 38.7767 5.26106   1
  10   9   2 314.070 9.14108  -2
 -10   9   5 314.070 9.14108   1
   7   9   3 123.222 6.15411  -2
  -7   9   5 123.222 6.15411   1
   6   9   3 119.320 6.00296  -2
  -6   9   5 119.320 6.00296   1
   4   9   4 208.749 8.37700  -2
  -4   9   5 208.749 8.37700   1
   3   9   4 34.4425 2.63343  -2
  -3   9   5 34.4425 2.63343   1
   2   9   4 39.8475 3.11562  -2
  -2   9   5 39.8475 3.11562   1
   1   9   5 87.3156 3.28514  -2
  -1   9   5 87.3156 3.28514   1
   0   9   5 37.2486 1.96714  -2
   0   9   5 37.2486 1.96714   1
  -1   9   5 90.2599 3.56483  -2
   1   9   5 90.2599 3.56483   1
  -2   9   6 70.1664 6.37104  -2
   2   9   5 70.1664 6.37104   1
  -3   9   6 6.17090 2.58612  -2
   3   9   5 6.17090 2.58612   1
  -4   9   6 35.5449 5.34203  -2
   4   9   5 35.5449 5.34203   1
   5   9   5 -1.3067 2.30883   1
  -6   9   7 3.31454 2.69269  -2
   6   9   5 3.31454 2.69269   1
  -7   9   7 40.2513 4.42256  -2
   7   9   5 40.2513 4.42256   1
  -9   9   8 172.666 11.5886  -2
   9   9   5 172.666 11.5886   1
 -10   9   8 61.5883 2.86071  -2
  10   9   5 61.5883 2.86071   1
  10  10   2 98.1518 4.75005  -2
 -10  10   5 98.1518 4.75005   1
   7  10   3 55.8643 2.65197  -2
  -7  10   5 55.8643 2.65197   1
   6  10   3 54.5520 4.24555  -2
  -6  10   5 54.5520 4.24555   1
   5  10   3 37.6140 6.72360  -2
  -5  10   5 37.6140 6.72360   1
   4  10   4 110.200 5.26348  -2
  -4  10   5 110.200 5.26348   1
   3  10   4 20.2558 2.35026  -2
  -3  10   5 20.2558 2.35026   1
   2  10   4 205.049 8.41494  -2
  -2  10   5 205.049 8.41494   1
   1  10   5 1289.51 45.5907  -2
  -1  10   5 1289.51 45.5907   1
   0  10   5 70.9219 2.50384  -2
   0  10   5 70.9219 2.50384   1
  -1  10   5 1265.56 36.6424  -2
   1  10   5 1265.56 36.6424   1
  -2  10   6 123.990 4.61032  -2
   2  10   5 123.990 4.61032   1
  -3  10   6 59.8078 3.05125  -2
   3  10   5 59.8078 3.05125   1
  -4  10   6 0.70372 2.85902  -2
   4  10   5 0.70372 2.85902   1
  -5  10   6 270.657 16.4539  -2
   5  10   5 270.657 16.4539   1
  -5  10   7 180.414 12.2339  -2
   5  10   5 180.414 12.2339   1
  -6  10   7 12.1437 3.00122  -2
   6  10   5 12.1437 3.00122   1
  -7  10   7 239.159 5.74213  -2
   7  10   5 239.159 5.74213   1
  -8  10   7 78.7239 8.11374  -2
   8  10   5 78.7239 8.11374   1
 -10  10   8 27.3776 1.88203  -2
  10  10   5 27.3776 1.88203   1
  10  11   2 75.8905 3.91343  -2
 -10  11   5 75.8905 3.91343   1
   7  11   3 85.2392 4.06504  -2
  -7  11   5 85.2392 4.06504   1
   6  11   3 88.3578 3.70849  -2
  -6  11   5 88.3578 3.70849   1
   4  11   4 113.278 4.66656  -2
  -4  11   5 113.278 4.66656   1
   3  11   4 104.386 4.21921  -2
  -3  11   5 104.386 4.21921   1
   2  11   4 382.557 14.5459  -2
  -2  11   5 382.557 14.5459   1
   1  11   5 25.6625 2.62845  -2
  -1  11   5 25.6625 2.62845   1
   0  11   5 79.3541 3.35630  -2
   0  11   5 79.3541 3.35630   1
  -1  11   5 23.8757 2.05543  -2
   1  11   5 23.8757 2.05543   1
  -2  11   6 127.014 5.13398  -2
   2  11   5 127.014 5.13398   1
  -3  11   6 396.789 10.4926  -2
   3  11   5 396.789 10.4926   1
  -4  11   6 31.8847 3.10002  -2
   4  11   5 31.8847 3.10002   1
  -5  11   7 319.053 18.6214  -2
   5  11   5 319.053 18.6214   1
  -6  11   7 29.8074 2.69536  -2
   6  11   5 29.8074 2.69536   1
  -7  11   7 98.0852 3.25078  -2
   7  11   5 98.0852 3.25078   1
  -8  11   7 128.730 10.3655  -2
   8  11   5 128.730 10.3655   1
 -10  11   8 68.7778 2.39145  -2
  10  11   5 68.7778 2.39145   1
  10  12   2 3.98783 1.89471  -2
 -10  12   5 3.98783 1.89471   1
   7  12   3 20.2282 3.25369  -2
  -7  12   5 20.2282 3.25369   1
   6  12   3 11.8382 3.13004  -2
  -6  12   5 11.8382 3.13004   1
  -5  12   5 5.57241 2.52598   1
   4  12   4 18.7368 2.02132  -2
  -4  12   5 18.7368 2.02132   1
   3  12   4 100.787 3.34155  -2
  -3  12   5 100.787 3.34155   1
   2  12   4 -6.5338 5.56044  -2
  -2  12   5 -6.5338 5.56044   1
   1  12   5 33.6230 2.93756  -2
  -1  12   5 33.6230 2.93756   1
   0  12   5 12.8749 1.54771  -2
   0  12   5 12.8749 1.54771   1
  -1  12   5 34.1157 2.55953  -2
   1  12   5 34.1157 2.55953   1
  -2  12   6 143.529 5.44353  -2
   2  12   5 143.529 5.44353   1
  -3  12   6 21.6956 1.81705  -2
   3  12   5 21.6956 1.81705   1
  -4  12   6 4.07116 1.96139  -2
   4  12   5 4.07116 1.96139   1
  -5  12   6 69.3181 7.26954  -2
   5  12   5 69.3181 7.26954   1
  -5  12   7 32.4179 6.82593  -2
   5  12   5 32.4179 6.82593   1
  -6  12   7 21.3789 2.52801  -2
   6  12   5 21.3789 2.52801   1
  -7  12   7 171.999 4.45662  -2
   7  12   5 171.999 4.45662   1
 -10  12   8 16.6463 1.76302  -2
  10  12   5 16.6463 1.76302   1
  10  13   2 16.0075 1.90617  -2
 -10  13   5 16.0075 1.90617   1
   7  13   3 40.1845 2.94568  -2
  -7  13   5 40.1845 2.94568   1
   6  13   3 20.7087 2.95691  -2
  -6  13   5 20.7087 2.95691   1
   4  13   4 25.2668 3.57752  -2
  -4  13   5 25.2668 3.57752   1
   3  13   4 28.7824 3.23945  -2
  -3  13   5 28.7824 3.23945   1
   2  13   4 41.0044 4.83539  -2
  -2  13   5 41.0044 4.83539   1
   1  13   5 -2.6665 2.32375  -2
  -1  13   5 -2.6665 2.32375   1
   0  13   5 30.7571 1.67112  -2
   0  13   5 30.7571 1.67112   1
  -1  13   5 2.85555 1.74495  -2
   1  13   5 2.85555 1.74495   1
  -2  13   6 368.222 7.61163  -2
   2  13   5 368.222 7.61163   1
  -3  13   6 16.6566 2.31184  -2
   3  13   5 16.6566 2.31184   1
  -4  13   6 133.887 3.92795  -2
   4  13   5 133.887 3.92795   1
  -5  13   7 46.0666 7.09981  -2
   5  13   5 46.0666 7.09981   1
  -6  13   7 121.272 5.92077  -2
   6  13   5 121.272 5.92077   1
  -7  13   7 30.4566 2.33525  -2
   7  13   5 30.4566 2.33525   1
 -10  13   8 47.5881 2.52882  -2
  10  13   5 47.5881 2.52882   1
   7  14   3 23.9199 3.29621  -2
  -7  14   5 23.9199 3.29621   1
   6  14   3 164.973 10.6022  -2
  -6  14   5 164.973 10.6022   1
   4  14   4 102.229 8.25677  -2
  -4  14   5 102.229 8.25677   1
   3  14   4 15.1500 2.74368  -2
  -3  14   5 15.1500 2.74368   1
   2  14   4 199.228 8.92972  -2
  -2  14   5 199.228 8.92972   1
   1  14   5 46.7141 4.92949  -2
  -1  14   5 46.7141 4.92949   1
   0  14   5 77.3955 3.03959  -2
   0  14   5 77.3955 3.03959   1
  -1  14   5 47.1118 2.73305  -2
   1  14   5 47.1118 2.73305   1
  -2  14   6 23.2580 2.76426  -2
   2  14   5 23.2580 2.76426   1
  -3  14   6 40.5699 2.52000  -2
   3  14   5 40.5699 2.52000   1
  -4  14   6 58.2341 3.52858  -2
   4  14   5 58.2341 3.52858   1
  -5  14   7 14.0312 5.98443  -2
   5  14   5 14.0312 5.98443   1
  -6  14   7 44.1785 3.62117  -2
   6  14   5 44.1785 3.62117   1
  -7  14   7 28.0972 2.00089  -2
   7  14   5 28.0972 2.00089   1
   7  15   3 11.6235 2.53763  -2
  -7  15   5 11.6235 2.53763   1
   6  15   3 38.3063 4.05741  -2
  -6  15   5 38.3063 4.05741   1
   4  15   4 239.872 13.6727  -2
  -4  15   5 239.872 13.6727   1
   3  15   4 36.1382 2.30947  -2
  -3  15   5 36.1382 2.30947   1
   2  15   4 98.7250 8.68435  -2
  -2  15   5 98.7250 8.68435   1
   1  15   5 96.7338 5.94834  -2
  -1  15   5 96.7338 5.94834   1
   0  15   5 11.3569 1.83595  -2
   0  15   5 11.3569 1.83595   1
  -1  15   5 98.2606 3.25323  -2
   1  15   5 98.2606 3.25323   1
  -2  15   6 62.3706 4.25723  -2
   2  15   5 62.3706 4.25723   1
  -3  15   6 3.96614 1.90312  -2
   3  15   5 3.96614 1.90312   1
  -4  15   6 143.484 6.08154  -2
   4  15   5 143.484 6.08154   1
  -5  15   7 12.6153 5.71238  -2
   5  15   5 12.6153 5.71238   1
  -6  15   7 45.2623 3.56626  -2
   6  15   5 45.2623 3.56626   1
  -7  15   7 9.83369 1.78744  -2
   7  15   5 9.83369 1.78744   1
   6  16   3 33.6983 4.11317  -2
  -6  16   5 33.6983 4.11317   1
   4  16   4 31.6277 3.83691  -2
  -4  16   5 31.6277 3.83691   1
   3  16   4 98.2111 5.01019  -2
  -3  16   5 98.2111 5.01019   1
   2  16   4 179.103 11.1867  -2
  -2  16   5 179.103 11.1867   1
   1  16   5 177.482 6.61868  -2
  -1  16   5 177.482 6.61868   1
   0  16   5 11.1285 1.74550  -2
   0  16   5 11.1285 1.74550   1
  -1  16   5 186.038 5.24973  -2
   1  16   5 186.038 5.24973   1
  -2  16   6 22.5180 3.18402  -2
   2  16   5 22.5180 3.18402   1
  -3  16   6 19.1435 2.14692  -2
   3  16   5 19.1435 2.14692   1
  -4  16   6 12.7636 2.27264  -2
   4  16   5 12.7636 2.27264   1
  -6  16   7 35.8625 4.30665  -2
   6  16   5 35.8625 4.30665   1
  -7  16   7 130.260 6.77681  -2
   7  16   5 130.260 6.77681   1
   4  17   4 45.2795 4.66697  -2
  -4  17   5 45.2795 4.66697   1
   3  17   4 11.8734 2.06324  -2
  -3  17   5 11.8734 2.06324   1
   2  17   4 100.920 7.11903  -2
  -2  17   5 100.920 7.11903   1
   1  17   5 44.5666 3.85811  -2
  -1  17   5 44.5666 3.85811   1
   0  17   5 36.5149 1.82449  -2
   0  17   5 36.5149 1.82449   1
  -1  17   5 42.5037 3.14339  -2
   1  17   5 42.5037 3.14339   1
  -2  17   6 23.3425 3.48250  -2
   2  17   5 23.3425 3.48250   1
  -3  17   6 38.3631 2.64576  -2
   3  17   5 38.3631 2.64576   1
  -4  17   6 19.9954 2.32224  -2
   4  17   5 19.9954 2.32224   1
   3  18   4 8.17829 1.89632  -2
  -3  18   5 8.17829 1.89632   1
   2  18   4 39.3141 4.63495  -2
  -2  18   5 39.3141 4.63495   1
   1  18   5 18.4216 3.87066  -2
  -1  18   5 18.4216 3.87066   1
   0  18   5 39.9440 1.90960  -2
   0  18   5 39.9440 1.90960   1
  -1  18   5 13.6771 2.27064  -2
   1  18   5 13.6771 2.27064   1
  13   0   2 168.027 7.04239  -2
 -13   0   6 168.027 7.04239   1
  10   0   3 61.4866 3.40180  -2
 -10   0   6 61.4866 3.40180   1
   8   0   4 363.494 19.8443  -2
  -8   0   6 363.494 19.8443   1
   7   0   4 201.510 11.5064  -2
  -7   0   6 201.510 11.5064   1
   6   0   4 1221.81 41.4241  -2
  -6   0   6 1221.81 41.4241   1
  -5   0   6 246.438 13.2046   1
   4   0   5 1.97741 1.75942  -2
  -4   0   6 1.97741 1.75942   1
   3   0   5 1342.40 36.9380  -2
  -3   0   6 1342.40 36.9380   1
  -2   0   6 1391.27 45.9724   1
   1   0   6 1259.32 41.6432  -2
  -1   0   6 1259.32 41.6432   1
   0   0   6 7956.50 432.665  -2
   0   0   6 7956.50 432.665   1
  -1   0   6 1240.71 48.1122  -2
   1   0   6 1240.71 48.1122   1
  -2   0   7 2514.68 114.147  -2
   2   0   6 2514.68 114.147   1
  -3   0   7 402.178 15.2477  -2
   3   0   6 402.178 15.2477   1
  -4   0   7 5.53437 2.01942  -2
   4   0   6 5.53437 2.01942   1
   5   0   6 246.715 14.5101   1
  -6   0   8 567.453 21.3242  -2
   6   0   6 567.453 21.3242   1
  -7   0   8 61.9349 4.88522  -2
   7   0   6 61.9349 4.88522   1
  -8   0   8 371.714 20.1134  -2
   8   0   6 371.714 20.1134   1
  -9   0   9 -2.3199 3.71477  -2
   9   0   6 -2.3199 3.71477   1
 -10   0   9 23.9605 3.35455  -2
  10   0   6 23.9605 3.35455   1
 -11   0   9 33.3425 6.07337  -2
  11   0   6 33.3425 6.07337   1
 -12   0  10 23.3223 5.02019  -2
  12   0   6 23.3223 5.02019   1
 -13   0  10 122.595 5.81719  -2
  13   0   6 122.595 5.81719   1
  13   1   2 10.8636 2.04077  -2
 -13   1   6 10.8636 2.04077   1
  10   1   3 51.2597 2.22998  -2
 -10   1   6 51.2597 2.22998   1
   8   1   4 94.8494 5.36628  -2
  -8   1   6 94.8494 5.36628   1
   7   1   4 -1.0292 2.19561  -2
  -7   1   6 -1.0292 2.19561   1
   6   1   4 61.4239 2.66294  -2
  -6   1   6 61.4239 2.66294   1
  -5   1   6 898.488 31.7525   1
   4   1   5 1103.22 21.5947  -2
  -4   1   6 1103.22 21.5947   1
   3   1   5 1655.24 34.9535  -2
  -3   1   6 1655.24 34.9535   1
   2   1   5 1318.57 49.2155  -2
  -2   1   6 1318.57 49.2155   1
   1   1   6 92.6583 3.78276  -2
  -1   1   6 92.6583 3.78276   1
   0   1   6 3.50253 0.84120  -2
   0   1   6 3.50253 0.84120   1
  -1   1   6 85.1727 2.05853  -2
   1   1   6 85.1727 2.05853   1
  -2   1   7 1396.71 63.7252  -2
   2   1   6 1396.71 63.7252   1
  -3   1   7 2448.71 50.6403  -2
   3   1   6 2448.71 50.6403   1
  -4   1   7 1087.91 25.5716  -2
   4   1   6 1087.91 25.5716   1
  -5   1   7 53.1147 4.65661  -2
   5   1   6 53.1147 4.65661   1
  -5   1   8 36.2370 4.10096  -2
   5   1   6 36.2370 4.10096   1
  -6   1   8 566.686 17.1399  -2
   6   1   6 566.686 17.1399   1
  -7   1   8 9.39430 2.11995  -2
   7   1   6 9.39430 2.11995   1
  -8   1   8 18.6366 3.52767  -2
   8   1   6 18.6366 3.52767   1
  -9   1   9 116.474 5.18962  -2
   9   1   6 116.474 5.18962   1
 -10   1   9 32.2818 2.40117  -2
  10   1   6 32.2818 2.40117   1
 -11   1   9 323.450 18.2494  -2
  11   1   6 323.450 18.2494   1
 -12   1  10 22.6590 5.32173  -2
  12   1   6 22.6590 5.32173   1
 -13   1  10 21.9189 2.71250  -2
  13   1   6 21.9189 2.71250   1
  13   2   2 28.1579 2.48499  -2
 -13   2   6 28.1579 2.48499   1
  10   2   3 82.8106 2.58348  -2
 -10   2   6 82.8106 2.58348   1
   9   2   3 141.783 10.1470  -2
  -9   2   6 141.783 10.1470   1
   8   2   4 297.751 11.8401  -2
  -8   2   6 297.751 11.8401   1
   7   2   4 184.968 6.75245  -2
  -7   2   6 184.968 6.75245   1
   6   2   4 49.1284 2.59690  -2
  -6   2   6 49.1284 2.59690   1
  -5   2   6 96.8100 3.48616   1
   4   2   5 419.327 8.13372  -2
  -4   2   6 419.327 8.13372   1
   3   2   5 3234.51 72.0921  -2
  -3   2   6 3234.51 72.0921   1
   2   2   5 1172.20 31.4254  -2
  -2   2   6 1172.20 31.4254   1
   1   2   6 1903.13 44.7565  -2
  -1   2   6 1903.13 44.7565   1
   0   2   6 3041.94 66.0749  -2
   0   2   6 3041.94 66.0749   1
  -1   2   6 1878.28 34.4902  -2
   1   2   6 1878.28 34.4902   1
  -2   2   7 2125.37 87.3631  -2
   2   2   6 2125.37 87.3631   1
  -3   2   7 1862.04 36.7842  -2
   3   2   6 1862.04 36.7842   1
  -4   2   7 26.2141 1.52743  -2
   4   2   6 26.2141 1.52743   1
   5   2   6 56.4629 3.99759   1
  -6   2   8 542.052 13.0515  -2
   6   2   6 542.052 13.0515   1
  -7   2   8 20.0205 2.00420  -2
   7   2   6 20.0205 2.00420   1
  -8   2   8 175.432 7.69753  -2
   8   2   6 175.432 7.69753   1
  -9   2   9 15.7972 3.33119  -2
   9   2   6 15.7972 3.33119   1
 -10   2   9 249.317 6.25712  -2
  10   2   6 249.317 6.25712   1
 -11   2   9 10.5062 6.09661  -2
  11   2   6 10.5062 6.09661   1
 -12   2  10 0.39233 4.86003  -2
  12   2   6 0.39233 4.86003   1
 -13   2  10 12.9210 1.74272  -2
  13   2   6 12.9210 1.74272   1
  13   3   2 64.2689 3.99980  -2
 -13   3   6 64.2689 3.99980   1
  10   3   3 104.134 3.44349  -2
 -10   3   6 104.134 3.44349   1
   7   3   4 16.1394 2.30346  -2
  -7   3   6 16.1394 2.30346   1
   6   3   4 256.535 7.34885  -2
  -6   3   6 256.535 7.34885   1
   5   3   5 84.2521 6.02336  -2
  -5   3   6 84.2521 6.02336   1
   4   3   5 712.508 14.7172  -2
  -4   3   6 712.508 14.7172   1
   3   3   5 8.40944 1.04602  -2
  -3   3   6 8.40944 1.04602   1
   2   3   5 375.916 9.17276  -2
  -2   3   6 375.916 9.17276   1
   1   3   6 1464.35 34.7310  -2
  -1   3   6 1464.35 34.7310   1
   0   3   6 4.22167 0.69170  -2
   0   3   6 4.22167 0.69170   1
  -1   3   6 1429.48 31.0896  -2
   1   3   6 1429.48 31.0896   1
   2   3   6 84.5539 5.34514   1
  -3   3   7 48.3299 1.87066  -2
   3   3   6 48.3299 1.87066   1
  -4   3   7 121.913 3.43017  -2
   4   3   6 121.913 3.43017   1
   5   3   6 67.8028 5.60834   1
  -6   3   8 323.261 9.38584  -2
   6   3   6 323.261 9.38584   1
  -7   3   8 295.874 8.76757  -2
   7   3   6 295.874 8.76757   1
  -8   3   8 13.4552 3.20209  -2
   8   3   6 13.4552 3.20209   1
  -9   3   9 136.775 5.77927  -2
   9   3   6 136.775 5.77927   1
 -10   3   9 24.8348 2.04670  -2
  10   3   6 24.8348 2.04670   1
 -11   3   9 66.7522 7.91340  -2
  11   3   6 66.7522 7.91340   1
 -12   3  10 70.3940 6.97894  -2
  12   3   6 70.3940 6.97894   1
 -13   3  10 92.0579 3.49280  -2
  13   3   6 92.0579 3.49280   1
  13   4   2 15.9311 2.73761  -2
 -13   4   6 15.9311 2.73761   1
  10   4   3 126.682 4.30116  -2
 -10   4   6 126.682 4.30116   1
   7   4   4 313.639 13.6241  -2
  -7   4   6 313.639 13.6241   1
   6   4   4 24.7101 3.07626  -2
  -6   4   6 24.7101 3.07626   1
   5   4   5 536.384 25.8830  -2
  -5   4   6 536.384 25.8830   1
   4   4   5 189.614 5.96578  -2
  -4   4   6 189.614 5.96578   1
   3   4   5 191.047 5.09843  -2
  -3   4   6 191.047 5.09843   1
   2   4   5 141.234 8.16983  -2
  -2   4   6 141.234 8.16983   1
   1   4   6 95.8938 2.58718  -2
  -1   4   6 95.8938 2.58718   1
   0   4   6 292.069 5.57094  -2
   0   4   6 292.069 5.57094   1
  -1   4   6 97.0951 2.53936  -2
   1   4   6 97.0951 2.53936   1
   2   4   6 49.9669 2.31766   1
  -3   4   7 108.190 4.49601  -2
   3   4   6 108.190 4.49601   1
  -4   4   7 40.2059 3.08644  -2
   4   4   6 40.2059 3.08644   1
   5   4   6 38.1092 4.42142   1
  -6   4   8 146.617 4.94678  -2
   6   4   6 146.617 4.94678   1
  -7   4   8 63.4519 2.91069  -2
   7   4   6 63.4519 2.91069   1
  -8   4   8 27.3999 3.53299  -2
   8   4   6 27.3999 3.53299   1
  -9   4   9 122.331 5.48119  -2
   9   4   6 122.331 5.48119   1
 -10   4   9 152.858 4.96335  -2
  10   4   6 152.858 4.96335   1
 -11   4   9 53.7187 7.58581  -2
  11   4   6 53.7187 7.58581   1
 -12   4  10 0.53332 5.00684  -2
  12   4   6 0.53332 5.00684   1
 -13   4  10 8.88207 2.39738  -2
  13   4   6 8.88207 2.39738   1
  13   5   2 16.2907 2.64265  -2
 -13   5   6 16.2907 2.64265   1
  10   5   3 46.8030 2.57955  -2
 -10   5   6 46.8030 2.57955   1
   7   5   4 97.5607 6.64580  -2
  -7   5   6 97.5607 6.64580   1
   6   5   4 336.736 14.3947  -2
  -6   5   6 336.736 14.3947   1
  -5   5   6 369.758 20.0850   1
   4   5   5 317.612 9.43131  -2
  -4   5   6 317.612 9.43131   1
   3   5   5 48.6869 2.33346  -2
  -3   5   6 48.6869 2.33346   1
  -2   5   6 4.69179 1.00196   1
   1   5   6 542.570 12.2265  -2
  -1   5   6 542.570 12.2265   1
   0   5   6 5.32592 0.67296  -2
   0   5   6 5.32592 0.67296   1
  -1   5   6 554.824 16.1515  -2
   1   5   6 554.824 16.1515   1
   2   5   6 108.991 7.36060   1
  -3   5   7 132.658 5.18341  -2
   3   5   6 132.658 5.18341   1
  -4   5   7 88.8268 7.52036  -2
   4   5   6 88.8268 7.52036   1
  -5   5   8 35.2238 6.18555  -2
   5   5   6 35.2238 6.18555   1
  -6   5   8 2.95839 2.63053  -2
   6   5   6 2.95839 2.63053   1
  -7   5   8 131.158 12.4815  -2
   7   5   6 131.158 12.4815   1
   8   5   6 14.1209 4.36471   1
  -9   5   9 514.515 14.9457  -2
   9   5   6 514.515 14.9457   1
 -10   5   9 32.4875 2.20695  -2
  10   5   6 32.4875 2.20695   1
 -11   5   9 125.992 9.90421  -2
  11   5   6 125.992 9.90421   1
 -12   5  10 85.1360 7.53161  -2
  12   5   6 85.1360 7.53161   1
 -13   5  10 5.78068 2.34684  -2
  13   5   6 5.78068 2.34684   1
  13   6   2 47.7636 2.53788  -2
 -13   6   6 47.7636 2.53788   1
  10   6   3 183.014 4.52044  -2
 -10   6   6 183.014 4.52044   1
   7   6   4 86.2120 6.20915  -2
  -7   6   6 86.2120 6.20915   1
   6   6   4 14.7644 4.02466  -2
  -6   6   6 14.7644 4.02466   1
   4   6   5 1045.59 29.3905  -2
  -4   6   6 1045.59 29.3905   1
   3   6   5 6.56562 1.66477  -2
  -3   6   6 6.56562 1.66477   1
   2   6   5 1202.27 58.2463  -2
  -2   6   6 1202.27 58.2463   1
   1   6   6 2872.20 79.3076  -2
  -1   6   6 2872.20 79.3076   1
   0   6   6 918.297 32.2622  -2
   0   6   6 918.297 32.2622   1
  -1   6   6 2622.76 76.1671  -2
   1   6   6 2622.76 76.1671   1
  -2   6   7 640.991 35.3471  -2
   2   6   6 640.991 35.3471   1
  -3   6   7 483.857 18.3579  -2
   3   6   6 483.857 18.3579   1
  -4   6   7 365.344 14.6537  -2
   4   6   6 365.344 14.6537   1
   5   6   6 226.142 14.2303   1
  -6   6   8 415.897 30.1839  -2
   6   6   6 415.897 30.1839   1
  -7   6   8 63.5477 7.73270  -2
   7   6   6 63.5477 7.73270   1
  -8   6   8 24.2278 7.25348  -2
   8   6   6 24.2278 7.25348   1
  -9   6   9 71.3126 4.57775  -2
   9   6   6 71.3126 4.57775   1
 -10   6   9 32.0082 2.23051  -2
  10   6   6 32.0082 2.23051   1
 -11   6   9 17.7883 6.30364  -2
  11   6   6 17.7883 6.30364   1
 -12   6  10 20.0923 5.09418  -2
  12   6   6 20.0923 5.09418   1
 -13   6  10 48.6831 3.06564  -2
  13   6   6 48.6831 3.06564   1
  13   7   2 32.6672 2.59837  -2
 -13   7   6 32.6672 2.59837   1
  10   7   3 9.57600 1.58932  -2
 -10   7   6 9.57600 1.58932   1
   9   7   3 94.8434 8.05702  -2
  -9   7   6 94.8434 8.05702   1
   8   7   4 180.369 11.2781  -2
  -8   7   6 180.369 11.2781   1
   7   7   4 71.3098 5.45337  -2
  -7   7   6 71.3098 5.45337   1
   6   7   4 80.9379 6.07725  -2
  -6   7   6 80.9379 6.07725   1
   4   7   5 130.343 5.60682  -2
  -4   7   6 130.343 5.60682   1
   3   7   5 223.186 6.92511  -2
  -3   7   6 223.186 6.92511   1
   2   7   5 993.146 49.6486  -2
  -2   7   6 993.146 49.6486   1
   1   7   6 128.497 4.41763  -2
  -1   7   6 128.497 4.41763   1
   0   7   6 -0.1121 1.04767  -2
   0   7   6 -0.1121 1.04767   1
  -1   7   6 127.215 4.41246  -2
   1   7   6 127.215 4.41246   1
  -2   7   7 853.018 43.0055  -2
   2   7   6 853.018 43.0055   1
  -3   7   7 435.805 16.2700  -2
   3   7   6 435.805 16.2700   1
  -4   7   7 72.6499 6.55215  -2
   4   7   6 72.6499 6.55215   1
  -6   7   8 23.1264 6.46175  -2
   6   7   6 23.1264 6.46175   1
  -7   7   8 29.3232 4.54706  -2
   7   7   6 29.3232 4.54706   1
  -8   7   8 38.6440 7.58987  -2
   8   7   6 38.6440 7.58987   1
  -9   7   9 445.621 16.2204  -2
   9   7   6 445.621 16.2204   1
 -10   7   9 35.4150 2.25156  -2
  10   7   6 35.4150 2.25156   1
 -11   7   9 107.593 8.97310  -2
  11   7   6 107.593 8.97310   1
 -12   7  10 -3.2488 4.71532  -2
  12   7   6 -3.2488 4.71532   1
 -13   7  10 9.85669 3.17579  -2
  13   7   6 9.85669 3.17579   1
  13   8   2 39.7814 2.57869  -2
 -13   8   6 39.7814 2.57869   1
  10   8   3 200.142 6.49618  -2
 -10   8   6 200.142 6.49618   1
   8   8   4 22.3176 5.41401  -2
  -8   8   6 22.3176 5.41401   1
   7   8   4 16.0795 3.28678  -2
  -7   8   6 16.0795 3.28678   1
   6   8   4 64.6313 5.84770  -2
  -6   8   6 64.6313 5.84770   1
   4   8   5 85.7299 4.36510  -2
  -4   8   6 85.7299 4.36510   1
   3   8   5 32.3109 2.62953  -2
  -3   8   6 32.3109 2.62953   1
   2   8   5 317.419 11.9427  -2
  -2   8   6 317.419 11.9427   1
   1   8   6 830.445 24.1664  -2
  -1   8   6 830.445 24.1664   1
   0   8   6 24.3915 1.61047  -2
   0   8   6 24.3915 1.61047   1
  -1   8   6 796.504 23.2306  -2
   1   8   6 796.504 23.2306   1
  -2   8   7 212.601 12.6585  -2
   2   8   6 212.601 12.6585   1
  -3   8   7 271.394 10.6837  -2
   3   8   6 271.394 10.6837   1
  -4   8   7 108.352 8.11423  -2
   4   8   6 108.352 8.11423   1
  -5   8   7 36.7408 6.87964  -2
   5   8   6 36.7408 6.87964   1
  -6   8   8 159.886 7.66530  -2
   6   8   6 159.886 7.66530   1
  -7   8   8 76.3221 8.78761  -2
   7   8   6 76.3221 8.78761   1
  -9   8   9 71.4520 5.55724  -2
   9   8   6 71.4520 5.55724   1
 -10   8   9 10.7707 1.66549  -2
  10   8   6 10.7707 1.66549   1
 -12   8  10 12.5567 4.71720  -2
  12   8   6 12.5567 4.71720   1
  10   9   3 66.2840 3.37079  -2
 -10   9   6 66.2840 3.37079   1
   7   9   4 51.3347 3.34954  -2
  -7   9   6 51.3347 3.34954   1
   6   9   4 25.1185 3.60923  -2
  -6   9   6 25.1185 3.60923   1
   4   9   5 40.5609 3.12650  -2
  -4   9   6 40.5609 3.12650   1
   3   9   5 5.44275 2.14327  -2
  -3   9   6 5.44275 2.14327   1
   2   9   5 69.2059 3.98459  -2
  -2   9   6 69.2059 3.98459   1
   1   9   6 114.135 4.12129  -2
  -1   9   6 114.135 4.12129   1
   0   9   6 124.966 4.29240  -2
   0   9   6 124.966 4.29240   1
  -1   9   6 113.589 4.21480  -2
   1   9   6 113.589 4.21480   1
  -2   9   7 18.0222 4.62216  -2
   2   9   6 18.0222 4.62216   1
  -3   9   7 26.9352 2.86904  -2
   3   9   6 26.9352 2.86904   1
  -4   9   7 5.69714 4.25915  -2
   4   9   6 5.69714 4.25915   1
  -5   9   7 144.386 11.0043  -2
   5   9   6 144.386 11.0043   1
  -6   9   8 -0.1972 2.66641  -2
   6   9   6 -0.1972 2.66641   1
  -7   9   8 66.8162 3.09584  -2
   7   9   6 66.8162 3.09584   1
 -10   9   9 55.3071 2.24416  -2
  10   9   6 55.3071 2.24416   1
  10  10   3 57.7899 3.72856  -2
 -10  10   6 57.7899 3.72856   1
   7  10   4 34.3853 2.37091  -2
  -7  10   6 34.3853 2.37091   1
   6  10   4 35.8517 3.91436  -2
  -6  10   6 35.8517 3.91436   1
   5  10   4 154.919 10.8037  -2
  -5  10   6 154.919 10.8037   1
   4  10   5 8.66151 2.47386  -2
  -4  10   6 8.66151 2.47386   1
   3  10   5 62.3215 3.57220  -2
  -3  10   6 62.3215 3.57220   1
   2  10   5 125.546 5.86567  -2
  -2  10   6 125.546 5.86567   1
   1  10   6 91.3976 4.71965  -2
  -1  10   6 91.3976 4.71965   1
   0  10   6 164.137 5.44785  -2
   0  10   6 164.137 5.44785   1
  -1  10   6 86.4616 3.65905  -2
   1  10   6 86.4616 3.65905   1
  -2  10   7 147.065 5.27316  -2
   2  10   6 147.065 5.27316   1
  -3  10   7 24.7666 2.34657  -2
   3  10   6 24.7666 2.34657   1
  -4  10   7 25.2016 2.87164  -2
   4  10   6 25.2016 2.87164   1
  -5  10   7 27.1654 6.45470  -2
   5  10   6 27.1654 6.45470   1
  -5  10   8 0.11361 6.24843  -2
   5  10   6 0.11361 6.24843   1
  -6  10   8 185.215 5.39580  -2
   6  10   6 185.215 5.39580   1
  -7  10   8 11.2987 2.49187  -2
   7  10   6 11.2987 2.49187   1
  -8  10   8 110.764 10.3390  -2
   8  10   6 110.764 10.3390   1
  -9  10   9 37.0033 6.22786  -2
   9  10   6 37.0033 6.22786   1
 -10  10   9 47.3061 2.15917  -2
  10  10   6 47.3061 2.15917   1
  10  11   3 13.8381 2.07457  -2
 -10  11   6 13.8381 2.07457   1
   7  11   4 23.9691 2.87111  -2
  -7  11   6 23.9691 2.87111   1
   6  11   4 118.486 4.26421  -2
  -6  11   6 118.486 4.26421   1
   4  11   5 37.7031 2.82813  -2
  -4  11   6 37.7031 2.82813   1
   3  11   5 399.184 12.2981  -2
  -3  11   6 399.184 12.2981   1
   2  11   5 127.861 8.62484  -2
  -2  11   6 127.861 8.62484   1
   1  11   6 5.30923 2.36715  -2
  -1  11   6 5.30923 2.36715   1
   0  11   6 9.59924 1.38451  -2
   0  11   6 9.59924 1.38451   1
  -1  11   6 0.54608 1.76360  -2
   1  11   6 0.54608 1.76360   1
  -2  11   7 159.341 5.13376  -2
   2  11   6 159.341 5.13376   1
  -3  11   7 156.756 4.64452  -2
   3  11   6 156.756 4.64452   1
  -4  11   7 187.824 6.25809  -2
   4  11   6 187.824 6.25809   1
  -5  11   8 158.691 11.3410  -2
   5  11   6 158.691 11.3410   1
  -5  11   7 341.068 19.8494  -2
   5  11   6 341.068 19.8494   1
  -6  11   8 16.5034 2.41570  -2
   6  11   6 16.5034 2.41570   1
  -7  11   8 59.1720 3.00588  -2
   7  11   6 59.1720 3.00588   1
  -8  11   8 15.3727 6.12256  -2
   8  11   6 15.3727 6.12256   1
 -10  11   9 4.50638 1.57392  -2
  10  11   6 4.50638 1.57392   1
  10  12   3 22.6127 2.35435  -2
 -10  12   6 22.6127 2.35435   1
   7  12   4 74.7985 5.94886  -2
  -7  12   6 74.7985 5.94886   1
   6  12   4 12.1840 2.45365  -2
  -6  12   6 12.1840 2.45365   1
  -5  12   6 38.4322 6.04966   1
   4  12   5 6.38369 2.14450  -2
  -4  12   6 6.38369 2.14450   1
   3  12   5 18.9207 2.08033  -2
  -3  12   6 18.9207 2.08033   1
   2  12   5 126.632 6.51394  -2
  -2  12   6 126.632 6.51394   1
   1  12   6 5.58559 2.27042  -2
  -1  12   6 5.58559 2.27042   1
   0  12   6 500.686 12.8002  -2
   0  12   6 500.686 12.8002   1
  -1  12   6 7.74963 1.73846  -2
   1  12   6 7.74963 1.73846   1
  -2  12   7 27.8477 3.11502  -2
   2  12   6 27.8477 3.11502   1
  -3  12   7 17.3995 1.81383  -2
   3  12   6 17.3995 1.81383   1
  -4  12   7 88.0250 3.05287  -2
   4  12   6 88.0250 3.05287   1
  -5  12   8 8.27075 6.18618  -2
   5  12   6 8.27075 6.18618   1
  -6  12   8 110.264 3.59576  -2
   6  12   6 110.264 3.59576   1
  -7  12   8 79.6126 2.91713  -2
   7  12   6 79.6126 2.91713   1
 -10  12   9 0.49230 1.34860  -2
  10  12   6 0.49230 1.34860   1
  10  13   3 41.6472 2.46958  -2
 -10  13   6 41.6472 2.46958   1
   7  13   4 177.860 6.84912  -2
  -7  13   6 177.860 6.84912   1
   6  13   4 131.829 9.33044  -2
  -6  13   6 131.829 9.33044   1
   4  13   5 140.051 6.03262  -2
  -4  13   6 140.051 6.03262   1
   3  13   5 11.9161 3.02211  -2
  -3  13   6 11.9161 3.02211   1
   2  13   5 364.308 14.0510  -2
  -2  13   6 364.308 14.0510   1
   1  13   6 357.273 7.88983  -2
  -1  13   6 357.273 7.88983   1
   0  13   6 47.1500 1.89105  -2
   0  13   6 47.1500 1.89105   1
  -1  13   6 362.490 6.93666  -2
   1  13   6 362.490 6.93666   1
  -2  13   7 269.935 6.39275  -2
   2  13   6 269.935 6.39275   1
  -3  13   7 64.9895 2.77105  -2
   3  13   6 64.9895 2.77105   1
  -4  13   7 142.038 4.05313  -2
   4  13   6 142.038 4.05313   1
  -5  13   8 63.3499 7.61034  -2
   5  13   6 63.3499 7.61034   1
  -6  13   8 177.902 5.60215  -2
   6  13   6 177.902 5.60215   1
  -7  13   8 67.3290 2.85325  -2
   7  13   6 67.3290 2.85325   1
 -10  13   9 5.93414 1.64025  -2
  10  13   6 5.93414 1.64025   1
   7  14   4 104.773 5.24823  -2
  -7  14   6 104.773 5.24823   1
   6  14   4 83.9208 7.06085  -2
  -6  14   6 83.9208 7.06085   1
   4  14   5 57.5212 6.59839  -2
  -4  14   6 57.5212 6.59839   1
   3  14   5 44.3817 2.69003  -2
  -3  14   6 44.3817 2.69003   1
   2  14   5 16.7446 4.61817  -2
  -2  14   6 16.7446 4.61817   1
   1  14   6 3.75145 3.33736  -2
  -1  14   6 3.75145 3.33736   1
   0  14   6 186.687 4.55433  -2
   0  14   6 186.687 4.55433   1
  -1  14   6 4.73503 2.22934  -2
   1  14   6 4.73503 2.22934   1
  -2  14   7 22.9327 2.81240  -2
   2  14   6 22.9327 2.81240   1
  -3  14   7 228.540 5.46300  -2
   3  14   6 228.540 5.46300   1
  -4  14   7 4.33702 2.82327  -2
   4  14   6 4.33702 2.82327   1
  -5  14   8 33.4494 6.30999  -2
   5  14   6 33.4494 6.30999   1
  -6  14   8 33.3970 2.65073  -2
   6  14   6 33.3970 2.65073   1
  -7  14   8 31.6874 2.01243  -2
   7  14   6 31.6874 2.01243   1
   7  15   4 10.7792 2.49325  -2
  -7  15   6 10.7792 2.49325   1
   6  15   4 8.59195 3.34675  -2
  -6  15   6 8.59195 3.34675   1
   4  15   5 157.875 10.0585  -2
  -4  15   6 157.875 10.0585   1
   3  15   5 5.94814 1.92034  -2
  -3  15   6 5.94814 1.92034   1
   2  15   5 65.9481 5.31701  -2
  -2  15   6 65.9481 5.31701   1
   1  15   6 20.5157 4.22043  -2
  -1  15   6 20.5157 4.22043   1
   0  15   6 -0.9904 1.57661  -2
   0  15   6 -0.9904 1.57661   1
  -1  15   6 25.2401 2.15242  -2
   1  15   6 25.2401 2.15242   1
  -2  15   7 77.7760 4.54688  -2
   2  15   6 77.7760 4.54688   1
  -3  15   7 114.860 3.33183  -2
   3  15   6 114.860 3.33183   1
  -4  15   7 6.20709 2.61938  -2
   4  15   6 6.20709 2.61938   1
  -5  15   8 23.4800 5.95196  -2
   5  15   6 23.4800 5.95196   1
  -6  15   8 18.0270 2.62284  -2
   6  15   6 18.0270 2.62284   1
  -7  15   8 3.20189 1.74703  -2
   7  15   6 3.20189 1.74703   1
   6  16   4 28.0664 3.75128  -2
  -6  16   6 28.0664 3.75128   1
   4  16   5 11.3723 2.28777  -2
  -4  16   6 11.3723 2.28777   1
   3  16   5 19.0641 1.73711  -2
  -3  16   6 19.0641 1.73711   1
   2  16   5 27.6213 5.63478  -2
  -2  16   6 27.6213 5.63478   1
   1  16   6 33.8969 3.42130  -2
  -1  16   6 33.8969 3.42130   1
   0  16   6 46.8912 2.55119  -2
   0  16   6 46.8912 2.55119   1
  -1  16   6 34.3005 3.06042  -2
   1  16   6 34.3005 3.06042   1
  -2  16   7 76.6365 4.16269  -2
   2  16   6 76.6365 4.16269   1
  -3  16   7 54.8079 2.39119  -2
   3  16   6 54.8079 2.39119   1
  -4  16   7 2.37376 2.16466  -2
   4  16   6 2.37376 2.16466   1
  -6  16   8 19.2974 3.28568  -2
   6  16   6 19.2974 3.28568   1
   4  17   5 22.7652 3.88237  -2
  -4  17   6 22.7652 3.88237   1
   3  17   5 32.9675 2.41529  -2
  -3  17   6 32.9675 2.41529   1
   1  17   6 3.95047 3.07118  -2
  -1  17   6 3.95047 3.07118   1
   0  17   6 10.0800 1.74915  -2
   0  17   6 10.0800 1.74915   1
  -1  17   6 10.1295 2.59871  -2
   1  17   6 10.1295 2.59871   1
  -2  17   7 11.1531 3.27495  -2
   2  17   6 11.1531 3.27495   1
  -3  17   7 17.0428 2.06924  -2
   3  17   6 17.0428 2.06924   1
  -4  17   7 39.1752 2.70151  -2
   4  17   6 39.1752 2.70151   1
   3  18   5 12.9922 1.91437  -2
  -3  18   6 12.9922 1.91437   1
   2  18   5 59.1037 5.16397  -2
  -2  18   6 59.1037 5.16397   1
   1  18   6 -1.2690 3.40042  -2
  -1  18   6 -1.2690 3.40042   1
   0  18   6 5.17830 1.43658  -2
   0  18   6 5.17830 1.43658   1
  -1  18   6 3.46486 2.61052  -2
   1  18   6 3.46486 2.61052   1
  13   0   3 2.39731 2.59516  -2
 -13   0   7 2.39731 2.59516   1
  10   0   4 162.695 5.06263  -2
 -10   0   7 162.695 5.06263   1
   8   0   5 21.5433 5.35519  -2
  -8   0   7 21.5433 5.35519   1
   7   0   5 4.68839 3.38134  -2
  -7   0   7 4.68839 3.38134   1
   6   0   5 10.5217 2.73965  -2
  -6   0   7 10.5217 2.73965   1
   5   0   6 247.818 13.6651  -2
  -5   0   7 247.818 13.6651   1
   4   0   6 6.75861 1.81631  -2
  -4   0   7 6.75861 1.81631   1
   3   0   6 456.255 12.9166  -2
  -3   0   7 456.255 12.9166   1
   2   0   6 2789.44 126.474  -2
  -2   0   7 2789.44 126.474   1
   1   0   7 4.18692 1.87977  -2
  -1   0   7 4.18692 1.87977   1
   0   0   7 55.0813 4.18071  -2
   0   0   7 55.0813 4.18071   1
  -1   0   7 3.36776 2.63377  -2
   1   0   7 3.36776 2.63377   1
  -2   0   8 2.87268 4.11713  -2
   2   0   7 2.87268 4.11713   1
  -3   0   8 6.38983 1.89039  -2
   3   0   7 6.38983 1.89039   1
  -4   0   8 106.271 4.21422  -2
   4   0   7 106.271 4.21422   1
  -5   0   9 88.0794 7.70000  -2
   5   0   7 88.0794 7.70000   1
  -6   0   9 26.8200 4.17259  -2
   6   0   7 26.8200 4.17259   1
  -7   0   9 -0.1360 2.84319  -2
   7   0   7 -0.1360 2.84319   1
  -8   0   9 1.66004 4.68245  -2
   8   0   7 1.66004 4.68245   1
  -9   0  10 3.10008 3.81645  -2
   9   0   7 3.10008 3.81645   1
 -10   0  10 64.8870 4.38421  -2
  10   0   7 64.8870 4.38421   1
 -11   0  10 -6.3034 5.44300  -2
  11   0   7 -6.3034 5.44300   1
 -12   0  11 3.80695 4.74989  -2
  12   0   7 3.80695 4.74989   1
 -13   0  11 0.19188 3.81503  -2
  13   0   7 0.19188 3.81503   1
  13   1   3 71.2522 2.83830  -2
 -13   1   7 71.2522 2.83830   1
  10   1   4 469.377 8.40509  -2
 -10   1   7 469.377 8.40509   1
   8   1   5 49.3324 4.30973  -2
  -8   1   7 49.3324 4.30973   1
   7   1   5 51.4867 3.40698  -2
  -7   1   7 51.4867 3.40698   1
   6   1   5 345.668 8.89671  -2
  -6   1   7 345.668 8.89671   1
   5   1   6 49.6524 3.62036  -2
  -5   1   7 49.6524 3.62036   1
   4   1   6 1210.37 23.6788  -2
  -4   1   7 1210.37 23.6788   1
   3   1   6 2628.44 52.8883  -2
  -3   1   7 2628.44 52.8883   1
   2   1   6 1525.26 69.4660  -2
  -2   1   7 1525.26 69.4660   1
   1   1   7 27.4629 2.24786  -2
  -1   1   7 27.4629 2.24786   1
   0   1   7 1.21243 0.88005  -2
   0   1   7 1.21243 0.88005   1
  -1   1   7 25.5801 1.35582  -2
   1   1   7 25.5801 1.35582   1
  -2   1   8 742.763 18.5932  -2
   2   1   7 742.763 18.5932   1
  -3   1   8 1391.11 28.9437  -2
   3   1   7 1391.11 28.9437   1
  -4   1   8 33.3728 1.79081  -2
   4   1   7 33.3728 1.79081   1
   5   1   7 67.5289 4.00562   1
  -6   1   9 296.909 8.08842  -2
   6   1   7 296.909 8.08842   1
  -7   1   9 186.915 6.17591  -2
   7   1   7 186.915 6.17591   1
  -8   1   9 89.5562 5.16218  -2
   8   1   7 89.5562 5.16218   1
  -9   1  10 136.835 5.65517  -2
   9   1   7 136.835 5.65517   1
 -10   1  10 54.8534 2.79022  -2
  10   1   7 54.8534 2.79022   1
 -11   1  10 86.6261 8.18723  -2
  11   1   7 86.6261 8.18723   1
 -12   1  11 18.9102 5.25144  -2
  12   1   7 18.9102 5.25144   1
 -13   1  11 4.16583 2.35427  -2
  13   1   7 4.16583 2.35427   1
  13   2   3 107.690 4.29788  -2
 -13   2   7 107.690 4.29788   1
  10   2   4 84.8353 2.43753  -2
 -10   2   7 84.8353 2.43753   1
   8   2   5 188.467 8.40478  -2
  -8   2   7 188.467 8.40478   1
   7   2   5 70.6111 4.03861  -2
  -7   2   7 70.6111 4.03861   1
   6   2   5 394.645 9.41111  -2
  -6   2   7 394.645 9.41111   1
   5   2   6 69.6922 5.93741  -2
  -5   2   7 69.6922 5.93741   1
   4   2   6 28.7323 1.77938  -2
  -4   2   7 28.7323 1.77938   1
   3   2   6 1927.35 48.7243  -2
  -3   2   7 1927.35 48.7243   1
   2   2   6 2222.04 60.8394  -2
  -2   2   7 2222.04 60.8394   1
   1   2   7 220.553 6.43857  -2
  -1   2   7 220.553 6.43857   1
   0   2   7 2715.46 59.6454  -2
   0   2   7 2715.46 59.6454   1
  -1   2   7 215.297 5.20743  -2
   1   2   7 215.297 5.20743   1
  -2   2   8 492.260 11.7847  -2
   2   2   7 492.260 11.7847   1
  -3   2   8 473.146 9.65841  -2
   3   2   7 473.146 9.65841   1
  -4   2   8 67.4681 2.23127  -2
   4   2   7 67.4681 2.23127   1
  -5   2   9 413.507 23.5533  -2
   5   2   7 413.507 23.5533   1
  -6   2   9 44.7103 2.33270  -2
   6   2   7 44.7103 2.33270   1
  -7   2   9 122.851 4.35574  -2
   7   2   7 122.851 4.35574   1
  -8   2   9 140.486 6.67283  -2
   8   2   7 140.486 6.67283   1
  -9   2  10 194.196 7.13394  -2
   9   2   7 194.196 7.13394   1
 -10   2  10 16.4980 1.98490  -2
  10   2   7 16.4980 1.98490   1
 -11   2  10 1.74578 6.03286  -2
  11   2   7 1.74578 6.03286   1
 -12   2  11 168.749 10.7955  -2
  12   2   7 168.749 10.7955   1
 -13   2  11 19.4734 3.61394  -2
  13   2   7 19.4734 3.61394   1
  13   3   3 5.71674 1.73155  -2
 -13   3   7 5.71674 1.73155   1
  10   3   4 13.0589 1.70321  -2
 -10   3   7 13.0589 1.70321   1
   7   3   5 52.5039 2.79687  -2
  -7   3   7 52.5039 2.79687   1
   6   3   5 619.569 16.4430  -2
  -6   3   7 619.569 16.4430   1
   5   3   6 144.167 6.34724  -2
  -5   3   7 144.167 6.34724   1
   4   3   6 134.969 3.34343  -2
  -4   3   7 134.969 3.34343   1
   3   3   6 52.7653 1.57248  -2
  -3   3   7 52.7653 1.57248   1
   2   3   6 484.910 16.7306  -2
  -2   3   7 484.910 16.7306   1
   1   3   7 31.0081 1.53238  -2
  -1   3   7 31.0081 1.53238   1
   0   3   7 171.666 3.45553  -2
   0   3   7 171.666 3.45553   1
  -1   3   7 28.3760 1.70942  -2
   1   3   7 28.3760 1.70942   1
   2   3   7 236.490 6.05315   1
  -3   3   8 585.584 13.7532  -2
   3   3   7 585.584 13.7532   1
  -4   3   8 261.843 6.53076  -2
   4   3   7 261.843 6.53076   1
   5   3   7 401.950 15.1522   1
  -6   3   9 63.8781 3.08468  -2
   6   3   7 63.8781 3.08468   1
  -7   3   9 19.7577 2.04479  -2
   7   3   7 19.7577 2.04479   1
  -8   3   9 83.1594 4.90950  -2
   8   3   7 83.1594 4.90950   1
  -9   3  10 141.920 5.93045  -2
   9   3   7 141.920 5.93045   1
 -10   3  10 4.06215 2.27257  -2
  10   3   7 4.06215 2.27257   1
 -11   3  10 54.4369 7.36582  -2
  11   3   7 54.4369 7.36582   1
 -12   3  11 78.2820 7.19315  -2
  12   3   7 78.2820 7.19315   1
 -13   3  11 26.7552 2.79830  -2
  13   3   7 26.7552 2.79830   1
  13   4   3 52.2444 3.69354  -2
 -13   4   7 52.2444 3.69354   1
  10   4   4 65.2348 3.16850  -2
 -10   4   7 65.2348 3.16850   1
   7   4   5 407.660 14.8467  -2
  -7   4   7 407.660 14.8467   1
   6   4   5 77.3484 3.75730  -2
  -6   4   7 77.3484 3.75730   1
  -5   4   7 74.4869 5.32136   1
   4   4   6 43.2052 2.46116  -2
  -4   4   7 43.2052 2.46116   1
   3   4   6 119.675 4.07064  -2
  -3   4   7 119.675 4.07064   1
   2   4   6 270.974 13.6463  -2
  -2   4   7 270.974 13.6463   1
   1   4   7 1227.06 24.4137  -2
  -1   4   7 1227.06 24.4137   1
   0   4   7 1131.10 20.9380  -2
   0   4   7 1131.10 20.9380   1
  -1   4   7 1202.46 26.2009  -2
   1   4   7 1202.46 26.2009   1
   2   4   7 253.695 7.52904   1
  -3   4   8 282.429 9.73614  -2
   3   4   7 282.429 9.73614   1
  -4   4   8 10.4832 2.50262  -2
   4   4   7 10.4832 2.50262   1
   5   4   7 29.4794 2.97567   1
  -6   4   9 219.484 6.79916  -2
   6   4   7 219.484 6.79916   1
  -7   4   9 106.588 3.99764  -2
   7   4   7 106.588 3.99764   1
  -8   4   9 54.4349 4.35271  -2
   8   4   7 54.4349 4.35271   1
  -9   4  10 76.6006 3.84426  -2
   9   4   7 76.6006 3.84426   1
 -10   4  10 181.223 5.61032  -2
  10   4   7 181.223 5.61032   1
 -11   4  10 8.59218 6.29855  -2
  11   4   7 8.59218 6.29855   1
 -12   4  11 78.9080 7.23984  -2
  12   4   7 78.9080 7.23984   1
 -13   4  11 8.98348 2.34269  -2
  13   4   7 8.98348 2.34269   1
  13   5   3 12.6523 2.00797  -2
 -13   5   7 12.6523 2.00797   1
  10   5   4 132.639 5.14457  -2
 -10   5   7 132.639 5.14457   1
   7   5   5 52.9178 4.80298  -2
  -7   5   7 52.9178 4.80298   1
   6   5   5 45.9961 4.88225  -2
  -6   5   7 45.9961 4.88225   1
   5   5   6 293.631 15.3740  -2
  -5   5   7 293.631 15.3740   1
   4   5   6 92.4484 3.57214  -2
  -4   5   7 92.4484 3.57214   1
   3   5   6 139.588 4.63909  -2
  -3   5   7 139.588 4.63909   1
   2   5   6 139.120 8.09075  -2
  -2   5   7 139.120 8.09075   1
   1   5   7 72.6298 2.57384  -2
  -1   5   7 72.6298 2.57384   1
   0   5   7 4.38881 0.71214  -2
   0   5   7 4.38881 0.71214   1
  -1   5   7 67.6184 2.39939  -2
   1   5   7 67.6184 2.39939   1
   2   5   7 58.8662 3.17905   1
  -3   5   8 241.076 14.6084  -2
   3   5   7 241.076 14.6084   1
  -4   5   8 107.932 8.41984  -2
   4   5   7 107.932 8.41984   1
   5   5   7 77.3531 6.71200   1
  -6   5   9 87.6376 6.23184  -2
   6   5   7 87.6376 6.23184   1
  -7   5   9 10.7984 4.33893  -2
   7   5   7 10.7984 4.33893   1
   8   5   7 49.5307 6.08721   1
  -9   5  10 290.918 6.70794  -2
   9   5   7 290.918 6.70794   1
 -10   5  10 142.854 3.98553  -2
  10   5   7 142.854 3.98553   1
 -11   5  10 91.3260 8.55402  -2
  11   5   7 91.3260 8.55402   1
 -12   5  11 17.9280 5.33066  -2
  12   5   7 17.9280 5.33066   1
 -13   5  11 67.0417 3.67502  -2
  13   5   7 67.0417 3.67502   1
  13   6   3 14.4370 1.90702  -2
 -13   6   7 14.4370 1.90702   1
  10   6   4 97.9269 3.09809  -2
 -10   6   7 97.9269 3.09809   1
   8   6   5 67.4177 6.61413  -2
  -8   6   7 67.4177 6.61413   1
   7   6   5 21.2360 3.59635  -2
  -7   6   7 21.2360 3.59635   1
   6   6   5 36.0174 4.36939  -2
  -6   6   7 36.0174 4.36939   1
   4   6   6 406.916 11.9745  -2
  -4   6   7 406.916 11.9745   1
   3   6   6 534.893 15.3523  -2
  -3   6   7 534.893 15.3523   1
   2   6   6 632.966 29.7088  -2
  -2   6   7 632.966 29.7088   1
   1   6   7 543.059 15.4934  -2
  -1   6   7 543.059 15.4934   1
   0   6   7 99.1748 3.49188  -2
   0   6   7 99.1748 3.49188   1
  -1   6   7 512.791 15.3745  -2
   1   6   7 512.791 15.3745   1
  -2   6   8 100.883 5.22650  -2
   2   6   7 100.883 5.22650   1
  -3   6   8 229.966 7.68682  -2
   3   6   7 229.966 7.68682   1
  -4   6   8 112.191 8.72354  -2
   4   6   7 112.191 8.72354   1
   5   6   7 45.4794 5.18037   1
  -6   6   9 111.074 11.3134  -2
   6   6   7 111.074 11.3134   1
  -7   6   9 6.80352 5.86160  -2
   7   6   7 6.80352 5.86160   1
  -8   6   9 1.21345 7.35142  -2
   8   6   7 1.21345 7.35142   1
  -9   6  10 98.8530 4.98233  -2
   9   6   7 98.8530 4.98233   1
 -10   6  10 18.6234 2.03406  -2
  10   6   7 18.6234 2.03406   1
 -11   6  10 65.0792 7.44922  -2
  11   6   7 65.0792 7.44922   1
 -12   6  11 7.09700 4.99022  -2
  12   6   7 7.09700 4.99022   1
 -13   6  11 4.12202 3.30981  -2
  13   6   7 4.12202 3.30981   1
  13   7   3 3.66985 2.04070  -2
 -13   7   7 3.66985 2.04070   1
  10   7   4 140.070 3.77450  -2
 -10   7   7 140.070 3.77450   1
   8   7   5 19.5070 5.17481  -2
  -8   7   7 19.5070 5.17481   1
   7   7   5 53.3131 4.76988  -2
  -7   7   7 53.3131 4.76988   1
   6   7   5 6.24128 3.80373  -2
  -6   7   7 6.24128 3.80373   1
   4   7   6 83.8826 3.52774  -2
  -4   7   7 83.8826 3.52774   1
   3   7   6 475.318 13.7863  -2
  -3   7   7 475.318 13.7863   1
   2   7   6 830.394 29.5612  -2
  -2   7   7 830.394 29.5612   1
   1   7   7 232.179 7.31269  -2
  -1   7   7 232.179 7.31269   1
   0   7   7 75.9928 2.89648  -2
   0   7   7 75.9928 2.89648   1
  -1   7   7 229.256 7.24993  -2
   1   7   7 229.256 7.24993   1
  -2   7   8 175.083 7.81884  -2
   2   7   7 175.083 7.81884   1
  -3   7   8 246.076 6.88607  -2
   3   7   7 246.076 6.88607   1
  -4   7   8 647.389 34.1027  -2
   4   7   7 647.389 34.1027   1
  -6   7   9 20.4353 6.48685  -2
   6   7   7 20.4353 6.48685   1
  -7   7   9 60.8988 5.18874  -2
   7   7   7 60.8988 5.18874   1
  -8   7   9 56.1317 7.99508  -2
   8   7   7 56.1317 7.99508   1
  -9   7  10 196.179 8.66257  -2
   9   7   7 196.179 8.66257   1
 -10   7  10 58.1473 2.59832  -2
  10   7   7 58.1473 2.59832   1
 -11   7  10 145.336 10.2003  -2
  11   7   7 145.336 10.2003   1
 -12   7  11 -8.7511 4.59067  -2
  12   7   7 -8.7511 4.59067   1
 -13   7  11 10.0295 3.22720  -2
  13   7   7 10.0295 3.22720   1
  13   8   3 31.2485 2.34101  -2
 -13   8   7 31.2485 2.34101   1
  10   8   4 72.2276 2.53716  -2
 -10   8   7 72.2276 2.53716   1
   8   8   5 69.5374 7.03924  -2
  -8   8   7 69.5374 7.03924   1
   7   8   5 323.818 12.6730  -2
  -7   8   7 323.818 12.6730   1
   6   8   5 13.7949 4.31586  -2
  -6   8   7 13.7949 4.31586   1
   4   8   6 109.104 5.15138  -2
  -4   8   7 109.104 5.15138   1
   3   8   6 290.385 11.0489  -2
  -3   8   7 290.385 11.0489   1
   2   8   6 236.945 9.27370  -2
  -2   8   7 236.945 9.27370   1
   1   8   7 1036.55 30.0456  -2
  -1   8   7 1036.55 30.0456   1
   0   8   7 2115.12 60.6244  -2
   0   8   7 2115.12 60.6244   1
  -1   8   7 991.564 28.7775  -2
   1   8   7 991.564 28.7775   1
  -2   8   8 372.308 20.4671  -2
   2   8   7 372.308 20.4671   1
  -3   8   8 71.5074 4.02494  -2
   3   8   7 71.5074 4.02494   1
  -4   8   8 42.6900 5.84875  -2
   4   8   7 42.6900 5.84875   1
  -6   8   9 197.743 8.93999  -2
   6   8   7 197.743 8.93999   1
  -7   8   9 278.377 12.4039  -2
   7   8   7 278.377 12.4039   1
  -9   8  10 123.132 5.45015  -2
   9   8   7 123.132 5.45015   1
 -10   8  10 4.48291 1.58485  -2
  10   8   7 4.48291 1.58485   1
 -12   8  11 15.9969 4.31414  -2
  12   8   7 15.9969 4.31414   1
  10   9   4 53.0373 3.08160  -2
 -10   9   7 53.0373 3.08160   1
   9   9   4 25.9239 4.94982  -2
  -9   9   7 25.9239 4.94982   1
   7   9   5 40.2768 3.22042  -2
  -7   9   7 40.2768 3.22042   1
   6   9   5 4.71167 3.21826  -2
  -6   9   7 4.71167 3.21826   1
   4   9   6 9.26610 2.48983  -2
  -4   9   7 9.26610 2.48983   1
   3   9   6 28.5103 2.72016  -2
  -3   9   7 28.5103 2.72016   1
   2   9   6 16.6820 2.72177  -2
  -2   9   7 16.6820 2.72177   1
   1   9   7 1.64531 1.81558  -2
  -1   9   7 1.64531 1.81558   1
   0   9   7 41.3343 2.15522  -2
   0   9   7 41.3343 2.15522   1
  -1   9   7 3.12610 1.81274  -2
   1   9   7 3.12610 1.81274   1
  -2   9   8 99.3824 7.82105  -2
   2   9   7 99.3824 7.82105   1
  -3   9   8 50.2527 3.51069  -2
   3   9   7 50.2527 3.51069   1
  -4   9   8 73.0683 4.20200  -2
   4   9   7 73.0683 4.20200   1
  -5   9   8 118.558 9.61096  -2
   5   9   7 118.558 9.61096   1
  -6   9   9 45.1176 3.33910  -2
   6   9   7 45.1176 3.33910   1
  -7   9   9 52.4977 3.44928  -2
   7   9   7 52.4977 3.44928   1
 -10   9  10 170.844 4.04016  -2
  10   9   7 170.844 4.04016   1
  10  10   4 19.3873 2.76992  -2
 -10  10   7 19.3873 2.76992   1
   7  10   5 236.513 6.04464  -2
  -7  10   7 236.513 6.04464   1
   6  10   5 23.0283 3.73319  -2
  -6  10   7 23.0283 3.73319   1
   4  10   6 25.2361 2.57546  -2
  -4  10   7 25.2361 2.57546   1
   3  10   6 28.8736 2.65701  -2
  -3  10   7 28.8736 2.65701   1
   2  10   6 152.061 9.58332  -2
  -2  10   7 152.061 9.58332   1
   1  10   7 158.085 6.86599  -2
  -1  10   7 158.085 6.86599   1
   0  10   7 187.824 6.13589  -2
   0  10   7 187.824 6.13589   1
  -1  10   7 150.122 5.30148  -2
   1  10   7 150.122 5.30148   1
  -2  10   8 26.0592 2.24481  -2
   2  10   7 26.0592 2.24481   1
  -3  10   8 28.5455 2.34309  -2
   3  10   7 28.5455 2.34309   1
  -4  10   8 69.7293 3.73141  -2
   4  10   7 69.7293 3.73141   1
  -5  10   9 113.741 9.60341  -2
   5  10   7 113.741 9.60341   1
  -5  10   8 62.6282 7.57580  -2
   5  10   7 62.6282 7.57580   1
  -6  10   9 86.8094 2.85803  -2
   6  10   7 86.8094 2.85803   1
  -7  10   9 16.8494 2.49132  -2
   7  10   7 16.8494 2.49132   1
 -10  10  10 6.29992 1.69420  -2
  10  10   7 6.29992 1.69420   1
  10  11   4 121.124 4.20598  -2
 -10  11   7 121.124 4.20598   1
   7  11   5 100.957 3.87715  -2
  -7  11   7 100.957 3.87715   1
   6  11   5 27.2989 3.18975  -2
  -6  11   7 27.2989 3.18975   1
   4  11   6 191.663 6.75359  -2
  -4  11   7 191.663 6.75359   1
   3  11   6 158.536 5.70601  -2
  -3  11   7 158.536 5.70601   1
   2  11   6 173.130 10.7474  -2
  -2  11   7 173.130 10.7474   1
   1  11   7 7.65103 2.71964  -2
  -1  11   7 7.65103 2.71964   1
   0  11   7 5.45254 1.06284  -2
   0  11   7 5.45254 1.06284   1
  -1  11   7 5.44970 1.86628  -2
   1  11   7 5.44970 1.86628   1
  -2  11   8 33.1877 2.55719  -2
   2  11   7 33.1877 2.55719   1
  -3  11   8 77.7083 3.06513  -2
   3  11   7 77.7083 3.06513   1
  -4  11   8 391.412 10.9683  -2
   4  11   7 391.412 10.9683   1
  -5  11   9 188.908 12.7887  -2
   5  11   7 188.908 12.7887   1
  -6  11   9 207.473 5.27217  -2
   6  11   7 207.473 5.27217   1
  -7  11   9 4.81937 2.23547  -2
   7  11   7 4.81937 2.23547   1
  -8  11   9 8.91438 5.56760  -2
   8  11   7 8.91438 5.56760   1
 -10  11  10 9.56693 1.58028  -2
  10  11   7 9.56693 1.58028   1
  10  12   4 10.4304 1.71175  -2
 -10  12   7 10.4304 1.71175   1
   7  12   5 165.725 9.62246  -2
  -7  12   7 165.725 9.62246   1
   6  12   5 24.7425 2.78708  -2
  -6  12   7 24.7425 2.78708   1
   4  12   6 86.5988 3.43001  -2
  -4  12   7 86.5988 3.43001   1
   3  12   6 18.4596 2.12092  -2
  -3  12   7 18.4596 2.12092   1
   2  12   6 24.0218 3.74199  -2
  -2  12   7 24.0218 3.74199   1
   1  12   7 110.852 4.20632  -2
  -1  12   7 110.852 4.20632   1
   0  12   7 695.427 17.4274  -2
   0  12   7 695.427 17.4274   1
  -1  12   7 104.728 3.37593  -2
   1  12   7 104.728 3.37593   1
  -2  12   8 11.7624 2.12382  -2
   2  12   7 11.7624 2.12382   1
  -3  12   8 8.87164 1.68407  -2
   3  12   7 8.87164 1.68407   1
  -4  12   8 198.341 4.68069  -2
   4  12   7 198.341 4.68069   1
  -5  12   9 106.257 9.33717  -2
   5  12   7 106.257 9.33717   1
  -6  12   9 19.3586 2.37948  -2
   6  12   7 19.3586 2.37948   1
  -7  12   9 68.8538 2.95194  -2
   7  12   7 68.8538 2.95194   1
 -10  12  10 30.9502 2.31207  -2
  10  12   7 30.9502 2.31207   1
  10  13   4 110.937 4.26130  -2
 -10  13   7 110.937 4.26130   1
   7  13   5 27.5649 2.91257  -2
  -7  13   7 27.5649 2.91257   1
   6  13   5 122.287 8.81134  -2
  -6  13   7 122.287 8.81134   1
   4  13   6 131.719 7.13604  -2
  -4  13   7 131.719 7.13604   1
   3  13   6 68.2331 4.60221  -2
  -3  13   7 68.2331 4.60221   1
   2  13   6 259.501 15.2054  -2
  -2  13   7 259.501 15.2054   1
   1  13   7 87.0567 3.10442  -2
  -1  13   7 87.0567 3.10442   1
   0  13   7 33.0957 1.78422  -2
   0  13   7 33.0957 1.78422   1
  -1  13   7 88.5296 2.75945  -2
   1  13   7 88.5296 2.75945   1
  -2  13   8 76.8057 4.08001  -2
   2  13   7 76.8057 4.08001   1
  -3  13   8 140.534 3.61297  -2
   3  13   7 140.534 3.61297   1
  -4  13   8 88.4831 2.92401  -2
   4  13   7 88.4831 2.92401   1
  -5  13   9 65.8306 7.78543  -2
   5  13   7 65.8306 7.78543   1
  -6  13   9 24.9982 2.75384  -2
   6  13   7 24.9982 2.75384   1
  -7  13   9 21.2088 2.15503  -2
   7  13   7 21.2088 2.15503   1
  -9  13  10 16.5900 3.77749  -2
   9  13   7 16.5900 3.77749   1
   7  14   5 36.6189 4.25632  -2
  -7  14   7 36.6189 4.25632   1
   6  14   5 38.8099 5.26666  -2
  -6  14   7 38.8099 5.26666   1
   4  14   6 -3.3655 3.88672  -2
  -4  14   7 -3.3655 3.88672   1
   3  14   6 219.713 6.38950  -2
  -3  14   7 219.713 6.38950   1
   2  14   6 27.8620 6.82464  -2
  -2  14   7 27.8620 6.82464   1
   1  14   7 19.7800 2.96549  -2
  -1  14   7 19.7800 2.96549   1
   0  14   7 322.955 7.06625  -2
   0  14   7 322.955 7.06625   1
  -1  14   7 12.9570 2.20450  -2
   1  14   7 12.9570 2.20450   1
  -2  14   8 70.8543 3.41803  -2
   2  14   7 70.8543 3.41803   1
  -3  14   8 19.0082 2.01474  -2
   3  14   7 19.0082 2.01474   1
  -4  14   8 16.8535 2.92426  -2
   4  14   7 16.8535 2.92426   1
  -5  14   9 79.6617 8.29224  -2
   5  14   7 79.6617 8.29224   1
  -6  14   9 72.4022 2.84392  -2
   6  14   7 72.4022 2.84392   1
  -7  14   9 34.6322 2.00956  -2
   7  14   7 34.6322 2.00956   1
   7  15   5 8.29971 2.31125  -2
  -7  15   7 8.29971 2.31125   1
   6  15   5 42.2430 5.09120  -2
  -6  15   7 42.2430 5.09120   1
   4  15   6 8.42193 2.88645  -2
  -4  15   7 8.42193 2.88645   1
   3  15   6 106.685 3.69408  -2
  -3  15   7 106.685 3.69408   1
   2  15   6 70.6267 7.76850  -2
  -2  15   7 70.6267 7.76850   1
   1  15   7 42.5248 3.61758  -2
  -1  15   7 42.5248 3.61758   1
   0  15   7 6.02413 1.71809  -2
   0  15   7 6.02413 1.71809   1
  -1  15   7 42.6005 2.55956  -2
   1  15   7 42.6005 2.55956   1
  -2  15   8 18.7906 3.02799  -2
   2  15   7 18.7906 3.02799   1
  -3  15   8 76.7551 2.67503  -2
   3  15   7 76.7551 2.67503   1
  -4  15   8 52.3605 3.21268  -2
   4  15   7 52.3605 3.21268   1
  -5  15   9 149.606 10.1979  -2
   5  15   7 149.606 10.1979   1
  -6  15   9 3.43801 2.45468  -2
   6  15   7 3.43801 2.45468   1
  -7  15   9 0.00891 2.04157  -2
   7  15   7 0.00891 2.04157   1
   7  16   5 135.038 6.91510  -2
  -7  16   7 135.038 6.91510   1
   6  16   5 37.8846 2.66334  -2
  -6  16   7 37.8846 2.66334   1
   4  16   6 -3.0430 4.19848  -2
  -4  16   7 -3.0430 4.19848   1
   3  16   6 57.4425 2.55224  -2
  -3  16   7 57.4425 2.55224   1
   2  16   6 85.4957 7.55951  -2
  -2  16   7 85.4957 7.55951   1
   1  16   7 195.342 7.07120  -2
  -1  16   7 195.342 7.07120   1
   0  16   7 119.423 3.55122  -2
   0  16   7 119.423 3.55122   1
  -1  16   7 191.774 5.75698  -2
   1  16   7 191.774 5.75698   1
  -2  16   8 57.2090 3.76512  -2
   2  16   7 57.2090 3.76512   1
  -3  16   8 2.29939 1.57087  -2
   3  16   7 2.29939 1.57087   1
  -4  16   8 32.6105 2.94127  -2
   4  16   7 32.6105 2.94127   1
  -6  16   9 135.406 7.40411  -2
   6  16   7 135.406 7.40411   1
   4  17   6 45.9772 4.62301  -2
  -4  17   7 45.9772 4.62301   1
   3  17   6 18.0177 2.37474  -2
  -3  17   7 18.0177 2.37474   1
   2  17   6 14.8340 4.88963  -2
  -2  17   7 14.8340 4.88963   1
   1  17   7 56.4652 4.00583  -2
  -1  17   7 56.4652 4.00583   1
   0  17   7 2.16406 1.63235  -2
   0  17   7 2.16406 1.63235   1
  -1  17   7 60.9008 3.42958  -2
   1  17   7 60.9008 3.42958   1
  -2  17   8 26.5737 3.39158  -2
   2  17   7 26.5737 3.39158   1
  -3  17   8 69.3592 3.29600  -2
   3  17   7 69.3592 3.29600   1
  -4  17   8 63.2577 3.44465  -2
   4  17   7 63.2577 3.44465   1
   2  18   6 17.6223 3.62469  -2
  -2  18   7 17.6223 3.62469   1
   1  18   7 68.8617 5.35181  -2
  -1  18   7 68.8617 5.35181   1
   0  18   7 -1.0830 1.50602  -2
   0  18   7 -1.0830 1.50602   1
  -1  18   7 68.4542 5.23062  -2
   1  18   7 68.4542 5.23062   1
   2  18   7 4.43927 1.98164   1
  13   0   4 16.7448 2.86857  -2
 -13   0   8 16.7448 2.86857   1
  10   0   5 68.6038 3.16614  -2
 -10   0   8 68.6038 3.16614   1
   8   0   6 377.868 20.5906  -2
  -8   0   8 377.868 20.5906   1
   7   0   6 71.1971 5.71294  -2
  -7   0   8 71.1971 5.71294   1
   6   0   6 646.782 22.4918  -2
  -6   0   8 646.782 22.4918   1
   5   0   7 536.490 27.5036  -2
  -5   0   8 536.490 27.5036   1
   4   0   7 121.890 4.22137  -2
  -4   0   8 121.890 4.22137   1
   3   0   7 9.65378 2.27048  -2
  -3   0   8 9.65378 2.27048   1
  -2   0   8 6.67398 2.01148   1
   1   0   8 2378.75 108.032  -2
  -1   0   8 2378.75 108.032   1
   0   0   8 2809.18 153.324  -2
   0   0   8 2809.18 153.324   1
  -1   0   8 2321.99 126.890  -2
   1   0   8 2321.99 126.890   1
  -2   0   9 36.7550 4.78548  -2
   2   0   8 36.7550 4.78548   1
  -3   0   9 154.978 5.20828  -2
   3   0   8 154.978 5.20828   1
  -4   0   9 43.3162 2.60286  -2
   4   0   8 43.3162 2.60286   1
   5   0   8 555.267 30.7315   1
  -6   0  10 739.588 21.7152  -2
   6   0   8 739.588 21.7152   1
  -7   0  10 376.297 13.8323  -2
   7   0   8 376.297 13.8323   1
  -8   0  10 141.150 9.37166  -2
   8   0   8 141.150 9.37166   1
  -9   0  11 36.5030 4.25442  -2
   9   0   8 36.5030 4.25442   1
 -10   0  11 -1.1871 4.77388  -2
  10   0   8 -1.1871 4.77388   1
 -11   0  11 2.61978 5.63051  -2
  11   0   8 2.61978 5.63051   1
 -12   0  12 53.8797 6.17575  -2
  12   0   8 53.8797 6.17575   1
 -13   0  12 124.668 8.96496  -2
  13   0   8 124.668 8.96496   1
  13   1   4 14.5226 2.37819  -2
 -13   1   8 14.5226 2.37819   1
  10   1   5 329.357 6.18286  -2
 -10   1   8 329.357 6.18286   1
   8   1   6 30.8172 3.96560  -2
  -8   1   8 30.8172 3.96560   1
   7   1   6 15.7535 2.17165  -2
  -7   1   8 15.7535 2.17165   1
   6   1   6 628.268 15.4791  -2
  -6   1   8 628.268 15.4791   1
   5   1   7 61.1959 4.02872  -2
  -5   1   8 61.1959 4.02872   1
   4   1   7 36.8185 2.06971  -2
  -4   1   8 36.8185 2.06971   1
   3   1   7 1555.73 33.1003  -2
  -3   1   8 1555.73 33.1003   1
   2   1   7 552.853 25.8387  -2
  -2   1   8 552.853 25.8387   1
   1   1   8 224.912 8.17680  -2
  -1   1   8 224.912 8.17680   1
   0   1   8 1.03370 0.93000  -2
   0   1   8 1.03370 0.93000   1
  -1   1   8 216.154 5.42581  -2
   1   1   8 216.154 5.42581   1
  -2   1   9 209.920 8.96734  -2
   2   1   8 209.920 8.96734   1
  -3   1   9 247.521 5.09637  -2
   3   1   8 247.521 5.09637   1
  -4   1   9 34.0011 1.70381  -2
   4   1   8 34.0011 1.70381   1
   5   1   8 168.627 7.64885   1
  -6   1  10 344.738 9.28392  -2
   6   1   8 344.738 9.28392   1
  -7   1  10 4.57997 1.92442  -2
   7   1   8 4.57997 1.92442   1
  -8   1  10 10.8801 3.29983  -2
   8   1   8 10.8801 3.29983   1
  -9   1  11 50.9914 3.86408  -2
   9   1   8 50.9914 3.86408   1
 -10   1  11 121.177 5.63879  -2
  10   1   8 121.177 5.63879   1
 -11   1  11 25.2998 6.14552  -2
  11   1   8 25.2998 6.14552   1
 -12   1  12 -3.8755 4.93046  -2
  12   1   8 -3.8755 4.93046   1
 -13   1  12 48.2302 2.68299  -2
  13   1   8 48.2302 2.68299   1
  13   2   4 21.8258 2.37897  -2
 -13   2   8 21.8258 2.37897   1
  10   2   5 156.792 3.65059  -2
 -10   2   8 156.792 3.65059   1
   8   2   6 184.864 11.7218  -2
  -8   2   8 184.864 11.7218   1
   7   2   6 32.3281 3.12557  -2
  -7   2   8 32.3281 3.12557   1
   6   2   6 594.903 14.7095  -2
  -6   2   8 594.903 14.7095   1
   5   2   7 486.436 17.7743  -2
  -5   2   8 486.436 17.7743   1
   4   2   7 76.6123 2.75974  -2
  -4   2   8 76.6123 2.75974   1
   3   2   7 524.704 11.4509  -2
  -3   2   8 524.704 11.4509   1
   2   2   7 510.096 25.8446  -2
  -2   2   8 510.096 25.8446   1
   1   2   8 173.379 4.68228  -2
  -1   2   8 173.379 4.68228   1
   0   2   8 36.6644 1.24473  -2
   0   2   8 36.6644 1.24473   1
  -1   2   8 164.637 4.10802  -2
   1   2   8 164.637 4.10802   1
  -2   2   9 659.087 17.1633  -2
   2   2   8 659.087 17.1633   1
  -3   2   9 28.0310 1.36430  -2
   3   2   8 28.0310 1.36430   1
  -4   2   9 219.770 5.22143  -2
   4   2   8 219.770 5.22143   1
  -5   2  10 56.6901 6.82642  -2
   5   2   8 56.6901 6.82642   1
  -6   2  10 245.548 6.50777  -2
   6   2   8 245.548 6.50777   1
  -7   2  10 -1.4862 1.80361  -2
   7   2   8 -1.4862 1.80361   1
  -8   2  10 17.5267 3.60203  -2
   8   2   8 17.5267 3.60203   1
  -9   2  11 84.3950 4.60868  -2
   9   2   8 84.3950 4.60868   1
 -10   2  11 44.6528 3.15544  -2
  10   2   8 44.6528 3.15544   1
 -11   2  11 18.5986 5.86462  -2
  11   2   8 18.5986 5.86462   1
 -12   2  12 28.6308 5.39183  -2
  12   2   8 28.6308 5.39183   1
 -13   2  12 75.1651 5.69411  -2
  13   2   8 75.1651 5.69411   1
  13   3   4 49.2031 2.56963  -2
 -13   3   8 49.2031 2.56963   1
  10   3   5 108.257 2.89615  -2
 -10   3   8 108.257 2.89615   1
   9   3   5 297.472 16.6781  -2
  -9   3   8 297.472 16.6781   1
   7   3   6 307.584 11.5385  -2
  -7   3   8 307.584 11.5385   1
   6   3   6 360.807 10.9066  -2
  -6   3   8 360.807 10.9066   1
   5   3   7 556.575 28.5310  -2
  -5   3   8 556.575 28.5310   1
   4   3   7 279.138 7.18294  -2
  -4   3   8 279.138 7.18294   1
   3   3   7 639.209 13.8606  -2
  -3   3   8 639.209 13.8606   1
   2   3   7 332.164 16.1897  -2
  -2   3   8 332.164 16.1897   1
   1   3   8 16.5726 1.34140  -2
  -1   3   8 16.5726 1.34140   1
   0   3   8 8.19355 0.79742  -2
   0   3   8 8.19355 0.79742   1
  -1   3   8 15.1043 1.58683  -2
   1   3   8 15.1043 1.58683   1
  -2   3   9 236.697 9.33676  -2
   2   3   8 236.697 9.33676   1
  -3   3   9 383.365 8.26811  -2
   3   3   8 383.365 8.26811   1
  -4   3   9 546.409 12.9775  -2
   4   3   8 546.409 12.9775   1
  -5   3   9 586.997 29.5008  -2
   5   3   8 586.997 29.5008   1
  -6   3  10 228.090 7.04245  -2
   6   3   8 228.090 7.04245   1
  -7   3  10 30.9129 2.30104  -2
   7   3   8 30.9129 2.30104   1
  -8   3  10 15.2626 3.44459  -2
   8   3   8 15.2626 3.44459   1
  -9   3  11 128.884 4.76420  -2
   9   3   8 128.884 4.76420   1
 -10   3  11 3.21130 2.30222  -2
  10   3   8 3.21130 2.30222   1
 -11   3  11 136.050 10.3177  -2
  11   3   8 136.050 10.3177   1
 -12   3  12 18.5659 5.24321  -2
  12   3   8 18.5659 5.24321   1
 -13   3  12 17.5574 3.57222  -2
  13   3   8 17.5574 3.57222   1
  13   4   4 14.7308 1.79686  -2
 -13   4   8 14.7308 1.79686   1
  10   4   5 26.3725 2.59289  -2
 -10   4   8 26.3725 2.59289   1
   7   4   6 72.2349 4.05793  -2
  -7   4   8 72.2349 4.05793   1
   6   4   6 176.443 7.26962  -2
  -6   4   8 176.443 7.26962   1
   4   4   7 11.7944 1.94056  -2
  -4   4   8 11.7944 1.94056   1
   3   4   7 295.198 8.75956  -2
  -3   4   8 295.198 8.75956   1
   2   4   7 324.438 11.5813  -2
  -2   4   8 324.438 11.5813   1
   1   4   8 635.873 12.8544  -2
  -1   4   8 635.873 12.8544   1
   0   4   8 22.7566 0.95177  -2
   0   4   8 22.7566 0.95177   1
  -1   4   8 610.289 15.3046  -2
   1   4   8 610.289 15.3046   1
  -2   4   9 530.628 25.2406  -2
   2   4   8 530.628 25.2406   1
  -3   4   9 196.548 5.09398  -2
   3   4   8 196.548 5.09398   1
  -4   4   9 39.1373 2.09606  -2
   4   4   8 39.1373 2.09606   1
   5   4   8 75.9122 3.64903   1
  -6   4  10 83.6137 3.53235  -2
   6   4   8 83.6137 3.53235   1
  -7   4  10 60.9343 2.95301  -2
   7   4   8 60.9343 2.95301   1
  -8   4  10 12.0123 3.53914  -2
   8   4   8 12.0123 3.53914   1
  -9   4  11 11.0172 3.06145  -2
   9   4   8 11.0172 3.06145   1
 -10   4  11 340.355 9.20857  -2
  10   4   8 340.355 9.20857   1
 -11   4  11 82.4184 8.22626  -2
  11   4   8 82.4184 8.22626   1
 -12   4  12 42.0957 5.74825  -2
  12   4   8 42.0957 5.74825   1
 -13   4  12 0.04115 1.53444  -2
  13   4   8 0.04115 1.53444   1
  13   5   4 32.7432 1.88995  -2
 -13   5   8 32.7432 1.88995   1
  10   5   5 151.912 5.59140  -2
 -10   5   8 151.912 5.59140   1
   7   5   6 156.699 6.76249  -2
  -7   5   8 156.699 6.76249   1
   6   5   6 12.4528 3.02145  -2
  -6   5   8 12.4528 3.02145   1
  -5   5   8 7.93264 2.48050   1
   4   5   7 109.553 4.04007  -2
  -4   5   8 109.553 4.04007   1
   3   5   7 257.258 7.79757  -2
  -3   5   8 257.258 7.79757   1
  -2   5   8 17.0891 1.70712   1
   1   5   8 2342.25 64.8035  -2
  -1   5   8 2342.25 64.8035   1
   0   5   8 1.13115 0.78138  -2
   0   5   8 1.13115 0.78138   1
  -1   5   8 2193.69 53.8020  -2
   1   5   8 2193.69 53.8020   1
  -2   5   9 520.038 24.8035  -2
   2   5   8 520.038 24.8035   1
  -3   5   9 313.488 11.9273  -2
   3   5   8 313.488 11.9273   1
  -4   5   9 114.621 8.80644  -2
   4   5   8 114.621 8.80644   1
   5   5   8 84.7509 7.26498   1
  -6   5  10 95.3266 6.58662  -2
   6   5   8 95.3266 6.58662   1
  -7   5  10 1.03022 3.24240  -2
   7   5   8 1.03022 3.24240   1
   8   5   8 78.4648 7.16438   1
  -9   5  11 74.9361 2.86838  -2
   9   5   8 74.9361 2.86838   1
 -10   5  11 235.747 7.76694  -2
  10   5   8 235.747 7.76694   1
 -11   5  11 44.0092 7.08284  -2
  11   5   8 44.0092 7.08284   1
 -12   5  12 3.91564 4.97010  -2
  12   5   8 3.91564 4.97010   1
 -13   5  12 19.7946 2.53790  -2
  13   5   8 19.7946 2.53790   1
  13   6   4 8.44453 1.79735  -2
 -13   6   8 8.44453 1.79735   1
  10   6   5 59.8265 2.49456  -2
 -10   6   8 59.8265 2.49456   1
   8   6   6 28.2886 5.53320  -2
  -8   6   8 28.2886 5.53320   1
   7   6   6 70.2489 5.61688  -2
  -7   6   8 70.2489 5.61688   1
   6   6   6 496.547 25.7768  -2
  -6   6   8 496.547 25.7768   1
   4   6   7 112.128 4.18423  -2
  -4   6   8 112.128 4.18423   1
   3   6   7 258.922 7.90189  -2
  -3   6   8 258.922 7.90189   1
   2   6   7 106.807 7.07595  -2
  -2   6   8 106.807 7.07595   1
   1   6   8 1382.07 38.4999  -2
  -1   6   8 1382.07 38.4999   1
   0   6   8 60.8366 2.51000  -2
   0   6   8 60.8366 2.51000   1
  -1   6   8 1304.55 38.2748  -2
   1   6   8 1304.55 38.2748   1
  -2   6   9 174.956 6.22281  -2
   2   6   8 174.956 6.22281   1
  -3   6   9 159.717 5.73118  -2
   3   6   8 159.717 5.73118   1
  -4   6   9 121.872 9.36832  -2
   4   6   8 121.872 9.36832   1
   5   6   8 72.7783 6.60657   1
  -6   6  10 71.9776 7.33100  -2
   6   6   8 71.9776 7.33100   1
  -7   6  10 187.339 9.15308  -2
   7   6   8 187.339 9.15308   1
   8   6   8 1.55045 3.73879   1
  -9   6  11 3.84495 3.43892  -2
   9   6   8 3.84495 3.43892   1
 -10   6  11 45.2511 2.67274  -2
  10   6   8 45.2511 2.67274   1
 -11   6  11 14.2061 6.04029  -2
  11   6   8 14.2061 6.04029   1
 -12   6  12 24.4466 5.00434  -2
  12   6   8 24.4466 5.00434   1
 -13   6  12 34.5106 4.00719  -2
  13   6   8 34.5106 4.00719   1
  13   7   4 9.69858 1.65218  -2
 -13   7   8 9.69858 1.65218   1
  10   7   5 304.351 6.64732  -2
 -10   7   8 304.351 6.64732   1
   7   7   6 22.0099 3.95577  -2
  -7   7   8 22.0099 3.95577   1
   6   7   6 18.6864 4.41563  -2
  -6   7   8 18.6864 4.41563   1
   4   7   7 702.037 20.1323  -2
  -4   7   8 702.037 20.1323   1
   3   7   7 262.633 6.94585  -2
  -3   7   8 262.633 6.94585   1
   2   7   7 171.016 6.92133  -2
  -2   7   8 171.016 6.92133   1
   1   7   8 724.764 21.2131  -2
  -1   7   8 724.764 21.2131   1
   0   7   8 5.46152 1.25939  -2
   0   7   8 5.46152 1.25939   1
  -1   7   8 711.271 18.4046  -2
   1   7   8 711.271 18.4046   1
  -2   7   9 123.826 5.10752  -2
   2   7   8 123.826 5.10752   1
  -3   7   9 1106.69 32.1428  -2
   3   7   8 1106.69 32.1428   1
  -4   7   9 463.945 14.2972  -2
   4   7   8 463.945 14.2972   1
  -6   7  10 109.770 10.1097  -2
   6   7   8 109.770 10.1097   1
  -7   7  10 52.9674 5.18376  -2
   7   7   8 52.9674 5.18376   1
  -8   7  10 56.6767 7.90668  -2
   8   7   8 56.6767 7.90668   1
  -9   7  11 51.8687 5.01381  -2
   9   7   8 51.8687 5.01381   1
 -10   7  11 32.1737 2.50637  -2
  10   7   8 32.1737 2.50637   1
 -11   7  11 122.351 9.40905  -2
  11   7   8 122.351 9.40905   1
 -12   7  12 18.8359 4.80958  -2
  12   7   8 18.8359 4.80958   1
  13   8   4 18.1632 2.01431  -2
 -13   8   8 18.1632 2.01431   1
  10   8   5 50.7551 2.43578  -2
 -10   8   8 50.7551 2.43578   1
   8   8   6 54.2499 6.69816  -2
  -8   8   8 54.2499 6.69816   1
   7   8   6 76.2402 6.14398  -2
  -7   8   8 76.2402 6.14398   1
   6   8   6 187.680 11.2887  -2
  -6   8   8 187.680 11.2887   1
   4   8   7 40.8619 3.28294  -2
  -4   8   8 40.8619 3.28294   1
   3   8   7 85.8085 4.37341  -2
  -3   8   8 85.8085 4.37341   1
   2   8   7 347.801 10.5942  -2
  -2   8   8 347.801 10.5942   1
   1   8   8 17.5364 2.01565  -2
  -1   8   8 17.5364 2.01565   1
   0   8   8 388.364 11.7158  -2
   0   8   8 388.364 11.7158   1
  -1   8   8 16.8118 1.96288  -2
   1   8   8 16.8118 1.96288   1
  -2   8   9 246.722 14.5724  -2
   2   8   8 246.722 14.5724   1
  -3   8   9 66.1998 3.88135  -2
   3   8   8 66.1998 3.88135   1
  -4   8   9 148.258 10.1086  -2
   4   8   8 148.258 10.1086   1
  -6   8  10 56.6801 5.00839  -2
   6   8   8 56.6801 5.00839   1
  -7   8  10 89.7380 6.19079  -2
   7   8   8 89.7380 6.19079   1
  -9   8  11 46.4709 4.12750  -2
   9   8   8 46.4709 4.12750   1
 -10   8  11 13.3142 1.82617  -2
  10   8   8 13.3142 1.82617   1
 -11   8  11 20.3255 5.72557  -2
  11   8   8 20.3255 5.72557   1
  10   9   5 64.4462 3.31961  -2
 -10   9   8 64.4462 3.31961   1
   7   9   6 71.5873 2.94430  -2
  -7   9   8 71.5873 2.94430   1
   6   9   6 5.64559 3.21063  -2
  -6   9   8 5.64559 3.21063   1
   4   9   7 69.1806 4.15906  -2
  -4   9   8 69.1806 4.15906   1
   3   9   7 57.0555 3.61562  -2
  -3   9   8 57.0555 3.61562   1
   2   9   7 109.912 5.35067  -2
  -2   9   8 109.912 5.35067   1
   1   9   8 271.652 8.56610  -2
  -1   9   8 271.652 8.56610   1
   0   9   8 2.39471 1.30704  -2
   0   9   8 2.39471 1.30704   1
  -1   9   8 254.592 8.16472  -2
   1   9   8 254.592 8.16472   1
  -2   9   9 73.3525 7.05650  -2
   2   9   8 73.3525 7.05650   1
  -3   9   9 49.0996 5.73480  -2
   3   9   8 49.0996 5.73480   1
  -4   9   9 189.222 7.10039  -2
   4   9   8 189.222 7.10039   1
   5   9   8 19.7094 3.93857   1
  -6   9  10 53.0476 4.22544  -2
   6   9   8 53.0476 4.22544   1
  -7   9  10 210.173 6.53557  -2
   7   9   8 210.173 6.53557   1
 -10   9  11 102.293 3.17158  -2
  10   9   8 102.293 3.17158   1
  10  10   5 24.5551 2.83176  -2
 -10  10   8 24.5551 2.83176   1
   7  10   6 10.8593 2.26976  -2
  -7  10   8 10.8593 2.26976   1
   6  10   6 178.011 6.30065  -2
  -6  10   8 178.011 6.30065   1
   4  10   7 71.7064 3.74641  -2
  -4  10   8 71.7064 3.74641   1
   3  10   7 29.6970 2.74665  -2
  -3  10   8 29.6970 2.74665   1
   2  10   7 22.8065 4.59001  -2
  -2  10   8 22.8065 4.59001   1
   1  10   8 13.6296 2.01403  -2
  -1  10   8 13.6296 2.01403   1
   0  10   8 44.2366 2.31367  -2
   0  10   8 44.2366 2.31367   1
  -1  10   8 15.6080 2.14720  -2
   1  10   8 15.6080 2.14720   1
  -2  10   9 47.7337 2.81216  -2
   2  10   8 47.7337 2.81216   1
  -3  10   9 42.8276 3.21994  -2
   3  10   8 42.8276 3.21994   1
  -4  10   9 31.9622 3.13821  -2
   4  10   8 31.9622 3.13821   1
  -5  10  10 93.5380 8.83520  -2
   5  10   8 93.5380 8.83520   1
  -6  10  10 52.7878 2.47184  -2
   6  10   8 52.7878 2.47184   1
  -7  10  10 38.3367 2.39536  -2
   7  10   8 38.3367 2.39536   1
 -10  10  11 40.0286 2.21518  -2
  10  10   8 40.0286 2.21518   1
  10  11   5 67.0173 2.98858  -2
 -10  11   8 67.0173 2.98858   1
   7  11   6 63.6082 3.53659  -2
  -7  11   8 63.6082 3.53659   1
   6  11   6 14.9284 3.05139  -2
  -6  11   8 14.9284 3.05139   1
   5  11   7 214.790 13.0451  -2
  -5  11   8 214.790 13.0451   1
   4  11   7 381.188 14.6441  -2
  -4  11   8 381.188 14.6441   1
   3  11   7 75.4741 3.57246  -2
  -3  11   8 75.4741 3.57246   1
   2  11   7 29.4885 3.87563  -2
  -2  11   8 29.4885 3.87563   1
   1  11   8 110.166 5.56692  -2
  -1  11   8 110.166 5.56692   1
   0  11   8 11.2949 1.27372  -2
   0  11   8 11.2949 1.27372   1
  -1  11   8 102.390 3.38449  -2
   1  11   8 102.390 3.38449   1
  -2  11   9 49.6218 2.87576  -2
   2  11   8 49.6218 2.87576   1
  -3  11   9 256.304 7.59475  -2
   3  11   8 256.304 7.59475   1
  -4  11   9 200.558 5.21052  -2
   4  11   8 200.558 5.21052   1
  -5  11  10 98.2100 9.34307  -2
   5  11   8 98.2100 9.34307   1
  -6  11  10 63.8674 2.95969  -2
   6  11   8 63.8674 2.95969   1
  -7  11  10 -0.9664 2.01467  -2
   7  11   8 -0.9664 2.01467   1
 -10  11  11 11.1308 1.62508  -2
  10  11   8 11.1308 1.62508   1
  10  12   5 18.4910 1.79155  -2
 -10  12   8 18.4910 1.79155   1
   7  12   6 84.3501 6.34981  -2
  -7  12   8 84.3501 6.34981   1
   6  12   6 113.761 4.79510  -2
  -6  12   8 113.761 4.79510   1
   4  12   7 173.885 6.35630  -2
  -4  12   8 173.885 6.35630   1
   3  12   7 8.26772 1.72092  -2
  -3  12   8 8.26772 1.72092   1
   2  12   7 9.28531 3.81386  -2
  -2  12   8 9.28531 3.81386   1
   1  12   8 22.9325 2.61246  -2
  -1  12   8 22.9325 2.61246   1
   0  12   8 13.6958 1.55481  -2
   0  12   8 13.6958 1.55481   1
  -1  12   8 26.0552 1.83966  -2
   1  12   8 26.0552 1.83966   1
  -2  12   9 132.909 3.37768  -2
   2  12   8 132.909 3.37768   1
  -3  12   9 120.956 3.07153  -2
   3  12   8 120.956 3.07153   1
  -4  12   9 230.870 5.22833  -2
   4  12   8 230.870 5.22833   1
  -5  12  10 153.255 11.1752  -2
   5  12   8 153.255 11.1752   1
  -6  12  10 26.9641 2.47976  -2
   6  12   8 26.9641 2.47976   1
  -7  12  10 34.5112 2.31783  -2
   7  12   8 34.5112 2.31783   1
 -10  12  11 20.7243 2.06731  -2
  10  12   8 20.7243 2.06731   1
  10  13   5 46.9792 2.10970  -2
 -10  13   8 46.9792 2.10970   1
   7  13   6 69.9064 3.79731  -2
  -7  13   8 69.9064 3.79731   1
   6  13   6 174.778 11.1191  -2
  -6  13   8 174.778 11.1191   1
   4  13   7 97.0965 6.17633  -2
  -4  13   8 97.0965 6.17633   1
   3  13   7 129.391 6.36779  -2
  -3  13   8 129.391 6.36779   1
   2  13   7 75.8861 8.15000  -2
  -2  13   8 75.8861 8.15000   1
   1  13   8 14.8523 2.50733  -2
  -1  13   8 14.8523 2.50733   1
   0  13   8 130.045 3.10266  -2
   0  13   8 130.045 3.10266   1
  -1  13   8 19.2468 2.30272  -2
   1  13   8 19.2468 2.30272   1
  -2  13   9 184.875 5.88259  -2
   2  13   8 184.875 5.88259   1
  -3  13   9 80.0678 2.62436  -2
   3  13   8 80.0678 2.62436   1
  -4  13   9 16.0658 1.99604  -2
   4  13   8 16.0658 1.99604   1
  -5  13  10 210.678 13.7349  -2
   5  13   8 210.678 13.7349   1
  -5  13   9 71.4938 7.08377  -2
   5  13   8 71.4938 7.08377   1
  -6  13  10 106.804 4.13900  -2
   6  13   8 106.804 4.13900   1
  -7  13  10 7.25405 2.08915  -2
   7  13   8 7.25405 2.08915   1
  -9  13  11 52.5860 4.37757  -2
   9  13   8 52.5860 4.37757   1
   7  14   6 31.7000 4.07860  -2
  -7  14   8 31.7000 4.07860   1
   6  14   6 32.9773 4.82135  -2
  -6  14   8 32.9773 4.82135   1
   4  14   7 10.2914 4.11954  -2
  -4  14   8 10.2914 4.11954   1
   3  14   7 17.0073 2.90511  -2
  -3  14   8 17.0073 2.90511   1
   2  14   7 71.7599 8.00373  -2
  -2  14   8 71.7599 8.00373   1
   1  14   8 95.1280 4.14833  -2
  -1  14   8 95.1280 4.14833   1
   0  14   8 50.3342 2.22981  -2
   0  14   8 50.3342 2.22981   1
  -1  14   8 94.8272 3.15540  -2
   1  14   8 94.8272 3.15540   1
  -2  14   9 104.628 3.91481  -2
   2  14   8 104.628 3.91481   1
  -3  14   9 0.75146 1.86526  -2
   3  14   8 0.75146 1.86526   1
  -4  14   9 42.5896 2.87738  -2
   4  14   8 42.5896 2.87738   1
  -5  14  10 84.1397 8.17492  -2
   5  14   8 84.1397 8.17492   1
  -6  14  10 29.9460 2.23785  -2
   6  14   8 29.9460 2.23785   1
  -7  14  10 69.8450 2.79875  -2
   7  14   8 69.8450 2.79875   1
   7  15   6 1.03465 2.33754  -2
  -7  15   8 1.03465 2.33754   1
   6  15   6 16.6765 4.15062  -2
  -6  15   8 16.6765 4.15062   1
   5  15   7 63.8050 7.85596  -2
  -5  15   8 63.8050 7.85596   1
   4  15   7 54.8322 4.15263  -2
  -4  15   8 54.8322 4.15263   1
   3  15   7 71.9542 3.82383  -2
  -3  15   8 71.9542 3.82383   1
   2  15   7 18.4978 6.15088  -2
  -2  15   8 18.4978 6.15088   1
   1  15   8 4.12552 2.45952  -2
  -1  15   8 4.12552 2.45952   1
   0  15   8 9.16502 1.68409  -2
   0  15   8 9.16502 1.68409   1
  -1  15   8 6.50417 2.42392  -2
   1  15   8 6.50417 2.42392   1
  -2  15   9 23.0675 2.60901  -2
   2  15   8 23.0675 2.60901   1
  -3  15   9 9.12812 1.70972  -2
   3  15   8 9.12812 1.70972   1
  -4  15   9 59.5782 3.22881  -2
   4  15   8 59.5782 3.22881   1
  -5  15  10 45.4648 6.48251  -2
   5  15   8 45.4648 6.48251   1
  -6  15  10 29.6908 2.72892  -2
   6  15   8 29.6908 2.72892   1
  -7  15  10 10.0809 2.07049  -2
   7  15   8 10.0809 2.07049   1
   6  16   6 10.8357 2.04626  -2
  -6  16   8 10.8357 2.04626   1
   5  16   7 32.0829 4.79643  -2
   5  16   6 32.0829 4.79643  -2
  -5  16   8 32.0829 4.79643   1
   4  16   7 34.5804 4.99357  -2
  -4  16   8 34.5804 4.99357   1
   3  16   7 2.11347 1.75792  -2
  -3  16   8 2.11347 1.75792   1
   2  16   7 66.7960 6.95437  -2
  -2  16   8 66.7960 6.95437   1
   1  16   8 16.2074 2.51094  -2
  -1  16   8 16.2074 2.51094   1
   0  16   8 13.5419 1.60272  -2
   0  16   8 13.5419 1.60272   1
  -1  16   8 10.6402 2.48997  -2
   1  16   8 10.6402 2.48997   1
  -2  16   9 69.7588 4.03200  -2
   2  16   8 69.7588 4.03200   1
  -3  16   9 59.8706 2.62150  -2
   3  16   8 59.8706 2.62150   1
  -4  16   9 20.1604 2.66903  -2
   4  16   8 20.1604 2.66903   1
  -5  16  10 -1.9899 4.66448  -2
   5  16   8 -1.9899 4.66448   1
  -6  16  10 25.6789 3.41461  -2
   6  16   8 25.6789 3.41461   1
   4  17   7 58.6242 5.01172  -2
  -4  17   8 58.6242 5.01172   1
   3  17   7 66.6638 3.03772  -2
  -3  17   8 66.6638 3.03772   1
   2  17   7 25.1424 4.77804  -2
  -2  17   8 25.1424 4.77804   1
   1  17   8 73.2536 6.17352  -2
  -1  17   8 73.2536 6.17352   1
   0  17   8 19.4115 2.04631  -2
   0  17   8 19.4115 2.04631   1
  -1  17   8 73.7036 4.44414  -2
   1  17   8 73.7036 4.44414   1
  -2  17   9 33.1101 3.54813  -2
   2  17   8 33.1101 3.54813   1
  -3  17   9 23.5706 2.14713  -2
   3  17   8 23.5706 2.14713   1
  -4  17   9 2.94243 2.82184  -2
   4  17   8 2.94243 2.82184   1
   1  18   8 110.548 6.86478  -2
  -1  18   8 110.548 6.86478   1
   0  18   8 5.12297 1.85454  -2
   0  18   8 5.12297 1.85454   1
  13   0   5 -3.5975 2.51848  -2
 -13   0   9 -3.5975 2.51848   1
  10   0   6 23.5965 2.34185  -2
 -10   0   9 23.5965 2.34185   1
   8   0   7 20.8660 5.70465  -2
  -8   0   9 20.8660 5.70465   1
   7   0   7 27.2848 2.61711  -2
  -7   0   9 27.2848 2.61711   1
   6   0   7 108.909 5.23560  -2
  -6   0   9 108.909 5.23560   1
   5   0   8 600.134 30.7930  -2
  -5   0   9 600.134 30.7930   1
   4   0   8 50.5315 3.34696  -2
  -4   0   9 50.5315 3.34696   1
   3   0   8 173.220 6.62356  -2
  -3   0   9 173.220 6.62356   1
  -2   0   9 2.51142 1.83082   1
   1   0   9 4.29820 2.93836  -2
  -1   0   9 4.29820 2.93836   1
   0   0   9 15.1336 1.84076  -2
   0   0   9 15.1336 1.84076   1
  -1   0   9 7.92738 3.19667  -2
   1   0   9 7.92738 3.19667   1
  -2   0  10 102.856 7.97586  -2
   2   0   9 102.856 7.97586   1
  -3   0  10 73.8299 3.21709  -2
   3   0   9 73.8299 3.21709   1
  -4   0  10 44.1883 2.68412  -2
   4   0   9 44.1883 2.68412   1
  -6   0  11 0.54508 2.37314  -2
   6   0   9 0.54508 2.37314   1
  -7   0  11 7.76805 2.45525  -2
   7   0   9 7.76805 2.45525   1
  -8   0  11 2.28631 4.73742  -2
   8   0   9 2.28631 4.73742   1
  -9   0  12 5.24642 3.96771  -2
   9   0   9 5.24642 3.96771   1
 -10   0  12 7.23763 4.85184  -2
  10   0   9 7.23763 4.85184   1
 -11   0  12 11.9553 5.54728  -2
  11   0   9 11.9553 5.54728   1
 -12   0  13 2.91467 4.85495  -2
  12   0   9 2.91467 4.85495   1
 -13   0  13 -2.5652 3.58794  -2
  13   0   9 -2.5652 3.58794   1
  13   1   5 7.84995 1.83714  -2
 -13   1   9 7.84995 1.83714   1
  10   1   6 38.9976 1.89135  -2
 -10   1   9 38.9976 1.89135   1
   8   1   7 80.0481 5.26562  -2
  -8   1   9 80.0481 5.26562   1
   7   1   7 202.580 5.75955  -2
  -7   1   9 202.580 5.75955   1
   6   1   7 365.828 9.44534  -2
  -6   1   9 365.828 9.44534   1
   5   1   7 179.733 10.1957  -2
  -5   1   9 179.733 10.1957   1
   5   1   8 265.395 14.6967  -2
  -5   1   9 265.395 14.6967   1
   4   1   8 35.7383 2.11807  -2
  -4   1   9 35.7383 2.11807   1
   3   1   8 269.780 6.88996  -2
  -3   1   9 269.780 6.88996   1
   2   1   8 209.849 7.99911  -2
  -2   1   9 209.849 7.99911   1
   1   1   9 305.896 8.97921  -2
  -1   1   9 305.896 8.97921   1
   0   1   9 46.3291 1.57510  -2
   0   1   9 46.3291 1.57510   1
  -1   1   9 286.539 6.07538  -2
   1   1   9 286.539 6.07538   1
  -2   1  10 5.59959 1.68489  -2
   2   1   9 5.59959 1.68489   1
  -3   1  10 301.026 6.12244  -2
   3   1   9 301.026 6.12244   1
  -4   1  10 334.716 7.80529  -2
   4   1   9 334.716 7.80529   1
   5   1   9 398.050 16.0687   1
  -6   1  11 71.8638 2.61983  -2
   6   1   9 71.8638 2.61983   1
  -7   1  11 143.541 4.13160  -2
   7   1   9 143.541 4.13160   1
  -8   1  11 6.03010 3.39055  -2
   8   1   9 6.03010 3.39055   1
  -9   1  12 58.1471 4.08374  -2
   9   1   9 58.1471 4.08374   1
 -10   1  12 177.262 7.26790  -2
  10   1   9 177.262 7.26790   1
 -11   1  12 110.518 8.85834  -2
  11   1   9 110.518 8.85834   1
 -12   1  13 1.82598 4.98067  -2
  12   1   9 1.82598 4.98067   1
 -13   1  13 12.9563 1.61264  -2
  13   1   9 12.9563 1.61264   1
  13   2   5 83.2019 3.64494  -2
 -13   2   9 83.2019 3.64494   1
  10   2   6 282.594 5.34118  -2
 -10   2   9 282.594 5.34118   1
   9   2   6 19.1548 5.67574  -2
  -9   2   9 19.1548 5.67574   1
   8   2   7 148.689 10.3535  -2
  -8   2   9 148.689 10.3535   1
   7   2   7 128.471 4.77642  -2
  -7   2   9 128.471 4.77642   1
   6   2   7 101.992 4.17109  -2
  -6   2   9 101.992 4.17109   1
   5   2   8 191.358 7.98758  -2
  -5   2   9 191.358 7.98758   1
   4   2   8 234.758 6.22880  -2
  -4   2   9 234.758 6.22880   1
   3   2   8 28.2052 1.56147  -2
  -3   2   9 28.2052 1.56147   1
   2   2   8 705.514 19.9274  -2
  -2   2   9 705.514 19.9274   1
   1   2   9 529.612 12.8896  -2
  -1   2   9 529.612 12.8896   1
   0   2   9 161.782 3.60787  -2
   0   2   9 161.782 3.60787   1
  -1   2   9 485.472 10.8224  -2
   1   2   9 485.472 10.8224   1
  -2   2  10 115.372 2.96975  -2
   2   2   9 115.372 2.96975   1
  -3   2  10 432.192 9.27766  -2
   3   2   9 432.192 9.27766   1
  -4   2  10 486.543 10.4603  -2
   4   2   9 486.543 10.4603   1
   5   2   9 38.4636 4.44098   1
  -6   2  11 176.709 4.55100  -2
   6   2   9 176.709 4.55100   1
  -7   2  11 40.3887 2.24935  -2
   7   2   9 40.3887 2.24935   1
  -8   2  11 81.5553 5.04175  -2
   8   2   9 81.5553 5.04175   1
  -9   2  12 63.2905 3.48067  -2
   9   2   9 63.2905 3.48067   1
 -10   2  12 20.0519 2.51707  -2
  10   2   9 20.0519 2.51707   1
 -11   2  12 28.8976 6.16516  -2
  11   2   9 28.8976 6.16516   1
 -12   2  13 42.2006 5.67338  -2
  12   2   9 42.2006 5.67338   1
 -13   2  13 21.8236 3.55357  -2
  13   2   9 21.8236 3.55357   1
  14   3   5 39.4407 3.39049  -2
 -14   3   9 39.4407 3.39049   1
  13   3   5 1.24164 1.65796  -2
 -13   3   9 1.24164 1.65796   1
  10   3   6 31.7792 1.90970  -2
 -10   3   9 31.7792 1.90970   1
   9   3   6 132.731 9.61240  -2
  -9   3   9 132.731 9.61240   1
   8   3   7 104.929 8.47133  -2
  -8   3   9 104.929 8.47133   1
   7   3   7 21.5969 2.75520  -2
  -7   3   9 21.5969 2.75520   1
   6   3   7 93.6100 4.81784  -2
  -6   3   9 93.6100 4.81784   1
   5   3   8 589.270 30.1638  -2
  -5   3   9 589.270 30.1638   1
   4   3   8 597.219 16.6335  -2
  -4   3   9 597.219 16.6335   1
   3   3   8 420.093 10.3842  -2
  -3   3   9 420.093 10.3842   1
   2   3   8 270.345 13.6194  -2
  -2   3   9 270.345 13.6194   1
   1   3   9 80.6362 2.29315  -2
  -1   3   9 80.6362 2.29315   1
   0   3   9 7.67258 0.86907  -2
   0   3   9 7.67258 0.86907   1
  -1   3   9 79.8548 2.49902  -2
   1   3   9 79.8548 2.49902   1
  -2   3  10 50.9985 2.74338  -2
   2   3   9 50.9985 2.74338   1
  -3   3  10 138.189 3.43671  -2
   3   3   9 138.189 3.43671   1
  -4   3  10 663.566 14.0522  -2
   4   3   9 663.566 14.0522   1
  -5   3  10 122.937 7.57295  -2
   5   3   9 122.937 7.57295   1
  -6   3  11 183.606 5.96865  -2
   6   3   9 183.606 5.96865   1
  -7   3  11 7.89711 1.69089  -2
   7   3   9 7.89711 1.69089   1
  -8   3  11 56.2625 4.48886  -2
   8   3   9 56.2625 4.48886   1
  -9   3  12 191.937 6.07003  -2
   9   3   9 191.937 6.07003   1
 -10   3  12 0.93693 2.26802  -2
  10   3   9 0.93693 2.26802   1
 -11   3  12 2.34799 5.69149  -2
  11   3   9 2.34799 5.69149   1
 -12   3  13 33.2015 5.48360  -2
  12   3   9 33.2015 5.48360   1
 -13   3  13 10.1720 2.89261  -2
  13   3   9 10.1720 2.89261   1
  13   4   5 42.0883 2.71198  -2
 -13   4   9 42.0883 2.71198   1
  10   4   6 148.815 4.24609  -2
 -10   4   9 148.815 4.24609   1
   9   4   6 126.102 8.99333  -2
  -9   4   9 126.102 8.99333   1
   7   4   7 134.145 8.65696  -2
  -7   4   9 134.145 8.65696   1
   6   4   7 248.064 9.72306  -2
  -6   4   9 248.064 9.72306   1
   4   4   8 40.5065 2.53883  -2
  -4   4   9 40.5065 2.53883   1
   3   4   8 209.067 6.50971  -2
  -3   4   9 209.067 6.50971   1
   2   4   8 598.743 20.6802  -2
  -2   4   9 598.743 20.6802   1
   1   4   9 2036.75 44.0039  -2
  -1   4   9 2036.75 44.0039   1
   0   4   9 2169.36 42.9968  -2
   0   4   9 2169.36 42.9968   1
  -1   4   9 1988.07 42.9789  -2
   1   4   9 1988.07 42.9789   1
  -2   4  10 1215.82 56.0825  -2
   2   4   9 1215.82 56.0825   1
  -3   4  10 81.8229 2.67985  -2
   3   4   9 81.8229 2.67985   1
  -4   4  10 215.519 5.65380  -2
   4   4   9 215.519 5.65380   1
   5   4   9 -0.6577 1.21218   1
  -6   4  11 291.182 8.74829  -2
   6   4   9 291.182 8.74829   1
  -7   4  11 33.4928 2.19414  -2
   7   4   9 33.4928 2.19414   1
  -8   4  11 138.009 6.85690  -2
   8   4   9 138.009 6.85690   1
  -9   4  12 79.6416 3.58084  -2
   9   4   9 79.6416 3.58084   1
 -10   4  12 177.356 5.51381  -2
  10   4   9 177.356 5.51381   1
 -11   4  12 85.6829 8.18941  -2
  11   4   9 85.6829 8.18941   1
 -12   4  13 92.9156 7.62224  -2
  12   4   9 92.9156 7.62224   1
 -13   4  13 7.09572 2.34646  -2
  13   4   9 7.09572 2.34646   1
  13   5   5 68.5044 2.32393  -2
 -13   5   9 68.5044 2.32393   1
  10   5   6 37.4314 2.27056  -2
 -10   5   9 37.4314 2.27056   1
   9   5   6 563.912 29.9128  -2
  -9   5   9 563.912 29.9128   1
   8   5   7 46.2626 6.23227  -2
  -8   5   9 46.2626 6.23227   1
   7   5   7 10.7822 3.48630  -2
  -7   5   9 10.7822 3.48630   1
   6   5   7 98.9632 5.08429  -2
  -6   5   9 98.9632 5.08429   1
   5   5   8 200.123 11.7368  -2
  -5   5   9 200.123 11.7368   1
   4   5   8 124.703 4.47089  -2
  -4   5   9 124.703 4.47089   1
   3   5   8 338.416 10.0484  -2
  -3   5   9 338.416 10.0484   1
   2   5   8 551.044 28.0511  -2
  -2   5   9 551.044 28.0511   1
   1   5   9 140.674 4.72903  -2
  -1   5   9 140.674 4.72903   1
   0   5   9 47.9080 1.65169  -2
   0   5   9 47.9080 1.65169   1
  -1   5   9 134.048 3.53235  -2
   1   5   9 134.048 3.53235   1
  -2   5  10 369.967 18.2661  -2
   2   5   9 369.967 18.2661   1
  -3   5  10 133.617 4.63228  -2
   3   5   9 133.617 4.63228   1
  -4   5  10 230.501 9.46616  -2
   4   5   9 230.501 9.46616   1
   5   5   9 52.2203 5.72078   1
  -6   5  11 73.5402 4.44500  -2
   6   5   9 73.5402 4.44500   1
  -7   5  11 58.1228 4.09609  -2
   7   5   9 58.1228 4.09609   1
   8   5   9 70.2477 6.80273   1
  -9   5  12 68.8246 3.05859  -2
   9   5   9 68.8246 3.05859   1
 -10   5  12 45.2301 3.39561  -2
  10   5   9 45.2301 3.39561   1
 -11   5  12 15.4939 6.26066  -2
  11   5   9 15.4939 6.26066   1
 -12   5  13 35.8285 5.58230  -2
  12   5   9 35.8285 5.58230   1
 -13   5  13 6.79456 1.99551  -2
  13   5   9 6.79456 1.99551   1
  13   6   5 0.98512 1.46286  -2
 -13   6   9 0.98512 1.46286   1
  10   6   6 31.7005 2.09888  -2
 -10   6   9 31.7005 2.09888   1
   7   6   7 14.8543 3.66720  -2
  -7   6   9 14.8543 3.66720   1
   6   6   7 155.368 9.69421  -2
  -6   6   9 155.368 9.69421   1
   4   6   8 119.044 4.42125  -2
  -4   6   9 119.044 4.42125   1
   3   6   8 177.505 5.79166  -2
  -3   6   9 177.505 5.79166   1
   2   6   8 187.756 10.2981  -2
  -2   6   9 187.756 10.2981   1
   1   6   9 482.479 13.9402  -2
  -1   6   9 482.479 13.9402   1
   0   6   9 52.8044 2.34357  -2
   0   6   9 52.8044 2.34357   1
  -1   6   9 464.956 14.1512  -2
   1   6   9 464.956 14.1512   1
  -2   6  10 334.957 12.5209  -2
   2   6   9 334.957 12.5209   1
  -3   6  10 132.723 5.08776  -2
   3   6   9 132.723 5.08776   1
  -4   6  10 12.9991 3.27427  -2
   4   6   9 12.9991 3.27427   1
   5   6   9 97.3052 7.85896   1
  -6   6  11 70.4366 4.22546  -2
   6   6   9 70.4366 4.22546   1
  -7   6  11 117.711 5.34006  -2
   7   6   9 117.711 5.34006   1
   8   6   9 19.4009 4.64429   1
  -9   6  12 9.28245 3.54824  -2
   9   6   9 9.28245 3.54824   1
 -10   6  12 59.9736 2.87810  -2
  10   6   9 59.9736 2.87810   1
 -11   6  12 30.4415 6.38052  -2
  11   6   9 30.4415 6.38052   1
 -12   6  13 -4.2587 4.57257  -2
  12   6   9 -4.2587 4.57257   1
 -13   6  13 11.4019 3.30854  -2
  13   6   9 11.4019 3.30854   1
  13   7   5 2.19718 1.51968  -2
 -13   7   9 2.19718 1.51968   1
  10   7   6 40.5285 2.41467  -2
 -10   7   9 40.5285 2.41467   1
   7   7   7 69.4185 4.83186  -2
  -7   7   9 69.4185 4.83186   1
   6   7   7 37.3378 5.36060  -2
  -6   7   9 37.3378 5.36060   1
  -5   7   9 114.709 7.44882   1
   4   7   8 498.648 14.6461  -2
  -4   7   9 498.648 14.6461   1
   3   7   8 1174.30 28.7910  -2
  -3   7   9 1174.30 28.7910   1
   2   7   8 109.008 7.09913  -2
  -2   7   9 109.008 7.09913   1
   1   7   9 174.299 5.85356  -2
  -1   7   9 174.299 5.85356   1
   0   7   9 11.8079 1.26718  -2
   0   7   9 11.8079 1.26718   1
  -1   7   9 171.059 5.14992  -2
   1   7   9 171.059 5.14992   1
  -2   7  10 385.423 12.3526  -2
   2   7   9 385.423 12.3526   1
  -3   7  10 294.111 12.2466  -2
   3   7   9 294.111 12.2466   1
  -4   7  10 77.9343 4.05290  -2
   4   7   9 77.9343 4.05290   1
   5   7   9 28.3877 4.97994   1
  -6   7  11 24.1562 4.24259  -2
   6   7   9 24.1562 4.24259   1
  -7   7  11 8.89085 4.30115  -2
   7   7   9 8.89085 4.30115   1
  -8   7  11 53.6974 5.47273  -2
   8   7   9 53.6974 5.47273   1
  -9   7  12 11.9091 3.63243  -2
   9   7   9 11.9091 3.63243   1
 -10   7  12 83.6157 3.31652  -2
  10   7   9 83.6157 3.31652   1
 -11   7  12 100.320 8.47968  -2
  11   7   9 100.320 8.47968   1
 -12   7  13 19.4857 4.56779  -2
  12   7   9 19.4857 4.56779   1
  10   8   6 6.23600 1.77484  -2
 -10   8   9 6.23600 1.77484   1
   9   8   6 65.8719 6.90931  -2
  -9   8   9 65.8719 6.90931   1
   7   8   7 283.132 11.4986  -2
  -7   8   9 283.132 11.4986   1
   6   8   7 213.746 9.03790  -2
  -6   8   9 213.746 9.03790   1
  -5   8   9 36.1003 4.56488   1
   4   8   8 164.293 7.14456  -2
  -4   8   9 164.293 7.14456   1
   3   8   8 74.0002 4.15163  -2
  -3   8   9 74.0002 4.15163   1
   2   8   8 220.441 8.70362  -2
  -2   8   9 220.441 8.70362   1
   1   8   9 394.910 12.0217  -2
  -1   8   9 394.910 12.0217   1
   0   8   9 1906.88 54.8210  -2
   0   8   9 1906.88 54.8210   1
  -1   8   9 382.756 11.7007  -2
   1   8   9 382.756 11.7007   1
  -2   8  10 63.5260 6.95852  -2
   2   8   9 63.5260 6.95852   1
  -3   8  10 165.986 10.8345  -2
   3   8   9 165.986 10.8345   1
  -4   8  10 69.4398 6.82110  -2
   4   8   9 69.4398 6.82110   1
  -6   8  11 49.3703 7.95933  -2
   6   8   9 49.3703 7.95933   1
  -7   8  11 85.7212 3.66678  -2
   7   8   9 85.7212 3.66678   1
  -8   8  11 101.514 9.33999  -2
   8   8   9 101.514 9.33999   1
  -9   8  12 59.3835 4.30665  -2
   9   8   9 59.3835 4.30665   1
 -10   8  12 119.813 3.49781  -2
  10   8   9 119.813 3.49781   1
 -11   8  12 55.0066 6.51120  -2
  11   8   9 55.0066 6.51120   1
  12   9   5 5.23059 4.15750  -2
 -12   9   9 5.23059 4.15750   1
  11   9   6 97.7659 6.63339  -2
 -11   9   9 97.7659 6.63339   1
  10   9   6 53.0235 3.67154  -2
 -10   9   9 53.0235 3.67154   1
   7   9   7 47.1801 2.55581  -2
  -7   9   9 47.1801 2.55581   1
   6   9   7 50.3941 4.33120  -2
  -6   9   9 50.3941 4.33120   1
   4   9   8 200.901 8.41253  -2
  -4   9   9 200.901 8.41253   1
   3   9   8 52.6921 3.58523  -2
  -3   9   9 52.6921 3.58523   1
   2   9   8 74.9327 6.40510  -2
  -2   9   9 74.9327 6.40510   1
   1   9   9 54.5231 2.91426  -2
  -1   9   9 54.5231 2.91426   1
   0   9   9 191.232 6.30311  -2
   0   9   9 191.232 6.30311   1
  -1   9   9 55.1965 2.96005  -2
   1   9   9 55.1965 2.96005   1
  -2   9  10 33.3607 2.91027  -2
   2   9   9 33.3607 2.91027   1
  -3   9  10 59.1606 4.14287  -2
   3   9   9 59.1606 4.14287   1
  -4   9  10 413.444 13.2691  -2
   4   9   9 413.444 13.2691   1
   5   9   9 61.1756 6.36441   1
  -6   9  11 551.093 17.2583  -2
   6   9   9 551.093 17.2583   1
  -7   9  11 205.857 6.38541  -2
   7   9   9 205.857 6.38541   1
  -9   9  12 43.3663 7.22341  -2
   9   9   9 43.3663 7.22341   1
 -10   9  12 59.6967 2.37226  -2
  10   9   9 59.6967 2.37226   1
  11  10   6 10.8322 3.65176  -2
 -11  10   9 10.8322 3.65176   1
  10  10   6 50.0664 3.31586  -2
 -10  10   9 50.0664 3.31586   1
   7  10   7 10.9384 2.30633  -2
  -7  10   9 10.9384 2.30633   1
   6  10   7 91.8572 4.29462  -2
  -6  10   9 91.8572 4.29462   1
   4  10   8 31.3868 3.19547  -2
  -4  10   9 31.3868 3.19547   1
   3  10   8 47.5585 2.57122  -2
  -3  10   9 47.5585 2.57122   1
   2  10   8 40.4911 5.23120  -2
  -2  10   9 40.4911 5.23120   1
   1  10   9 74.8252 3.39352  -2
  -1  10   9 74.8252 3.39352   1
   0  10   9 25.1404 1.76761  -2
   0  10   9 25.1404 1.76761   1
  -1  10   9 76.5508 3.13346  -2
   1  10   9 76.5508 3.13346   1
  -2  10  10 26.2506 3.03591  -2
   2  10   9 26.2506 3.03591   1
  -3  10  10 48.0540 2.97815  -2
   3  10   9 48.0540 2.97815   1
  -4  10  10 403.715 11.2399  -2
   4  10   9 403.715 11.2399   1
  -5  10  11 134.216 10.2879  -2
   5  10   9 134.216 10.2879   1
  -6  10  11 236.012 5.33612  -2
   6  10   9 236.012 5.33612   1
  -7  10  11 72.9477 3.31701  -2
   7  10   9 72.9477 3.31701   1
  -9  10  12 12.0701 5.05366  -2
   9  10   9 12.0701 5.05366   1
 -10  10  12 25.3221 1.92493  -2
  10  10   9 25.3221 1.92493   1
  11  11   6 36.0276 3.81650  -2
 -11  11   9 36.0276 3.81650   1
  10  11   6 5.20346 1.86306  -2
 -10  11   9 5.20346 1.86306   1
   7  11   7 5.18411 2.48981  -2
  -7  11   9 5.18411 2.48981   1
   6  11   7 204.386 7.21780  -2
  -6  11   9 204.386 7.21780   1
   4  11   8 193.280 6.88901  -2
  -4  11   9 193.280 6.88901   1
   3  11   8 246.229 8.20092  -2
  -3  11   9 246.229 8.20092   1
   2  11   8 39.1933 4.13410  -2
  -2  11   9 39.1933 4.13410   1
   1  11   9 8.39830 2.62233  -2
  -1  11   9 8.39830 2.62233   1
   0  11   9 17.6915 1.31790  -2
   0  11   9 17.6915 1.31790   1
  -1  11   9 15.2360 1.86118  -2
   1  11   9 15.2360 1.86118   1
  -2  11  10 110.003 4.18106  -2
   2  11   9 110.003 4.18106   1
  -3  11  10 201.214 5.65995  -2
   3  11   9 201.214 5.65995   1
  -4  11  10 57.5430 2.62964  -2
   4  11   9 57.5430 2.62964   1
  -5  11  11 316.941 18.3758  -2
   5  11   9 316.941 18.3758   1
  -6  11  11 42.9255 2.72320  -2
   6  11   9 42.9255 2.72320   1
  -7  11  11 23.3114 2.28448  -2
   7  11   9 23.3114 2.28448   1
 -10  11  12 49.6865 2.18184  -2
  10  11   9 49.6865 2.18184   1
  10  12   6 2.14954 1.61006  -2
 -10  12   9 2.14954 1.61006   1
   7  12   7 74.2057 3.01036  -2
  -7  12   9 74.2057 3.01036   1
   6  12   7 22.0243 2.98056  -2
  -6  12   9 22.0243 2.98056   1
   4  12   8 206.749 12.7095  -2
  -4  12   9 206.749 12.7095   1
   3  12   8 120.573 3.70460  -2
  -3  12   9 120.573 3.70460   1
   2  12   8 123.494 5.42856  -2
  -2  12   9 123.494 5.42856   1
   1  12   9 17.9395 2.20092  -2
  -1  12   9 17.9395 2.20092   1
   0  12   9 181.991 4.11075  -2
   0  12   9 181.991 4.11075   1
  -1  12   9 26.9901 1.79891  -2
   1  12   9 26.9901 1.79891   1
  -2  12  10 338.629 6.99399  -2
   2  12   9 338.629 6.99399   1
  -3  12  10 324.602 6.22728  -2
   3  12   9 324.602 6.22728   1
  -4  12  10 14.8904 2.10649  -2
   4  12   9 14.8904 2.10649   1
  -5  12  11 144.596 10.9772  -2
   5  12   9 144.596 10.9772   1
  -6  12  11 106.133 3.51667  -2
   6  12   9 106.133 3.51667   1
  -7  12  11 51.6946 3.05407  -2
   7  12   9 51.6946 3.05407   1
  -9  12  12 22.8967 4.35957  -2
   9  12   9 22.8967 4.35957   1
 -10  12  12 24.3669 1.82986  -2
  10  12   9 24.3669 1.82986   1
  10  13   6 6.62389 1.93114  -2
 -10  13   9 6.62389 1.93114   1
   7  13   7 12.7865 3.98318  -2
  -7  13   9 12.7865 3.98318   1
   6  13   7 30.4830 2.88252  -2
  -6  13   9 30.4830 2.88252   1
   4  13   8 22.1517 4.40305  -2
  -4  13   9 22.1517 4.40305   1
   3  13   8 65.6521 4.58572  -2
  -3  13   9 65.6521 4.58572   1
   2  13   8 195.371 7.15871  -2
  -2  13   9 195.371 7.15871   1
   1  13   9 37.0725 2.84088  -2
  -1  13   9 37.0725 2.84088   1
   0  13   9 3.63921 1.60060  -2
   0  13   9 3.63921 1.60060   1
  -1  13   9 38.0172 2.45737  -2
   1  13   9 38.0172 2.45737   1
  -2  13  10 15.5464 3.29299  -2
   2  13   9 15.5464 3.29299   1
  -3  13  10 41.5316 2.11907  -2
   3  13   9 41.5316 2.11907   1
  -4  13  10 33.0286 2.13603  -2
   4  13   9 33.0286 2.13603   1
  -5  13  10 170.735 11.2881  -2
   5  13   9 170.735 11.2881   1
  -5  13  11 79.2697 8.07165  -2
   5  13   9 79.2697 8.07165   1
  -6  13  11 25.3486 2.39182  -2
   6  13   9 25.3486 2.39182   1
  -7  13  11 24.1773 2.29290  -2
   7  13   9 24.1773 2.29290   1
  -9  13  12 105.183 6.12992  -2
   9  13   9 105.183 6.12992   1
   7  14   7 38.3476 3.46794  -2
  -7  14   9 38.3476 3.46794   1
   6  14   7 67.7707 6.02119  -2
  -6  14   9 67.7707 6.02119   1
   4  14   8 37.0580 4.49973  -2
  -4  14   9 37.0580 4.49973   1
   3  14   8 8.27302 3.26128  -2
  -3  14   9 8.27302 3.26128   1
   2  14   8 107.441 9.16126  -2
  -2  14   9 107.441 9.16126   1
   1  14   9 24.3193 3.06406  -2
  -1  14   9 24.3193 3.06406   1
   0  14   9 17.5486 1.72391  -2
   0  14   9 17.5486 1.72391   1
  -1  14   9 22.7154 2.37290  -2
   1  14   9 22.7154 2.37290   1
  -2  14  10 59.9330 3.21809  -2
   2  14   9 59.9330 3.21809   1
  -3  14  10 28.3555 2.10458  -2
   3  14   9 28.3555 2.10458   1
  -4  14  10 38.1608 2.73452  -2
   4  14   9 38.1608 2.73452   1
  -5  14  11 39.3769 6.86278  -2
   5  14   9 39.3769 6.86278   1
  -6  14  11 72.1818 2.78046  -2
   6  14   9 72.1818 2.78046   1
  -7  14  11 27.1349 2.03271  -2
   7  14   9 27.1349 2.03271   1
   7  15   7 -0.1827 2.43088  -2
  -7  15   9 -0.1827 2.43088   1
   6  15   7 3.36259 3.57785  -2
  -6  15   9 3.36259 3.57785   1
   4  15   8 59.9860 4.44694  -2
  -4  15   9 59.9860 4.44694   1
   3  15   8 7.89322 2.56032  -2
  -3  15   9 7.89322 2.56032   1
   2  15   8 29.6880 6.41878  -2
  -2  15   9 29.6880 6.41878   1
   1  15   9 127.043 4.18778  -2
  -1  15   9 127.043 4.18778   1
   0  15   9 25.4035 1.65877  -2
   0  15   9 25.4035 1.65877   1
  -1  15   9 130.481 4.07266  -2
   1  15   9 130.481 4.07266   1
  -2  15  10 109.321 3.77999  -2
   2  15   9 109.321 3.77999   1
  -3  15  10 9.33018 1.73352  -2
   3  15   9 9.33018 1.73352   1
  -4  15  10 219.141 7.59869  -2
   4  15   9 219.141 7.59869   1
  -5  15  11 5.06513 5.47572  -2
   5  15   9 5.06513 5.47572   1
  -6  15  11 21.3409 2.12536  -2
   6  15   9 21.3409 2.12536   1
  -7  15  11 12.1881 2.06006  -2
   7  15   9 12.1881 2.06006   1
   6  16   7 127.254 5.02971  -2
  -6  16   9 127.254 5.02971   1
   4  16   8 21.5412 4.42715  -2
  -4  16   9 21.5412 4.42715   1
   3  16   8 59.2450 3.13052  -2
  -3  16   9 59.2450 3.13052   1
   2  16   8 75.3527 7.01134  -2
  -2  16   9 75.3527 7.01134   1
   1  16   9 3.26858 2.77999  -2
  -1  16   9 3.26858 2.77999   1
   0  16   9 24.6196 1.53821  -2
   0  16   9 24.6196 1.53821   1
  -1  16   9 0.69315 2.38136  -2
   1  16   9 0.69315 2.38136   1
  -2  16  10 9.24640 3.66530  -2
   2  16   9 9.24640 3.66530   1
  -3  16  10 19.0258 1.70102  -2
   3  16   9 19.0258 1.70102   1
  -4  16  10 18.6379 2.57474  -2
   4  16   9 18.6379 2.57474   1
  -5  16  11 -2.1847 4.77069  -2
   5  16   9 -2.1847 4.77069   1
  -6  16  11 105.580 5.99090  -2
   6  16   9 105.580 5.99090   1
   4  17   8 1.70855 3.28637  -2
  -4  17   9 1.70855 3.28637   1
   3  17   8 27.8479 2.72097  -2
  -3  17   9 27.8479 2.72097   1
   2  17   8 41.2606 5.18900  -2
  -2  17   9 41.2606 5.18900   1
   1  17   9 8.91577 3.95471  -2
  -1  17   9 8.91577 3.95471   1
   0  17   9 0.44012 1.74242  -2
   0  17   9 0.44012 1.74242   1
  -1  17   9 6.14965 2.79542  -2
   1  17   9 6.14965 2.79542   1
  -2  17  10 47.1604 3.63218  -2
   2  17   9 47.1604 3.63218   1
  -3  17  10 4.50180 1.81214  -2
   3  17   9 4.50180 1.81214   1
  -4  17  10 41.3190 3.51178  -2
   4  17   9 41.3190 3.51178   1
   0  18   9 226.715 13.5565  -2
   0  18   9 226.715 13.5565   1
  13   0   6 117.212 4.15778  -2
 -13   0  10 117.212 4.15778   1
  10   0   7 70.8704 3.30793  -2
 -10   0  10 70.8704 3.30793   1
   8   0   8 150.523 10.5623  -2
  -8   0  10 150.523 10.5623   1
   7   0   8 429.376 15.5879  -2
  -7   0  10 429.376 15.5879   1
   6   0   8 821.852 28.3858  -2
  -6   0  10 821.852 28.3858   1
   5   0   9 99.3107 7.55063  -2
  -5   0  10 99.3107 7.55063   1
   4   0   9 45.5641 3.12579  -2
  -4   0  10 45.5641 3.12579   1
   3   0   9 81.6321 3.90445  -2
  -3   0  10 81.6321 3.90445   1
   2   0   9 102.027 7.01710  -2
  -2   0  10 102.027 7.01710   1
   1   0  10 747.402 25.4264  -2
  -1   0  10 747.402 25.4264   1
  -2   0  11 34.8910 3.10364  -2
   2   0  10 34.8910 3.10364   1
  -3   0  11 145.042 5.08488  -2
   3   0  10 145.042 5.08488   1
  -4   0  11 242.120 7.77782  -2
   4   0  10 242.120 7.77782   1
   5   0  10 467.889 26.4753   1
  -6   0  12 578.288 17.3746  -2
   6   0  10 578.288 17.3746   1
  -7   0  12 771.049 26.9941  -2
   7   0  10 771.049 26.9941   1
  -8   0  12 133.633 9.32011  -2
   8   0  10 133.633 9.32011   1
  -9   0  13 69.1919 3.91238  -2
   9   0  10 69.1919 3.91238   1
 -10   0  13 1.91752 4.84196  -2
  10   0  10 1.91752 4.84196   1
 -11   0  13 14.4472 5.61259  -2
  11   0  10 14.4472 5.61259   1
 -12   0  14 46.7882 5.88722  -2
  12   0  10 46.7882 5.88722   1
 -13   0  14 57.5935 5.28010  -2
  13   0  10 57.5935 5.28010   1
  13   1   6 19.8367 1.71978  -2
 -13   1  10 19.8367 1.71978   1
  10   1   7 60.7721 2.21124  -2
 -10   1  10 60.7721 2.21124   1
   9   1   7 139.712 10.1504  -2
  -9   1  10 139.712 10.1504   1
   8   1   8 5.97218 3.85157  -2
  -8   1  10 5.97218 3.85157   1
   7   1   8 15.3168 1.96202  -2
  -7   1  10 15.3168 1.96202   1
   6   1   8 387.606 9.98563  -2
  -6   1  10 387.606 9.98563   1
   5   1   9 574.730 20.9692  -2
  -5   1  10 574.730 20.9692   1
   5   1   8 385.264 19.1968  -2
  -5   1  10 385.264 19.1968   1
   4   1   9 363.317 9.22881  -2
  -4   1  10 363.317 9.22881   1
   3   1   9 324.627 7.38926  -2
  -3   1  10 324.627 7.38926   1
   2   1   9 0.28188 2.86116  -2
  -2   1  10 0.28188 2.86116   1
   1   1  10 3.95891 1.45969  -2
  -1   1  10 3.95891 1.45969   1
   0   1  10 34.5705 1.28317  -2
   0   1  10 34.5705 1.28317   1
  -1   1  10 3.23365 1.50646  -2
   1   1  10 3.23365 1.50646   1
  -2   1  11 63.1270 4.36184  -2
   2   1  10 63.1270 4.36184   1
  -3   1  11 309.189 6.38834  -2
   3   1  10 309.189 6.38834   1
  -4   1  11 1777.02 38.6047  -2
   4   1  10 1777.02 38.6047   1
   5   1  10 248.169 10.6578   1
  -6   1  12 26.5556 2.07050  -2
   6   1  10 26.5556 2.07050   1
  -7   1  12 13.7544 1.72354  -2
   7   1  10 13.7544 1.72354   1
  -8   1  12 27.4185 3.84508  -2
   8   1  10 27.4185 3.84508   1
  -9   1  13 21.7202 2.89020  -2
   9   1  10 21.7202 2.89020   1
 -10   1  13 157.973 6.67344  -2
  10   1  10 157.973 6.67344   1
 -11   1  13 14.0083 5.79650  -2
  11   1  10 14.0083 5.79650   1
 -12   1  14 -0.5262 4.67208  -2
  12   1  10 -0.5262 4.67208   1
 -13   1  14 42.2351 2.00917  -2
  13   1  10 42.2351 2.00917   1
  13   2   6 9.43381 1.74615  -2
 -13   2  10 9.43381 1.74615   1
  11   2   7 5.54326 5.40759  -2
 -11   2  10 5.54326 5.40759   1
  10   2   7 14.4461 1.46689  -2
 -10   2  10 14.4461 1.46689   1
   9   2   7 190.227 12.0405  -2
  -9   2  10 190.227 12.0405   1
   8   2   8 20.5094 5.80379  -2
  -8   2  10 20.5094 5.80379   1
   7   2   8 10.1103 2.22067  -2
  -7   2  10 10.1103 2.22067   1
   6   2   8 282.812 8.88000  -2
  -6   2  10 282.812 8.88000   1
   5   2   9 84.2330 7.28831  -2
  -5   2  10 84.2330 7.28831   1
   4   2   9 524.482 14.7675  -2
  -4   2  10 524.482 14.7675   1
   3   2   9 468.803 11.5439  -2
  -3   2  10 468.803 11.5439   1
   2   2   9 110.898 7.35167  -2
  -2   2  10 110.898 7.35167   1
   1   2  10 191.450 5.20643  -2
  -1   2  10 191.450 5.20643   1
   0   2  10 827.139 16.6154  -2
   0   2  10 827.139 16.6154   1
  -1   2  10 183.227 4.97364  -2
   1   2  10 183.227 4.97364   1
  -2   2  11 21.6755 2.10825  -2
   2   2  10 21.6755 2.10825   1
  -3   2  11 371.908 8.09272  -2
   3   2  10 371.908 8.09272   1
  -4   2  11 406.201 8.89783  -2
   4   2  10 406.201 8.89783   1
   5   2  10 196.954 12.4904   1
  -6   2  12 54.8285 2.46024  -2
   6   2  10 54.8285 2.46024   1
  -7   2  12 13.1250 1.85467  -2
   7   2  10 13.1250 1.85467   1
  -8   2  12 8.79113 4.69127  -2
   8   2  10 8.79113 4.69127   1
  -9   2  13 188.527 5.87713  -2
   9   2  10 188.527 5.87713   1
 -10   2  13 46.6287 3.30217  -2
  10   2  10 46.6287 3.30217   1
 -11   2  13 3.69535 5.90727  -2
  11   2  10 3.69535 5.90727   1
 -12   2  14 65.2687 6.37940  -2
  12   2  10 65.2687 6.37940   1
 -13   2  14 7.41089 2.88213  -2
  13   2  10 7.41089 2.88213   1
  13   3   6 96.8485 3.02808  -2
 -13   3  10 96.8485 3.02808   1
  10   3   7 12.8586 1.56453  -2
 -10   3  10 12.8586 1.56453   1
   9   3   7 122.186 8.93206  -2
  -9   3  10 122.186 8.93206   1
   8   3   8 16.4702 5.84779  -2
  -8   3  10 16.4702 5.84779   1
   7   3   8 32.8597 3.16365  -2
  -7   3  10 32.8597 3.16365   1
   6   3   8 258.402 9.99623  -2
  -6   3  10 258.402 9.99623   1
   5   3   9 138.378 8.81840  -2
  -5   3  10 138.378 8.81840   1
   4   3   9 721.253 20.0087  -2
  -4   3  10 721.253 20.0087   1
   3   3   9 149.339 4.25051  -2
  -3   3  10 149.339 4.25051   1
   2   3   9 55.9138 5.11942  -2
  -2   3  10 55.9138 5.11942   1
   1   3  10 199.213 4.89591  -2
  -1   3  10 199.213 4.89591   1
   0   3  10 1.88845 0.81139  -2
   0   3  10 1.88845 0.81139   1
  -1   3  10 184.835 4.20362  -2
   1   3  10 184.835 4.20362   1
  -2   3  11 3.90300 2.17049  -2
   2   3  10 3.90300 2.17049   1
  -3   3  11 136.097 3.45174  -2
   3   3  10 136.097 3.45174   1
  -4   3  11 1121.44 23.3669  -2
   4   3  10 1121.44 23.3669   1
  -5   3  11 243.304 13.2522  -2
   5   3  10 243.304 13.2522   1
  -6   3  12 16.5428 2.12540  -2
   6   3  10 16.5428 2.12540   1
  -7   3  12 -1.7005 1.65691  -2
   7   3  10 -1.7005 1.65691   1
  -8   3  12 85.3351 5.27477  -2
   8   3  10 85.3351 5.27477   1
  -9   3  13 96.0427 3.55612  -2
   9   3  10 96.0427 3.55612   1
 -10   3  13 13.3877 2.35744  -2
  10   3  10 13.3877 2.35744   1
 -11   3  13 32.8391 6.54766  -2
  11   3  10 32.8391 6.54766   1
 -12   3  14 7.27995 4.68146  -2
  12   3  10 7.27995 4.68146   1
 -13   3  14 22.0410 3.33375  -2
  13   3  10 22.0410 3.33375   1
  13   4   6 9.88444 2.11631  -2
 -13   4  10 9.88444 2.11631   1
  10   4   7 180.874 4.84932  -2
 -10   4  10 180.874 4.84932   1
   9   4   7 72.8409 6.71286  -2
  -9   4  10 72.8409 6.71286   1
   7   4   8 66.5334 3.99198  -2
  -7   4  10 66.5334 3.99198   1
   6   4   8 111.514 5.47414  -2
  -6   4  10 111.514 5.47414   1
  -5   4  10 51.5922 4.60963   1
   4   4   9 226.711 7.17584  -2
  -4   4  10 226.711 7.17584   1
   3   4   9 88.6092 3.47710  -2
  -3   4  10 88.6092 3.47710   1
  -2   4  10 1094.61 29.8279   1
   1   4  10 41.9385 1.94798  -2
  -1   4  10 41.9385 1.94798   1
   0   4  10 374.923 8.49667  -2
   0   4  10 374.923 8.49667   1
  -1   4  10 37.5762 1.82622  -2
   1   4  10 37.5762 1.82622   1
  -2   4  11 695.366 20.2122  -2
   2   4  10 695.366 20.2122   1
  -3   4  11 75.4495 2.32310  -2
   3   4  10 75.4495 2.32310   1
  -4   4  11 73.9602 2.74117  -2
   4   4  10 73.9602 2.74117   1
   5   4  10 40.7994 2.93280   1
  -6   4  12 293.498 7.74979  -2
   6   4  10 293.498 7.74979   1
  -7   4  12 61.3515 2.81169  -2
   7   4  10 61.3515 2.81169   1
  -8   4  12 36.0809 4.12309  -2
   8   4  10 36.0809 4.12309   1
  -9   4  13 87.6382 3.63889  -2
   9   4  10 87.6382 3.63889   1
 -10   4  13 200.058 5.45402  -2
  10   4  10 200.058 5.45402   1
 -11   4  13 39.2712 6.76901  -2
  11   4  10 39.2712 6.76901   1
 -12   4  14 3.97709 4.68688  -2
  12   4  10 3.97709 4.68688   1
 -13   4  14 15.2820 2.29875  -2
  13   4  10 15.2820 2.29875   1
  13   5   6 10.8739 1.45023  -2
 -13   5  10 10.8739 1.45023   1
  10   5   7 144.874 4.13148  -2
 -10   5  10 144.874 4.13148   1
   9   5   7 343.474 13.0189  -2
  -9   5  10 343.474 13.0189   1
   7   5   8 8.21533 3.51836  -2
  -7   5  10 8.21533 3.51836   1
   6   5   8 111.447 5.59706  -2
  -6   5  10 111.447 5.59706   1
   5   5   9 475.534 23.6059  -2
  -5   5  10 475.534 23.6059   1
   4   5   9 257.409 8.03724  -2
  -4   5  10 257.409 8.03724   1
   3   5   9 141.742 4.83003  -2
  -3   5  10 141.742 4.83003   1
   2   5   9 408.597 14.5602  -2
  -2   5  10 408.597 14.5602   1
   1   5  10 657.974 18.7309  -2
  -1   5  10 657.974 18.7309   1
   0   5  10 105.658 2.84706  -2
   0   5  10 105.658 2.84706   1
  -1   5  10 627.742 13.9673  -2
   1   5  10 627.742 13.9673   1
  -2   5  11 901.129 42.1111  -2
   2   5  10 901.129 42.1111   1
  -3   5  11 18.3123 1.83011  -2
   3   5  10 18.3123 1.83011   1
  -4   5  11 247.859 7.93689  -2
   4   5  10 247.859 7.93689   1
   5   5  10 126.746 9.42732   1
  -6   5  12 111.462 6.23973  -2
   6   5  10 111.462 6.23973   1
  -7   5  12 130.138 5.14075  -2
   7   5  10 130.138 5.14075   1
   8   5  10 67.0243 7.07362   1
  -9   5  13 73.8702 3.64188  -2
   9   5  10 73.8702 3.64188   1
 -10   5  13 12.7875 2.79841  -2
  10   5  10 12.7875 2.79841   1
 -11   5  13 46.4720 6.97498  -2
  11   5  10 46.4720 6.97498   1
 -12   5  14 39.2098 5.49548  -2
  12   5  10 39.2098 5.49548   1
 -13   5  14 -0.4378 3.18098  -2
  13   5  10 -0.4378 3.18098   1
  13   6   6 55.6398 2.51628  -2
 -13   6  10 55.6398 2.51628   1
  11   6   7 42.4047 5.55588  -2
 -11   6  10 42.4047 5.55588   1
  10   6   7 19.8414 2.12576  -2
 -10   6  10 19.8414 2.12576   1
   7   6   8 215.839 12.5873  -2
  -7   6  10 215.839 12.5873   1
   6   6   8 78.5120 4.81616  -2
  -6   6  10 78.5120 4.81616   1
  -5   6  10 186.538 10.5668   1
   4   6   9 12.4958 2.15091  -2
  -4   6  10 12.4958 2.15091   1
   3   6   9 134.774 4.74622  -2
  -3   6  10 134.774 4.74622   1
   2   6   9 360.900 13.5130  -2
  -2   6  10 360.900 13.5130   1
   1   6  10 650.503 18.5793  -2
  -1   6  10 650.503 18.5793   1
   0   6  10 18.4664 1.58171  -2
   0   6  10 18.4664 1.58171   1
  -1   6  10 634.702 19.0958  -2
   1   6  10 634.702 19.0958   1
  -2   6  11 183.761 6.59673  -2
   2   6  10 183.761 6.59673   1
  -3   6  11 475.205 12.4217  -2
   3   6  10 475.205 12.4217   1
  -4   6  11 57.5501 4.37974  -2
   4   6  10 57.5501 4.37974   1
   5   6  10 290.873 18.0352   1
  -6   6  12 519.473 16.8010  -2
   6   6  10 519.473 16.8010   1
  -7   6  12 138.367 7.46349  -2
   7   6  10 138.367 7.46349   1
   8   6  10 43.7781 5.80962   1
  -9   6  13 57.7165 3.47113  -2
   9   6  10 57.7165 3.47113   1
 -10   6  13 3.60526 2.04174  -2
  10   6  10 3.60526 2.04174   1
 -11   6  13 19.6675 6.33773  -2
  11   6  10 19.6675 6.33773   1
 -12   6  14 27.5228 4.84557  -2
  12   6  10 27.5228 4.84557   1
  13   7   6 13.1326 1.67835  -2
 -13   7  10 13.1326 1.67835   1
  11   7   7 121.094 8.01729  -2
 -11   7  10 121.094 8.01729   1
  10   7   7 63.1284 2.72069  -2
 -10   7  10 63.1284 2.72069   1
   7   7   8 66.1934 5.92724  -2
  -7   7  10 66.1934 5.92724   1
   6   7   8 147.645 9.65010  -2
  -6   7  10 147.645 9.65010   1
  -5   7  10 201.631 11.2508   1
   4   7   9 87.0204 3.01116  -2
  -4   7  10 87.0204 3.01116   1
   3   7   9 314.948 9.58591  -2
  -3   7  10 314.948 9.58591   1
   2   7   9 391.028 20.5579  -2
  -2   7  10 391.028 20.5579   1
   1   7  10 317.323 12.0163  -2
  -1   7  10 317.323 12.0163   1
   0   7  10 83.1626 3.25465  -2
   0   7  10 83.1626 3.25465   1
  -1   7  10 288.201 8.02179  -2
   1   7  10 288.201 8.02179   1
  -2   7  11 176.272 6.05071  -2
   2   7  10 176.272 6.05071   1
  -3   7  11 110.251 4.41070  -2
   3   7  10 110.251 4.41070   1
  -4   7  11 409.432 12.9229  -2
   4   7  10 409.432 12.9229   1
   5   7  10 16.5653 4.35134   1
  -6   7  12 139.229 5.93796  -2
   6   7  10 139.229 5.93796   1
  -7   7  12 35.1972 4.84909  -2
   7   7  10 35.1972 4.84909   1
  -8   7  12 89.8169 6.14281  -2
   8   7  10 89.8169 6.14281   1
  -9   7  13 118.295 4.49733  -2
   9   7  10 118.295 4.49733   1
 -10   7  13 65.5452 2.90420  -2
  10   7  10 65.5452 2.90420   1
 -11   7  13 39.2908 6.38665  -2
  11   7  10 39.2908 6.38665   1
 -12   7  14 24.6210 4.84899  -2
  12   7  10 24.6210 4.84899   1
  11   8   7 3.74704 4.02287  -2
 -11   8  10 3.74704 4.02287   1
  10   8   7 2.66782 1.67502  -2
 -10   8  10 2.66782 1.67502   1
   9   8   7 121.858 8.70564  -2
  -9   8  10 121.858 8.70564   1
   7   8   8 94.5477 4.53387  -2
  -7   8  10 94.5477 4.53387   1
   6   8   8 66.4248 4.66544  -2
  -6   8  10 66.4248 4.66544   1
   4   8   9 75.9803 4.45493  -2
  -4   8  10 75.9803 4.45493   1
   3   8   9 162.292 5.46764  -2
  -3   8  10 162.292 5.46764   1
   2   8   9 57.9384 3.75195  -2
  -2   8  10 57.9384 3.75195   1
   1   8  10 126.148 4.72762  -2
  -1   8  10 126.148 4.72762   1
   0   8  10 285.127 8.91529  -2
   0   8  10 285.127 8.91529   1
  -1   8  10 116.463 4.47966  -2
   1   8  10 116.463 4.47966   1
  -2   8  11 24.3533 2.76852  -2
   2   8  10 24.3533 2.76852   1
  -3   8  11 43.5108 5.73792  -2
   3   8  10 43.5108 5.73792   1
  -4   8  11 252.771 11.5518  -2
   4   8  10 252.771 11.5518   1
  -5   8  11 274.010 17.0028  -2
   5   8  10 274.010 17.0028   1
  -6   8  12 165.396 13.3498  -2
   6   8  10 165.396 13.3498   1
  -7   8  12 373.012 8.12691  -2
   7   8  10 373.012 8.12691   1
  -8   8  12 20.3481 6.92693  -2
   8   8  10 20.3481 6.92693   1
  -9   8  13 11.9310 4.12083  -2
   9   8  10 11.9310 4.12083   1
 -10   8  13 121.615 3.51225  -2
  10   8  10 121.615 3.51225   1
 -11   8  13 13.7435 5.15182  -2
  11   8  10 13.7435 5.15182   1
  12   9   6 24.4217 4.34024  -2
 -12   9  10 24.4217 4.34024   1
  11   9   7 -3.2591 3.70650  -2
 -11   9  10 -3.2591 3.70650   1
  10   9   7 173.497 5.08964  -2
 -10   9  10 173.497 5.08964   1
   9   9   7 9.81676 5.10117  -2
  -9   9  10 9.81676 5.10117   1
   7   9   8 214.611 6.08079  -2
  -7   9  10 214.611 6.08079   1
   6   9   8 53.9984 4.48126  -2
  -6   9  10 53.9984 4.48126   1
   4   9   9 435.759 16.4409  -2
  -4   9  10 435.759 16.4409   1
   3   9   9 66.5451 3.91143  -2
  -3   9  10 66.5451 3.91143   1
   2   9   9 32.0900 3.09225  -2
  -2   9  10 32.0900 3.09225   1
   1   9  10 195.460 6.60770  -2
  -1   9  10 195.460 6.60770   1
   0   9  10 62.2842 2.84991  -2
   0   9  10 62.2842 2.84991   1
  -1   9  10 193.010 6.55915  -2
   1   9  10 193.010 6.55915   1
  -2   9  11 12.6911 2.65480  -2
   2   9  10 12.6911 2.65480   1
  -2   9  10 38.0144 5.37444  -2
   2   9  10 38.0144 5.37444   1
  -3   9  11 47.4886 3.50095  -2
   3   9  10 47.4886 3.50095   1
  -4   9  11 282.954 9.72336  -2
   4   9  10 282.954 9.72336   1
  -5   9  11 42.6987 7.42991  -2
   5   9  10 42.6987 7.42991   1
  -6   9  12 20.5471 2.91855  -2
   6   9  10 20.5471 2.91855   1
  -7   9  12 41.1586 3.37517  -2
   7   9  10 41.1586 3.37517   1
  -9   9  13 51.7800 4.94150  -2
   9   9  10 51.7800 4.94150   1
 -10   9  13 24.1167 1.88191  -2
  10   9  10 24.1167 1.88191   1
  11  10   7 15.9049 3.74387  -2
 -11  10  10 15.9049 3.74387   1
  10  10   7 8.49713 2.49912  -2
 -10  10  10 8.49713 2.49912   1
   9  10   7 29.6259 4.91941  -2
  -9  10  10 29.6259 4.91941   1
   7  10   8 37.7754 2.64500  -2
  -7  10  10 37.7754 2.64500   1
   6  10   8 55.3979 3.18303  -2
  -6  10  10 55.3979 3.18303   1
   4  10   9 410.968 15.6843  -2
  -4  10  10 410.968 15.6843   1
   3  10   9 51.4961 2.69852  -2
  -3  10  10 51.4961 2.69852   1
   2  10   9 27.6839 5.27274  -2
  -2  10  10 27.6839 5.27274   1
   1  10  10 13.0968 2.23583  -2
  -1  10  10 13.0968 2.23583   1
   0  10  10 47.9934 2.25510  -2
   0  10  10 47.9934 2.25510   1
  -1  10  10 9.56677 2.08015  -2
   1  10  10 9.56677 2.08015   1
  -2  10  11 36.2843 3.06151  -2
   2  10  10 36.2843 3.06151   1
  -2  10  10 29.9301 5.50655  -2
   2  10  10 29.9301 5.50655   1
  -3  10  11 13.8199 2.48419  -2
   3  10  10 13.8199 2.48419   1
  -4  10  11 43.2722 3.34959  -2
   4  10  10 43.2722 3.34959   1
   5  10  10 250.352 10.5735   1
  -6  10  12 12.6041 2.43109  -2
   6  10  10 12.6041 2.43109   1
  -7  10  12 51.7590 3.08437  -2
   7  10  10 51.7590 3.08437   1
  -9  10  13 38.1840 3.78264  -2
   9  10  10 38.1840 3.78264   1
 -10  10  13 10.8484 1.76319  -2
  10  10  10 10.8484 1.76319   1
 -11  10  13 17.8540 2.75488  -2
  11  10  10 17.8540 2.75488   1
  11  11   7 81.4230 5.38654  -2
 -11  11  10 81.4230 5.38654   1
  10  11   7 9.28294 1.88680  -2
 -10  11  10 9.28294 1.88680   1
   7  11   8 2.37012 2.43598  -2
  -7  11  10 2.37012 2.43598   1
   6  11   8 68.8742 3.47738  -2
  -6  11  10 68.8742 3.47738   1
   4  11   9 58.3853 3.60835  -2
  -4  11  10 58.3853 3.60835   1
   3  11   9 207.345 6.11656  -2
  -3  11  10 207.345 6.11656   1
   2  11   9 107.378 6.03485  -2
  -2  11  10 107.378 6.03485   1
   1  11  10 9.09117 2.65584  -2
  -1  11  10 9.09117 2.65584   1
   0  11  10 31.2967 1.74063  -2
   0  11  10 31.2967 1.74063   1
  -1  11  10 16.2812 2.07456  -2
   1  11  10 16.2812 2.07456   1
  -2  11  11 244.712 8.40016  -2
   2  11  10 244.712 8.40016   1
  -3  11  11 107.197 3.21012  -2
   3  11  10 107.197 3.21012   1
  -4  11  11 31.2305 2.31445  -2
   4  11  10 31.2305 2.31445   1
  -5  11  12 38.0250 7.36026  -2
   5  11  10 38.0250 7.36026   1
  -6  11  12 31.0289 2.21103  -2
   6  11  10 31.0289 2.21103   1
  -7  11  12 14.0309 2.12515  -2
   7  11  10 14.0309 2.12515   1
  -9  11  13 15.4684 3.84753  -2
   9  11  10 15.4684 3.84753   1
 -10  11  13 38.4031 1.94440  -2
  10  11  10 38.4031 1.94440   1
  10  12   7 33.6709 1.99370  -2
 -10  12  10 33.6709 1.99370   1
   9  12   7 16.2775 3.66988  -2
  -9  12  10 16.2775 3.66988   1
   7  12   8 33.8635 2.26456  -2
  -7  12  10 33.8635 2.26456   1
   6  12   8 24.6183 2.69404  -2
  -6  12  10 24.6183 2.69404   1
   4  12   9 4.68983 5.83358  -2
  -4  12  10 4.68983 5.83358   1
   3  12   9 329.543 9.08339  -2
  -3  12  10 329.543 9.08339   1
   2  12   9 325.790 10.5796  -2
  -2  12  10 325.790 10.5796   1
   1  12  10 5.00557 2.15919  -2
  -1  12  10 5.00557 2.15919   1
   0  12  10 338.044 6.77512  -2
   0  12  10 338.044 6.77512   1
  -1  12  10 4.56837 1.62466  -2
   1  12  10 4.56837 1.62466   1
  -2  12  11 110.970 3.66825  -2
   2  12  10 110.970 3.66825   1
  -3  12  11 57.0599 2.26032  -2
   3  12  10 57.0599 2.26032   1
  -4  12  11 18.7626 2.13141  -2
   4  12  10 18.7626 2.13141   1
  -5  12  12 140.292 10.6304  -2
   5  12  10 140.292 10.6304   1
  -6  12  12 42.7790 2.50788  -2
   6  12  10 42.7790 2.50788   1
  -7  12  12 71.6635 3.24448  -2
   7  12  10 71.6635 3.24448   1
 -10  12  13 18.7105 1.67667  -2
  10  12  10 18.7105 1.67667   1
   9  13   7 10.4235 3.02263  -2
  -9  13  10 10.4235 3.02263   1
   7  13   8 7.21711 3.25998  -2
  -7  13  10 7.21711 3.25998   1
   6  13   8 115.446 6.07999  -2
  -6  13  10 115.446 6.07999   1
   4  13   9 28.0953 5.96108  -2
  -4  13  10 28.0953 5.96108   1
   3  13   9 44.1686 3.09616  -2
  -3  13  10 44.1686 3.09616   1
   2  13   9 21.9343 4.60559  -2
  -2  13  10 21.9343 4.60559   1
   1  13  10 140.897 4.43676  -2
  -1  13  10 140.897 4.43676   1
   0  13  10 4.25566 1.63108  -2
   0  13  10 4.25566 1.63108   1
  -1  13  10 144.280 4.17141  -2
   1  13  10 144.280 4.17141   1
  -2  13  11 23.0625 2.64345  -2
   2  13  10 23.0625 2.64345   1
  -3  13  11 42.3782 1.99342  -2
   3  13  10 42.3782 1.99342   1
  -4  13  11 45.6679 2.34395  -2
   4  13  10 45.6679 2.34395   1
  -5  13  12 167.271 11.6276  -2
   5  13  10 167.271 11.6276   1
  -6  13  12 109.968 3.63912  -2
   6  13  10 109.968 3.63912   1
  -7  13  12 15.1075 2.14873  -2
   7  13  10 15.1075 2.14873   1
  -9  13  13 55.3705 4.25499  -2
   9  13  10 55.3705 4.25499   1
   7  14   8 67.6993 4.08134  -2
  -7  14  10 67.6993 4.08134   1
   6  14   8 38.7438 5.04281  -2
  -6  14  10 38.7438 5.04281   1
   4  14   9 31.1251 4.46984  -2
  -4  14  10 31.1251 4.46984   1
   3  14   9 23.5418 3.54367  -2
  -3  14  10 23.5418 3.54367   1
   2  14   9 63.4907 4.18910  -2
  -2  14  10 63.4907 4.18910   1
   1  14  10 149.221 5.20369  -2
  -1  14  10 149.221 5.20369   1
   0  14  10 42.3493 2.10242  -2
   0  14  10 42.3493 2.10242   1
  -1  14  10 153.559 4.23139  -2
   1  14  10 153.559 4.23139   1
  -2  14  11 70.2717 3.36148  -2
   2  14  10 70.2717 3.36148   1
  -3  14  11 17.0534 1.96983  -2
   3  14  10 17.0534 1.96983   1
  -4  14  11 105.172 4.17586  -2
   4  14  10 105.172 4.17586   1
  -5  14  12 42.7992 6.76021  -2
   5  14  10 42.7992 6.76021   1
  -6  14  12 23.2772 2.01580  -2
   6  14  10 23.2772 2.01580   1
  -7  14  12 48.6780 2.51564  -2
   7  14  10 48.6780 2.51564   1
   7  15   8 10.0537 2.40817  -2
  -7  15  10 10.0537 2.40817   1
   6  15   8 27.3419 4.21227  -2
  -6  15  10 27.3419 4.21227   1
   4  15   9 212.454 6.88345  -2
  -4  15  10 212.454 6.88345   1
   3  15   9 12.4243 2.52523  -2
  -3  15  10 12.4243 2.52523   1
   2  15   9 121.931 9.30017  -2
  -2  15  10 121.931 9.30017   1
   1  15  10 12.5817 2.39297  -2
  -1  15  10 12.5817 2.39297   1
   0  15  10 13.9068 1.44960  -2
   0  15  10 13.9068 1.44960   1
  -1  15  10 9.74155 2.39450  -2
   1  15  10 9.74155 2.39450   1
  -2  15  11 8.90778 2.67605  -2
   2  15  10 8.90778 2.67605   1
  -3  15  11 72.8510 2.79978  -2
   3  15  10 72.8510 2.79978   1
  -4  15  11 211.670 7.37504  -2
   4  15  10 211.670 7.37504   1
  -5  15  12 13.0031 5.49229  -2
   5  15  10 13.0031 5.49229   1
  -6  15  12 44.0459 2.64998  -2
   6  15  10 44.0459 2.64998   1
  -7  15  12 6.92050 2.05860  -2
   7  15  10 6.92050 2.05860   1
   4  16   9 22.2049 4.20004  -2
  -4  16  10 22.2049 4.20004   1
   3  16   9 17.0472 2.34852  -2
  -3  16  10 17.0472 2.34852   1
   2  16   9 8.27539 5.19171  -2
  -2  16  10 8.27539 5.19171   1
   1  16  10 2.36451 2.67666  -2
  -1  16  10 2.36451 2.67666   1
   0  16  10 0.05137 1.21430  -2
   0  16  10 0.05137 1.21430   1
  -1  16  10 -0.5095 2.09196  -2
   1  16  10 -0.5095 2.09196   1
  -2  16  11 25.8061 3.80857  -2
   2  16  10 25.8061 3.80857   1
  -3  16  11 49.9430 2.49072  -2
   3  16  10 49.9430 2.49072   1
  -4  16  11 10.5137 2.84422  -2
   4  16  10 10.5137 2.84422   1
   4  17   9 40.0842 4.79915  -2
  -4  17  10 40.0842 4.79915   1
   3  17   9 5.76192 2.17902  -2
  -3  17  10 5.76192 2.17902   1
   2  17   9 50.7666 5.26128  -2
  -2  17  10 50.7666 5.26128   1
   1  17  10 7.20722 3.06108  -2
  -1  17  10 7.20722 3.06108   1
   0  17  10 9.72491 2.20364  -2
   0  17  10 9.72491 2.20364   1
  -1  17  10 -1.1922 2.79787  -2
   1  17  10 -1.1922 2.79787   1
  -2  17  11 101.773 4.98213  -2
   2  17  10 101.773 4.98213   1
  -3  17  11 7.42773 2.41901  -2
   3  17  10 7.42773 2.41901   1
  14   0   7 11.0655 3.58086  -2
 -14   0  11 11.0655 3.58086   1
  13   0   7 2.16740 1.82268  -2
 -13   0  11 2.16740 1.82268   1
  11   0   8 4.60452 5.68138  -2
 -11   0  11 4.60452 5.68138   1
  10   0   8 1.28067 2.19709  -2
 -10   0  11 1.28067 2.19709   1
   9   0   8 41.9785 4.86376  -2
  -9   0  11 41.9785 4.86376   1
   8   0   9 4.31602 5.40155  -2
  -8   0  11 4.31602 5.40155   1
   7   0   9 73.8561 4.35758  -2
  -7   0  11 73.8561 4.35758   1
   6   0   9 3.23284 4.47732  -2
  -6   0  11 3.23284 4.47732   1
   5   0  10 505.916 26.3667  -2
  -5   0  11 505.916 26.3667   1
   4   0  10 260.751 9.78598  -2
  -4   0  11 260.751 9.78598   1
   3   0  10 152.185 6.14050  -2
  -3   0  11 152.185 6.14050   1
   2   0  10 27.1819 3.15229  -2
  -2   0  11 27.1819 3.15229   1
   1   0  11 -0.8543 2.31717  -2
  -1   0  11 -0.8543 2.31717   1
   0   0  11 1.93768 1.50893  -2
   0   0  11 1.93768 1.50893   1
  -1   0  11 -0.0157 2.07628  -2
   1   0  11 -0.0157 2.07628   1
  -2   0  12 1.72978 4.30217  -2
   2   0  11 1.72978 4.30217   1
  -3   0  12 17.9485 2.34219  -2
   3   0  11 17.9485 2.34219   1
  -4   0  12 367.379 11.2506  -2
   4   0  11 367.379 11.2506   1
   5   0  11 7.02456 2.91372   1
  -6   0  13 43.4263 3.37042  -2
   6   0  11 43.4263 3.37042   1
  -7   0  13 3.84869 2.69354  -2
   7   0  11 3.84869 2.69354   1
  -8   0  13 0.28072 5.05083  -2
   8   0  11 0.28072 5.05083   1
  -9   0  14 2.23908 3.86126  -2
   9   0  11 2.23908 3.86126   1
 -10   0  14 19.3847 5.15946  -2
  10   0  11 19.3847 5.15946   1
 -11   0  14 -1.6436 5.20953  -2
  11   0  11 -1.6436 5.20953   1
 -12   0  15 -0.7887 4.60245  -2
  12   0  11 -0.7887 4.60245   1
 -13   0  15 -0.4748 2.78257  -2
  13   0  11 -0.4748 2.78257   1
  14   1   7 5.91415 3.34427  -2
 -14   1  11 5.91415 3.34427   1
  13   1   7 2.57394 1.49228  -2
 -13   1  11 2.57394 1.49228   1
  11   1   8 19.2910 4.23960  -2
 -11   1  11 19.2910 4.23960   1
  10   1   8 130.268 3.55710  -2
 -10   1  11 130.268 3.55710   1
   9   1   8 51.2847 6.96778  -2
  -9   1  11 51.2847 6.96778   1
   8   1   9 5.17854 4.05698  -2
  -8   1  11 5.17854 4.05698   1
   7   1   9 160.040 4.90216  -2
  -7   1  11 160.040 4.90216   1
   6   1   9 79.8572 3.26781  -2
  -6   1  11 79.8572 3.26781   1
   5   1  10 326.603 12.6463  -2
  -5   1  11 326.603 12.6463   1
   4   1  10 1908.16 45.3668  -2
  -4   1  11 1908.16 45.3668   1
   3   1  10 347.451 8.77626  -2
  -3   1  11 347.451 8.77626   1
   2   1  10 67.2959 4.03691  -2
  -2   1  11 67.2959 4.03691   1
   1   1  11 8.86011 1.35996  -2
  -1   1  11 8.86011 1.35996   1
   0   1  11 0.18102 1.07942  -2
   0   1  11 0.18102 1.07942   1
  -1   1  11 12.8715 1.78366  -2
   1   1  11 12.8715 1.78366   1
  -2   1  12 238.809 8.98260  -2
   2   1  11 238.809 8.98260   1
  -3   1  12 182.596 4.62471  -2
   3   1  11 182.596 4.62471   1
  -4   1  12 1413.91 30.9157  -2
   4   1  11 1413.91 30.9157   1
   5   1  11 9.07914 3.06001   1
  -6   1  13 476.583 10.3460  -2
   6   1  11 476.583 10.3460   1
  -7   1  13 357.635 8.68191  -2
   7   1  11 357.635 8.68191   1
  -8   1  13 28.0272 3.92132  -2
   8   1  11 28.0272 3.92132   1
  -9   1  14 0.97737 2.98367  -2
   9   1  11 0.97737 2.98367   1
 -10   1  14 19.5399 3.06986  -2
  10   1  11 19.5399 3.06986   1
 -11   1  14 9.10437 5.52611  -2
  11   1  11 9.10437 5.52611   1
 -12   1  15 4.77101 3.48796  -2
  12   1  11 4.77101 3.48796   1
 -13   1  15 5.56446 3.70826  -2
  13   1  11 5.56446 3.70826   1
  14   2   7 138.077 7.79070  -2
 -14   2  11 138.077 7.79070   1
  13   2   7 24.0614 1.94463  -2
 -13   2  11 24.0614 1.94463   1
  11   2   8 13.8848 4.17391  -2
 -11   2  11 13.8848 4.17391   1
  10   2   8 52.2907 2.14100  -2
 -10   2  11 52.2907 2.14100   1
   9   2   8 93.6485 5.83601  -2
  -9   2  11 93.6485 5.83601   1
   8   2   9 102.540 8.74708  -2
  -8   2  11 102.540 8.74708   1
   7   2   9 44.5523 3.65052  -2
  -7   2  11 44.5523 3.65052   1
   6   2   9 199.227 8.20166  -2
  -6   2  11 199.227 8.20166   1
   5   2  10 241.976 13.8012  -2
  -5   2  11 241.976 13.8012   1
   4   2  10 436.827 12.5110  -2
  -4   2  11 436.827 12.5110   1
   3   2  10 414.519 10.3327  -2
  -3   2  11 414.519 10.3327   1
   2   2  10 23.3807 4.43699  -2
  -2   2  11 23.3807 4.43699   1
   1   2  11 972.896 23.3348  -2
  -1   2  11 972.896 23.3348   1
   0   2  11 492.630 10.0637  -2
   0   2  11 492.630 10.0637   1
  -1   2  11 937.846 22.5075  -2
   1   2  11 937.846 22.5075   1
  -2   2  12 14.8948 2.64236  -2
   2   2  11 14.8948 2.64236   1
  -3   2  12 183.443 4.66797  -2
   3   2  11 183.443 4.66797   1
  -4   2  12 399.014 9.25163  -2
   4   2  11 399.014 9.25163   1
   5   2  11 171.325 5.88539   1
  -6   2  13 107.543 3.57774  -2
   6   2  11 107.543 3.57774   1
  -7   2  13 322.201 9.02561  -2
   7   2  11 322.201 9.02561   1
  -8   2  13 88.3003 5.36055  -2
   8   2  11 88.3003 5.36055   1
  -9   2  14 71.9755 3.63179  -2
   9   2  11 71.9755 3.63179   1
 -10   2  14 19.6660 2.84487  -2
  10   2  11 19.6660 2.84487   1
 -11   2  14 1.48778 5.47573  -2
  11   2  11 1.48778 5.47573   1
 -12   2  15 23.6190 5.16354  -2
  12   2  11 23.6190 5.16354   1
 -13   2  15 21.3508 4.29619  -2
  13   2  11 21.3508 4.29619   1
  13   3   7 21.5236 1.87737  -2
 -13   3  11 21.5236 1.87737   1
  11   3   8 119.852 7.88054  -2
 -11   3  11 119.852 7.88054   1
  10   3   8 1.77202 1.44417  -2
 -10   3  11 1.77202 1.44417   1
   9   3   8 137.249 6.96698  -2
  -9   3  11 137.249 6.96698   1
   8   3   9 74.8204 7.43771  -2
  -8   3  11 74.8204 7.43771   1
   7   3   9 7.97743 2.59155  -2
  -7   3  11 7.97743 2.59155   1
   6   3   9 231.728 9.24949  -2
  -6   3  11 231.728 9.24949   1
   5   3  10 209.921 11.9167  -2
  -5   3  11 209.921 11.9167   1
   4   3  10 1220.15 33.3605  -2
  -4   3  11 1220.15 33.3605   1
   3   3  10 154.083 4.40593  -2
  -3   3  11 154.083 4.40593   1
   2   3  10 7.06279 3.90182  -2
  -2   3  11 7.06279 3.90182   1
   1   3  11 392.603 8.98232  -2
  -1   3  11 392.603 8.98232   1
   0   3  11 3.66854 1.01824  -2
   0   3  11 3.66854 1.01824   1
  -1   3  11 384.023 8.79396  -2
   1   3  11 384.023 8.79396   1
  -2   3  12 37.3790 2.66490  -2
   2   3  11 37.3790 2.66490   1
  -3   3  12 65.0431 2.34281  -2
   3   3  11 65.0431 2.34281   1
  -4   3  12 110.095 3.29369  -2
   4   3  11 110.095 3.29369   1
  -5   3  12 361.561 19.0124  -2
   5   3  11 361.561 19.0124   1
  -6   3  13 320.578 8.95933  -2
   6   3  11 320.578 8.95933   1
  -7   3  13 80.7814 3.33134  -2
   7   3  11 80.7814 3.33134   1
  -8   3  13 50.3292 4.46057  -2
   8   3  11 50.3292 4.46057   1
  -9   3  14 117.604 4.20366  -2
   9   3  11 117.604 4.20366   1
 -10   3  14 48.7462 2.91382  -2
  10   3  11 48.7462 2.91382   1
 -11   3  14 106.113 8.84552  -2
  11   3  11 106.113 8.84552   1
 -12   3  15 68.0721 6.38423  -2
  12   3  11 68.0721 6.38423   1
  13   4   7 14.1617 1.76258  -2
 -13   4  11 14.1617 1.76258   1
  11   4   8 87.0083 6.88218  -2
 -11   4  11 87.0083 6.88218   1
  10   4   8 325.744 6.88980  -2
 -10   4  11 325.744 6.88980   1
   9   4   8 12.5404 3.39437  -2
  -9   4  11 12.5404 3.39437   1
   7   4   9 45.4362 3.60987  -2
  -7   4  11 45.4362 3.60987   1
   6   4   9 336.461 12.6459  -2
  -6   4  11 336.461 12.6459   1
  -5   4  11 2.02778 2.51499   1
   4   4  10 82.1268 3.54672  -2
  -4   4  11 82.1268 3.54672   1
   3   4  10 77.2449 3.33007  -2
  -3   4  11 77.2449 3.33007   1
   2   4  10 740.456 37.3196  -2
  -2   4  11 740.456 37.3196   1
   1   4  11 1200.51 28.6962  -2
  -1   4  11 1200.51 28.6962   1
   0   4  11 1254.07 27.3299  -2
   0   4  11 1254.07 27.3299   1
  -1   4  11 1152.42 25.1838  -2
   1   4  11 1152.42 25.1838   1
  -2   4  12 172.739 7.40969  -2
   2   4  11 172.739 7.40969   1
  -3   4  12 0.91010 1.39353  -2
   3   4  11 0.91010 1.39353   1
  -4   4  12 41.1730 2.33584  -2
   4   4  11 41.1730 2.33584   1
  -5   4  12 511.697 26.1210  -2
   5   4  11 511.697 26.1210   1
  -6   4  13 166.239 5.34825  -2
   6   4  11 166.239 5.34825   1
  -7   4  13 392.632 9.58390  -2
   7   4  11 392.632 9.58390   1
  -8   4  13 61.3894 4.81966  -2
   8   4  11 61.3894 4.81966   1
  -9   4  14 72.1838 3.89953  -2
   9   4  11 72.1838 3.89953   1
 -10   4  14 107.714 3.52423  -2
  10   4  11 107.714 3.52423   1
 -11   4  14 109.104 8.84281  -2
  11   4  11 109.104 8.84281   1
 -12   4  15 11.7236 4.58646  -2
  12   4  11 11.7236 4.58646   1
  13   5   7 76.7007 2.51347  -2
 -13   5  11 76.7007 2.51347   1
  11   5   8 35.6836 3.92226  -2
 -11   5  11 35.6836 3.92226   1
  10   5   8 230.342 5.26352  -2
 -10   5  11 230.342 5.26352   1
   9   5   8 76.4951 5.29362  -2
  -9   5  11 76.4951 5.29362   1
   7   5   9 69.3872 4.34527  -2
  -7   5  11 69.3872 4.34527   1
   6   5   9 84.1055 4.91848  -2
  -6   5  11 84.1055 4.91848   1
   4   5  10 269.768 8.43233  -2
  -4   5  11 269.768 8.43233   1
   3   5  10 21.7987 2.20190  -2
  -3   5  11 21.7987 2.20190   1
   2   5  10 986.034 33.6392  -2
  -2   5  11 986.034 33.6392   1
   1   5  11 75.9824 3.30543  -2
  -1   5  11 75.9824 3.30543   1
   0   5  11 98.2540 2.73732  -2
   0   5  11 98.2540 2.73732   1
  -1   5  11 73.2046 2.52095  -2
   1   5  11 73.2046 2.52095   1
  -2   5  12 1258.57 62.3411  -2
   2   5  11 1258.57 62.3411   1
  -3   5  12 78.1588 3.31810  -2
   3   5  11 78.1588 3.31810   1
  -4   5  12 263.566 8.42574  -2
   4   5  11 263.566 8.42574   1
  -5   5  12 242.036 12.9816  -2
   5   5  11 242.036 12.9816   1
  -6   5  13 42.6594 3.16302  -2
   6   5  11 42.6594 3.16302   1
  -7   5  13 6.48917 2.45649  -2
   7   5  11 6.48917 2.45649   1
  -8   5  13 64.1954 7.06720  -2
   8   5  11 64.1954 7.06720   1
  -9   5  14 48.2972 3.25544  -2
   9   5  11 48.2972 3.25544   1
 -10   5  14 86.6770 4.16011  -2
  10   5  11 86.6770 4.16011   1
 -11   5  14 5.38287 6.01832  -2
  11   5  11 5.38287 6.01832   1
 -12   5  15 29.1931 4.77964  -2
  12   5  11 29.1931 4.77964   1
  13   6   7 3.00945 1.68463  -2
 -13   6  11 3.00945 1.68463   1
  11   6   8 -9.1981 4.31930  -2
 -11   6  11 -9.1981 4.31930   1
  10   6   8 44.1786 2.41965  -2
 -10   6  11 44.1786 2.41965   1
   9   6   8 -0.7994 3.25231  -2
  -9   6  11 -0.7994 3.25231   1
   7   6   9 146.164 9.48022  -2
  -7   6  11 146.164 9.48022   1
   6   6   9 86.9910 5.13299  -2
  -6   6  11 86.9910 5.13299   1
   5   6  10 579.984 28.6372  -2
  -5   6  11 579.984 28.6372   1
   4   6  10 63.3186 3.25256  -2
  -4   6  11 63.3186 3.25256   1
   3   6  10 501.587 14.6477  -2
  -3   6  11 501.587 14.6477   1
   2   6  10 187.627 7.77686  -2
  -2   6  11 187.627 7.77686   1
   1   6  11 213.572 6.79061  -2
  -1   6  11 213.572 6.79061   1
   0   6  11 74.7207 3.09682  -2
   0   6  11 74.7207 3.09682   1
  -1   6  11 219.483 7.31333  -2
   1   6  11 219.483 7.31333   1
  -2   6  12 160.959 9.49689  -2
   2   6  11 160.959 9.49689   1
  -3   6  12 292.057 8.06101  -2
   3   6  11 292.057 8.06101   1
  -4   6  12 263.027 8.43933  -2
   4   6  11 263.027 8.43933   1
   5   6  11 21.0752 4.79565   1
  -6   6  13 70.8946 5.53353  -2
   6   6  11 70.8946 5.53353   1
  -7   6  13 8.56645 3.76701  -2
   7   6  11 8.56645 3.76701   1
  -8   6  13 48.2954 7.29267  -2
   8   6  11 48.2954 7.29267   1
  -9   6  14 33.6423 3.09463  -2
   9   6  11 33.6423 3.09463   1
 -10   6  14 4.20900 2.62272  -2
  10   6  11 4.20900 2.62272   1
 -11   6  14 15.0852 6.03988  -2
  11   6  11 15.0852 6.03988   1
 -12   6  15 16.8082 4.41246  -2
  12   6  11 16.8082 4.41246   1
  13   7   7 15.5124 1.68797  -2
 -13   7  11 15.5124 1.68797   1
  11   7   8 127.032 8.15228  -2
 -11   7  11 127.032 8.15228   1
  10   7   8 30.0923 2.12868  -2
 -10   7  11 30.0923 2.12868   1
   9   7   8 50.4495 4.77840  -2
  -9   7  11 50.4495 4.77840   1
   7   7   9 13.4579 4.22878  -2
  -7   7  11 13.4579 4.22878   1
   6   7   9 32.7086 5.54783  -2
  -6   7  11 32.7086 5.54783   1
  -5   7  11 118.562 7.91906   1
   4   7  10 428.942 12.8569  -2
  -4   7  11 428.942 12.8569   1
   3   7  10 116.933 4.42798  -2
  -3   7  11 116.933 4.42798   1
   2   7  10 191.720 11.1781  -2
  -2   7  11 191.720 11.1781   1
   1   7  11 74.2123 4.07634  -2
  -1   7  11 74.2123 4.07634   1
   0   7  11 31.2075 2.40041  -2
   0   7  11 31.2075 2.40041   1
  -1   7  11 73.6005 3.07404  -2
   1   7  11 73.6005 3.07404   1
  -2   7  12 23.0282 2.86038  -2
   2   7  11 23.0282 2.86038   1
  -3   7  12 16.3376 2.14620  -2
   3   7  11 16.3376 2.14620   1
  -4   7  12 580.749 17.7377  -2
   4   7  11 580.749 17.7377   1
   5   7  11 13.8426 4.40027   1
  -6   7  13 54.0035 4.23382  -2
   6   7  11 54.0035 4.23382   1
  -7   7  13 -3.2875 3.76801  -2
   7   7  11 -3.2875 3.76801   1
  -8   7  13 47.8312 7.63758  -2
   8   7  11 47.8312 7.63758   1
  -9   7  14 12.4325 2.84076  -2
   9   7  11 12.4325 2.84076   1
 -10   7  14 24.6281 2.23657  -2
  10   7  11 24.6281 2.23657   1
 -11   7  14 15.8272 5.33486  -2
  11   7  11 15.8272 5.33486   1
 -12   8  11 15.9281 2.96042   1
  11   8   8 24.6316 3.23998  -2
 -11   8  11 24.6316 3.23998   1
  10   8   8 13.0711 1.86807  -2
 -10   8  11 13.0711 1.86807   1
   9   8   8 55.1498 6.47502  -2
  -9   8  11 55.1498 6.47502   1
   7   8   9 102.990 3.99224  -2
  -7   8  11 102.990 3.99224   1
   6   8   9 64.3096 4.73344  -2
  -6   8  11 64.3096 4.73344   1
   4   8  10 264.915 10.5956  -2
  -4   8  11 264.915 10.5956   1
   3   8  10 47.4193 2.71585  -2
  -3   8  11 47.4193 2.71585   1
   2   8  10 30.4753 3.27355  -2
  -2   8  11 30.4753 3.27355   1
   1   8  11 178.901 6.18869  -2
  -1   8  11 178.901 6.18869   1
   0   8  11 257.998 8.22449  -2
   0   8  11 257.998 8.22449   1
  -1   8  11 173.200 6.02801  -2
   1   8  11 173.200 6.02801   1
  -2   8  12 524.980 19.4727  -2
   2   8  11 524.980 19.4727   1
  -3   8  12 25.4381 2.32163  -2
   3   8  11 25.4381 2.32163   1
  -4   8  12 16.7085 3.29612  -2
   4   8  11 16.7085 3.29612   1
   5   8  11 350.675 20.2457   1
  -6   8  13 103.491 10.4445  -2
   6   8  11 103.491 10.4445   1
  -7   8  13 10.3215 2.39902  -2
   7   8  11 10.3215 2.39902   1
  -8   8  13 21.3662 7.23674  -2
   8   8  11 21.3662 7.23674   1
  -9   8  14 57.6382 3.23496  -2
   9   8  11 57.6382 3.23496   1
 -10   8  14 35.0459 2.06829  -2
  10   8  11 35.0459 2.06829   1
 -11   8  14 73.5792 7.19354  -2
  11   8  11 73.5792 7.19354   1
  11   9   8 6.86396 3.73296  -2
 -11   9  11 6.86396 3.73296   1
  10   9   8 113.722 3.80217  -2
 -10   9  11 113.722 3.80217   1
   9   9   8 -2.7937 4.90090  -2
  -9   9  11 -2.7937 4.90090   1
   7   9   9 205.844 5.99791  -2
  -7   9  11 205.844 5.99791   1
   6   9   9 537.596 15.7708  -2
  -6   9  11 537.596 15.7708   1
   4   9  10 298.787 9.44232  -2
  -4   9  11 298.787 9.44232   1
   3   9  10 49.8032 2.91872  -2
  -3   9  11 49.8032 2.91872   1
   2   9  10 13.5779 2.90449  -2
  -2   9  11 13.5779 2.90449   1
   1   9  11 39.5950 2.81090  -2
  -1   9  11 39.5950 2.81090   1
   0   9  11 28.2370 2.09681  -2
   0   9  11 28.2370 2.09681   1
  -1   9  11 40.8592 2.88342  -2
   1   9  11 40.8592 2.88342   1
  -2   9  12 117.184 5.74074  -2
   2   9  11 117.184 5.74074   1
  -3   9  12 193.198 7.12305  -2
   3   9  11 193.198 7.12305   1
  -4   9  12 183.356 6.10705  -2
   4   9  11 183.356 6.10705   1
  -5   9  12 185.665 13.3514  -2
   5   9  11 185.665 13.3514   1
  -6   9  13 31.9212 3.57276  -2
   6   9  11 31.9212 3.57276   1
  -7   9  13 16.7870 2.66565  -2
   7   9  11 16.7870 2.66565   1
  -9   9  14 100.610 3.97019  -2
   9   9  11 100.610 3.97019   1
 -10   9  14 24.6816 1.81368  -2
  10   9  11 24.6816 1.81368   1
  11  10   8 15.6433 3.49907  -2
 -11  10  11 15.6433 3.49907   1
  10  10   8 42.9574 2.61233  -2
 -10  10  11 42.9574 2.61233   1
   9  10   8 36.8866 3.81245  -2
  -9  10  11 36.8866 3.81245   1
   7  10   9 82.2891 3.29760  -2
  -7  10  11 82.2891 3.29760   1
   6  10   9 228.396 7.43246  -2
  -6  10  11 228.396 7.43246   1
   4  10  10 44.4834 3.19667  -2
  -4  10  11 44.4834 3.19667   1
   3  10  10 8.06093 1.83754  -2
  -3  10  11 8.06093 1.83754   1
   2  10  10 41.0039 5.79857  -2
  -2  10  11 41.0039 5.79857   1
   1  10  11 227.664 6.52722  -2
  -1  10  11 227.664 6.52722   1
   0  10  11 13.4365 1.70104  -2
   0  10  11 13.4365 1.70104   1
  -1  10  11 220.684 6.43162  -2
   1  10  11 220.684 6.43162   1
  -2  10  12 16.2572 2.76481  -2
   2  10  11 16.2572 2.76481   1
  -3  10  12 190.617 6.17113  -2
   3  10  11 190.617 6.17113   1
  -4  10  12 199.030 5.20843  -2
   4  10  11 199.030 5.20843   1
  -5  10  12 186.220 13.0432  -2
   5  10  11 186.220 13.0432   1
  -6  10  13 22.7865 2.35791  -2
   6  10  11 22.7865 2.35791   1
  -7  10  13 183.252 5.26148  -2
   7  10  11 183.252 5.26148   1
  -9  10  14 15.1940 3.22029  -2
   9  10  11 15.1940 3.22029   1
 -10  10  14 6.90743 1.60946  -2
  10  10  11 6.90743 1.60946   1
  11  11   8 11.2635 3.06517  -2
 -11  11  11 11.2635 3.06517   1
  10  11   8 12.7232 1.93248  -2
 -10  11  11 12.7232 1.93248   1
   9  11   8 12.8268 4.07436  -2
  -9  11  11 12.8268 4.07436   1
   7  11   9 20.3793 2.62434  -2
  -7  11  11 20.3793 2.62434   1
   6  11   9 40.9802 3.00655  -2
  -6  11  11 40.9802 3.00655   1
   4  11  10 31.9323 3.02728  -2
  -4  11  11 31.9323 3.02728   1
   3  11  10 106.051 2.91290  -2
  -3  11  11 106.051 2.91290   1
   2  11  10 236.532 10.1585  -2
  -2  11  11 236.532 10.1585   1
   1  11  11 145.515 5.77257  -2
  -1  11  11 145.515 5.77257   1
   0  11  11 26.8551 1.70798  -2
   0  11  11 26.8551 1.70798   1
  -1  11  11 134.798 4.62847  -2
   1  11  11 134.798 4.62847   1
  -2  11  12 359.330 8.78374  -2
   2  11  11 359.330 8.78374   1
  -3  11  12 105.256 2.95389  -2
   3  11  11 105.256 2.95389   1
  -4  11  12 1.95485 2.08141  -2
   4  11  11 1.95485 2.08141   1
  -5  11  13 84.1641 8.87850  -2
   5  11  11 84.1641 8.87850   1
  -6  11  13 77.5445 2.86056  -2
   6  11  11 77.5445 2.86056   1
  -7  11  13 8.98855 1.95833  -2
   7  11  11 8.98855 1.95833   1
  -9  11  14 32.6150 3.26954  -2
   9  11  11 32.6150 3.26954   1
 -10  11  14 22.0879 1.65832  -2
  10  11  11 22.0879 1.65832   1
  10  12   8 25.8560 1.78894  -2
 -10  12  11 25.8560 1.78894   1
   9  12   8 21.1337 3.74182  -2
  -9  12  11 21.1337 3.74182   1
   7  12   9 57.9369 2.94891  -2
  -7  12  11 57.9369 2.94891   1
   6  12   9 93.8612 4.64880  -2
  -6  12  11 93.8612 4.64880   1
   4  12  10 9.68516 5.68677  -2
  -4  12  11 9.68516 5.68677   1
   3  12  10 53.0348 2.95749  -2
  -3  12  11 53.0348 2.95749   1
   2  12  10 107.294 5.22860  -2
  -2  12  11 107.294 5.22860   1
   1  12  11 56.5069 2.75142  -2
  -1  12  11 56.5069 2.75142   1
   0  12  11 71.2781 2.33442  -2
   0  12  11 71.2781 2.33442   1
  -1  12  11 53.8514 2.13173  -2
   1  12  11 53.8514 2.13173   1
  -2  12  12 219.574 4.94138  -2
   2  12  11 219.574 4.94138   1
  -3  12  12 163.099 3.73753  -2
   3  12  11 163.099 3.73753   1
  -4  12  12 17.8752 2.27128  -2
   4  12  11 17.8752 2.27128   1
  -5  12  13 12.5301 4.29601  -2
   5  12  11 12.5301 4.29601   1
  -6  12  13 49.3128 2.56381  -2
   6  12  11 49.3128 2.56381   1
  -7  12  13 24.0641 2.43092  -2
   7  12  11 24.0641 2.43092   1
  -9  12  14 73.7956 5.13279  -2
   9  12  11 73.7956 5.13279   1
   7  13   9 22.6609 3.38026  -2
  -7  13  11 22.6609 3.38026   1
   6  13   9 33.2153 3.07778  -2
  -6  13  11 33.2153 3.07778   1
   4  13  10 55.6353 6.71451  -2
  -4  13  11 55.6353 6.71451   1
   3  13  10 41.2564 2.66531  -2
  -3  13  11 41.2564 2.66531   1
   2  13  10 24.9859 4.54981  -2
  -2  13  11 24.9859 4.54981   1
   1  13  11 22.3355 2.76545  -2
  -1  13  11 22.3355 2.76545   1
   0  13  11 3.22133 1.59098  -2
   0  13  11 3.22133 1.59098   1
  -1  13  11 23.9777 2.52493  -2
   1  13  11 23.9777 2.52493   1
  -2  13  12 14.7161 2.57111  -2
   2  13  11 14.7161 2.57111   1
  -3  13  12 4.91452 1.58947  -2
   3  13  11 4.91452 1.58947   1
  -4  13  12 51.7483 2.59458  -2
   4  13  11 51.7483 2.59458   1
  -5  13  13 26.7326 6.73643  -2
   5  13  11 26.7326 6.73643   1
  -6  13  13 89.4348 3.24041  -2
   6  13  11 89.4348 3.24041   1
  -7  13  13 29.0529 2.41098  -2
   7  13  11 29.0529 2.41098   1
  -9  13  14 12.2748 2.06996  -2
   9  13  11 12.2748 2.06996   1
   7  14   9 33.6367 3.22051  -2
  -7  14  11 33.6367 3.22051   1
   6  14   9 63.7636 5.84195  -2
  -6  14  11 63.7636 5.84195   1
   4  14  10 95.3279 5.96100  -2
  -4  14  11 95.3279 5.96100   1
   3  14  10 17.7182 2.29686  -2
  -3  14  11 17.7182 2.29686   1
   2  14  10 66.9157 4.24486  -2
  -2  14  11 66.9157 4.24486   1
   1  14  11 16.1889 2.42165  -2
  -1  14  11 16.1889 2.42165   1
   0  14  11 25.2848 1.86930  -2
   0  14  11 25.2848 1.86930   1
  -1  14  11 10.3860 2.23826  -2
   1  14  11 10.3860 2.23826   1
  -2  14  12 5.16442 2.82243  -2
   2  14  11 5.16442 2.82243   1
  -3  14  12 2.83880 2.05266  -2
   3  14  11 2.83880 2.05266   1
  -4  14  12 40.7438 2.99110  -2
   4  14  11 40.7438 2.99110   1
  -5  14  13 8.52519 5.86013  -2
   5  14  11 8.52519 5.86013   1
  -6  14  13 2.29415 1.75811  -2
   6  14  11 2.29415 1.75811   1
  -7  14  13 27.7524 2.10516  -2
   7  14  11 27.7524 2.10516   1
   7  15   9 12.1260 2.89894  -2
  -7  15  11 12.1260 2.89894   1
   6  15   9 26.8634 2.77358  -2
  -6  15  11 26.8634 2.77358   1
   4  15  10 203.841 6.61259  -2
  -4  15  11 203.841 6.61259   1
   3  15  10 74.7639 3.81612  -2
  -3  15  11 74.7639 3.81612   1
   2  15  10 17.1389 5.80864  -2
  -2  15  11 17.1389 5.80864   1
   1  15  11 57.1738 3.32804  -2
  -1  15  11 57.1738 3.32804   1
   0  15  11 6.28198 1.35531  -2
   0  15  11 6.28198 1.35531   1
  -1  15  11 53.4998 3.03547  -2
   1  15  11 53.4998 3.03547   1
  -2  15  12 3.95061 2.53927  -2
   2  15  11 3.95061 2.53927   1
  -3  15  12 151.011 4.21508  -2
   3  15  11 151.011 4.21508   1
  -4  15  12 38.8717 3.23683  -2
   4  15  11 38.8717 3.23683   1
  -5  15  13 24.4766 5.66892  -2
   5  15  11 24.4766 5.66892   1
  -6  15  13 15.0509 2.49705  -2
   6  15  11 15.0509 2.49705   1
  -7  15  13 27.0501 3.30372  -2
   7  15  11 27.0501 3.30372   1
   4  16  10 6.02176 2.76012  -2
  -4  16  11 6.02176 2.76012   1
   3  16  10 47.2837 2.86696  -2
  -3  16  11 47.2837 2.86696   1
   2  16  10 27.0043 5.38655  -2
  -2  16  11 27.0043 5.38655   1
   1  16  11 63.4705 3.06568  -2
  -1  16  11 63.4705 3.06568   1
   0  16  11 4.34868 1.71523  -2
   0  16  11 4.34868 1.71523   1
  -1  16  11 64.1453 2.82159  -2
   1  16  11 64.1453 2.82159   1
  -2  16  12 44.8421 4.01045  -2
   2  16  11 44.8421 4.01045   1
  -3  16  12 28.1663 2.21158  -2
   3  16  11 28.1663 2.21158   1
  -4  16  12 10.0801 2.76726  -2
   4  16  11 10.0801 2.76726   1
   3  17  10 5.69739 2.04275  -2
  -3  17  11 5.69739 2.04275   1
   2  17  10 107.881 7.21426  -2
  -2  17  11 107.881 7.21426   1
   1  17  11 5.47619 2.94716  -2
  -1  17  11 5.47619 2.94716   1
   0  17  11 9.67016 2.25935  -2
   0  17  11 9.67016 2.25935   1
  -1  17  11 7.89476 2.80882  -2
   1  17  11 7.89476 2.80882   1
  -2  17  12 13.5547 3.58545  -2
   2  17  11 13.5547 3.58545   1
  13   0   8 105.610 3.80928  -2
 -13   0  12 105.610 3.80928   1
  11   0   9 16.2647 6.11626  -2
 -11   0  12 16.2647 6.11626   1
  10   0   9 -1.0215 2.17303  -2
 -10   0  12 -1.0215 2.17303   1
   9   0   9 5.68918 5.83682  -2
  -9   0  12 5.68918 5.83682   1
   8   0  10 142.862 7.35347  -2
  -8   0  12 142.862 7.35347   1
   7   0  10 797.344 27.8479  -2
  -7   0  12 797.344 27.8479   1
   6   0  10 636.557 22.4276  -2
  -6   0  12 636.557 22.4276   1
   5   0  11 119.654 8.47217  -2
  -5   0  12 119.654 8.47217   1
   4   0  11 399.094 14.3147  -2
  -4   0  12 399.094 14.3147   1
   3   0  11 24.5257 2.65997  -2
  -3   0  12 24.5257 2.65997   1
   2   0  11 11.6878 4.33533  -2
  -2   0  12 11.6878 4.33533   1
   1   0  12 292.798 10.6357  -2
  -1   0  12 292.798 10.6357   1
   0   0  12 1913.85 64.1644  -2
   0   0  12 1913.85 64.1644   1
  -1   0  12 295.016 10.6727  -2
   1   0  12 295.016 10.6727   1
  -2   0  13 118.899 7.75411  -2
   2   0  12 118.899 7.75411   1
  -3   0  13 299.144 10.9768  -2
   3   0  12 299.144 10.9768   1
  -4   0  13 38.9466 2.74339  -2
   4   0  12 38.9466 2.74339   1
   5   0  12 622.107 34.7866   1
  -6   0  14 437.428 13.6416  -2
   6   0  12 437.428 13.6416   1
  -7   0  14 611.003 18.5206  -2
   7   0  12 611.003 18.5206   1
  -8   0  14 148.185 10.1837  -2
   8   0  12 148.185 10.1837   1
  -9   0  15 7.11243 3.88255  -2
   9   0  12 7.11243 3.88255   1
 -10   0  15 9.67472 4.72259  -2
  10   0  12 9.67472 4.72259   1
 -11   0  15 -4.1060 5.32893  -2
  11   0  12 -4.1060 5.32893   1
 -12   0  16 -7.4701 5.81071  -2
  12   0  12 -7.4701 5.81071   1
 -13   0  16 66.4575 3.48888  -2
  13   0  12 66.4575 3.48888   1
  14   1   8 12.4637 3.31491  -2
 -14   1  12 12.4637 3.31491   1
  13   1   8 44.1916 1.98786  -2
 -13   1  12 44.1916 1.98786   1
  11   1   9 104.214 6.10941  -2
 -11   1  12 104.214 6.10941   1
  10   1   9 202.638 4.39447  -2
 -10   1  12 202.638 4.39447   1
   9   1   9 68.8398 5.30402  -2
  -9   1  12 68.8398 5.30402   1
   8   1  10 30.1249 4.31163  -2
  -8   1  12 30.1249 4.31163   1
   7   1  10 26.4760 2.22554  -2
  -7   1  12 26.4760 2.22554   1
   6   1  10 41.3685 2.69637  -2
  -6   1  12 41.3685 2.69637   1
   5   1  11 333.781 12.9033  -2
  -5   1  12 333.781 12.9033   1
   4   1  11 1500.81 40.9102  -2
  -4   1  12 1500.81 40.9102   1
   3   1  11 195.415 6.14032  -2
  -3   1  12 195.415 6.14032   1
   2   1  11 241.101 13.3593  -2
  -2   1  12 241.101 13.3593   1
   1   1  12 95.7268 3.16217  -2
  -1   1  12 95.7268 3.16217   1
   0   1  12 21.4890 1.42346  -2
   0   1  12 21.4890 1.42346   1
  -1   1  12 102.499 3.34167  -2
   1   1  12 102.499 3.34167   1
  -2   1  13 219.999 6.93581  -2
   2   1  12 219.999 6.93581   1
  -3   1  13 119.828 3.39517  -2
   3   1  12 119.828 3.39517   1
  -4   1  13 379.065 8.90818  -2
   4   1  12 379.065 8.90818   1
   5   1  12 6.11385 1.71759   1
  -6   1  14 322.363 7.41034  -2
   6   1  12 322.363 7.41034   1
  -7   1  14 32.2046 2.18069  -2
   7   1  12 32.2046 2.18069   1
  -8   1  14 85.6112 5.47390  -2
   8   1  12 85.6112 5.47390   1
  -9   1  15 57.7102 3.72357  -2
   9   1  12 57.7102 3.72357   1
 -10   1  15 19.4248 3.02318  -2
  10   1  12 19.4248 3.02318   1
 -11   1  15 13.8374 5.55839  -2
  11   1  12 13.8374 5.55839   1
 -12   1  16 60.9984 4.56036  -2
  12   1  12 60.9984 4.56036   1
 -13   1  16 15.0123 3.61506  -2
  13   1  12 15.0123 3.61506   1
  13   2   8 84.7563 2.95530  -2
 -13   2  12 84.7563 2.95530   1
  11   2   9 25.9229 4.44261  -2
 -11   2  12 25.9229 4.44261   1
  10   2   9 22.9697 1.73064  -2
 -10   2  12 22.9697 1.73064   1
   9   2   9 85.1485 5.82599  -2
  -9   2  12 85.1485 5.82599   1
   8   2  10 6.74434 5.13880  -2
  -8   2  12 6.74434 5.13880   1
   7   2  10 42.3793 3.50859  -2
  -7   2  12 42.3793 3.50859   1
   6   2  10 74.6556 4.51218  -2
  -6   2  12 74.6556 4.51218   1
  -5   2  12 301.827 10.8098   1
   4   2  11 438.643 12.6220  -2
  -4   2  12 438.643 12.6220   1
   3   2  11 192.850 5.29024  -2
  -3   2  12 192.850 5.29024   1
   2   2  11 21.6040 4.77144  -2
  -2   2  12 21.6040 4.77144   1
   1   2  12 211.797 5.74502  -2
  -1   2  12 211.797 5.74502   1
   0   2  12 70.3073 2.17472  -2
   0   2  12 70.3073 2.17472   1
  -1   2  12 203.956 5.53376  -2
   1   2  12 203.956 5.53376   1
  -2   2  13 95.7796 3.86519  -2
   2   2  12 95.7796 3.86519   1
  -3   2  13 596.600 13.4163  -2
   3   2  12 596.600 13.4163   1
  -4   2  13 399.461 9.31549  -2
   4   2  12 399.461 9.31549   1
  -5   2  13 174.008 10.7938  -2
   5   2  12 174.008 10.7938   1
  -6   2  14 27.5798 2.18224  -2
   6   2  12 27.5798 2.18224   1
  -7   2  14 142.108 4.81576  -2
   7   2  12 142.108 4.81576   1
  -8   2  14 6.61116 3.60285  -2
   8   2  12 6.61116 3.60285   1
  -9   2  15 32.7221 3.98327  -2
   9   2  12 32.7221 3.98327   1
 -10   2  15 12.7128 2.68663  -2
  10   2  12 12.7128 2.68663   1
 -11   2  15 15.5691 5.64083  -2
  11   2  12 15.5691 5.64083   1
 -12   2  16 103.972 7.61829  -2
  12   2  12 103.972 7.61829   1
 -13   2  16 140.661 9.61157  -2
  13   2  12 140.661 9.61157   1
  13   3   8 17.0135 1.74691  -2
 -13   3  12 17.0135 1.74691   1
  12   3   8 20.4383 5.65406  -2
 -12   3  12 20.4383 5.65406   1
  11   3   9 1.51787 3.52248  -2
 -11   3  12 1.51787 3.52248   1
  10   3   9 1.26471 1.44050  -2
 -10   3  12 1.26471 1.44050   1
   9   3   9 174.887 8.17986  -2
  -9   3  12 174.887 8.17986   1
   8   3  10 99.3245 8.50545  -2
  -8   3  12 99.3245 8.50545   1
   7   3  10 1.91154 2.65284  -2
  -7   3  12 1.91154 2.65284   1
   6   3  10 34.3727 3.63654  -2
  -6   3  12 34.3727 3.63654   1
   4   3  11 120.622 4.37848  -2
  -4   3  12 120.622 4.37848   1
   3   3  11 67.7758 2.65987  -2
  -3   3  12 67.7758 2.65987   1
  -2   3  12 11.2766 1.75188   1
   1   3  12 292.000 6.92181  -2
  -1   3  12 292.000 6.92181   1
   0   3  12 93.2827 2.65996  -2
   0   3  12 93.2827 2.65996   1
  -1   3  12 280.810 6.68469  -2
   1   3  12 280.810 6.68469   1
  -2   3  13 28.9046 2.26849  -2
   2   3  12 28.9046 2.26849   1
  -3   3  13 303.900 7.23871  -2
   3   3  12 303.900 7.23871   1
  -4   3  13 118.721 3.52900  -2
   4   3  12 118.721 3.52900   1
  -5   3  13 1146.70 57.2352  -2
   5   3  12 1146.70 57.2352   1
  -6   3  14 6.67667 2.27424  -2
   6   3  12 6.67667 2.27424   1
  -7   3  14 31.8089 2.20085  -2
   7   3  12 31.8089 2.20085   1
  -8   3  14 56.9130 4.79007  -2
   8   3  12 56.9130 4.79007   1
  -9   3  15 128.871 4.98364  -2
   9   3  12 128.871 4.98364   1
 -10   3  15 -0.6973 2.20707  -2
  10   3  12 -0.6973 2.20707   1
 -11   3  15 54.3292 6.98542  -2
  11   3  12 54.3292 6.98542   1
 -12   3  16 -1.9249 4.23760  -2
  12   3  12 -1.9249 4.23760   1
  13   4   8 -1.1101 1.62446  -2
 -13   4  12 -1.1101 1.62446   1
  11   4   9 88.9827 5.26715  -2
 -11   4  12 88.9827 5.26715   1
  10   4   9 174.128 4.23109  -2
 -10   4  12 174.128 4.23109   1
   9   4   9 85.6732 3.99045  -2
  -9   4  12 85.6732 3.99045   1
   7   4  10 87.6854 4.83700  -2
  -7   4  12 87.6854 4.83700   1
   6   4  10 351.876 13.2340  -2
  -6   4  12 351.876 13.2340   1
   5   4  11 544.342 26.7458  -2
  -5   4  12 544.342 26.7458   1
   4   4  11 41.9792 2.67582  -2
  -4   4  12 41.9792 2.67582   1
   3   4  11 2.35393 2.01602  -2
  -3   4  12 2.35393 2.01602   1
   2   4  11 186.915 10.8440  -2
  -2   4  12 186.915 10.8440   1
   1   4  12 416.961 10.4816  -2
  -1   4  12 416.961 10.4816   1
   0   4  12 17.3139 1.25905  -2
   0   4  12 17.3139 1.25905   1
  -1   4  12 390.863 10.0535  -2
   1   4  12 390.863 10.0535   1
  -2   4  13 5.14505 2.29672  -2
   2   4  12 5.14505 2.29672   1
  -3   4  13 30.4678 1.78232  -2
   3   4  12 30.4678 1.78232   1
  -4   4  13 27.4449 2.18896  -2
   4   4  12 27.4449 2.18896   1
  -5   4  13 115.701 7.71478  -2
   5   4  12 115.701 7.71478   1
  -6   4  14 88.7037 3.71955  -2
   6   4  12 88.7037 3.71955   1
  -7   4  14 62.1037 3.11669  -2
   7   4  12 62.1037 3.11669   1
  -8   4  14 133.020 6.92437  -2
   8   4  12 133.020 6.92437   1
  -9   4  15 74.1605 3.82885  -2
   9   4  12 74.1605 3.82885   1
 -10   4  15 95.8176 3.28179  -2
  10   4  12 95.8176 3.28179   1
 -11   4  15 16.7582 6.02943  -2
  11   4  12 16.7582 6.02943   1
 -12   4  16 8.06737 4.59537  -2
  12   4  12 8.06737 4.59537   1
  13   5   8 24.1849 1.81418  -2
 -13   5  12 24.1849 1.81418   1
 -12   5  12 3.22324 3.31048   1
  11   5   9 7.01186 3.39445  -2
 -11   5  12 7.01186 3.39445   1
  10   5   9 46.9842 2.24539  -2
 -10   5  12 46.9842 2.24539   1
   9   5   9 86.2706 4.46026  -2
  -9   5  12 86.2706 4.46026   1
   7   5  10 149.672 6.88858  -2
  -7   5  12 149.672 6.88858   1
   6   5  10 146.270 6.86751  -2
  -6   5  12 146.270 6.86751   1
  -5   5  12 262.817 13.9789   1
   4   5  11 280.455 8.78547  -2
  -4   5  12 280.455 8.78547   1
   3   5  11 82.9809 3.59863  -2
  -3   5  12 82.9809 3.59863   1
   2   5  11 1315.47 44.6123  -2
  -2   5  12 1315.47 44.6123   1
   1   5  12 31.5923 2.43034  -2
  -1   5  12 31.5923 2.43034   1
   0   5  12 2.28799 1.01853  -2
   0   5  12 2.28799 1.01853   1
  -1   5  12 30.5798 1.88149  -2
   1   5  12 30.5798 1.88149   1
  -2   5  13 502.109 17.6323  -2
   2   5  12 502.109 17.6323   1
  -3   5  13 21.2454 2.15213  -2
   3   5  12 21.2454 2.15213   1
  -4   5  13 583.029 17.4110  -2
   4   5  12 583.029 17.4110   1
   5   5  12 6.07506 1.62490   1
  -6   5  14 154.168 7.80680  -2
   6   5  12 154.168 7.80680   1
  -7   5  14 210.821 7.52846  -2
   7   5  12 210.821 7.52846   1
  -8   5  14 70.8672 4.99319  -2
   8   5  12 70.8672 4.99319   1
  -9   5  15 160.001 5.12692  -2
   9   5  12 160.001 5.12692   1
 -10   5  15 18.8464 2.82961  -2
  10   5  12 18.8464 2.82961   1
 -11   5  15 15.5934 5.71259  -2
  11   5  12 15.5934 5.71259   1
 -12   5  16 38.8221 5.10300  -2
  12   5  12 38.8221 5.10300   1
  13   6   8 37.5028 2.16315  -2
 -13   6  12 37.5028 2.16315   1
  11   6   9 37.4946 3.93397  -2
 -11   6  12 37.4946 3.93397   1
  10   6   9 58.9260 2.62659  -2
 -10   6  12 58.9260 2.62659   1
   9   6   9 1.99782 3.29313  -2
  -9   6  12 1.99782 3.29313   1
   8   6  10 40.9785 7.09948  -2
  -8   6  12 40.9785 7.09948   1
   7   6  10 164.260 10.4476  -2
  -7   6  12 164.260 10.4476   1
   6   6  10 574.383 20.6781  -2
  -6   6  12 574.383 20.6781   1
   5   6  11 45.6318 6.68229  -2
  -5   6  12 45.6318 6.68229   1
   4   6  11 272.067 8.66629  -2
  -4   6  12 272.067 8.66629   1
   3   6  11 300.378 9.25119  -2
  -3   6  12 300.378 9.25119   1
   2   6  11 208.469 11.9040  -2
  -2   6  12 208.469 11.9040   1
   1   6  12 259.707 8.07961  -2
  -1   6  12 259.707 8.07961   1
   0   6  12 93.9479 3.63444  -2
   0   6  12 93.9479 3.63444   1
  -1   6  12 264.448 8.64622  -2
   1   6  12 264.448 8.64622   1
  -2   6  13 139.254 6.02811  -2
   2   6  12 139.254 6.02811   1
  -3   6  13 289.093 9.20098  -2
   3   6  12 289.093 9.20098   1
  -4   6  13 57.4626 3.12654  -2
   4   6  12 57.4626 3.12654   1
   5   6  12 25.1993 5.04234   1
  -6   6  14 297.082 10.0863  -2
   6   6  12 297.082 10.0863   1
  -7   6  14 369.550 11.7577  -2
   7   6  12 369.550 11.7577   1
  -8   6  14 30.5353 6.43468  -2
   8   6  12 30.5353 6.43468   1
  -9   6  15 71.2820 3.60993  -2
   9   6  12 71.2820 3.60993   1
 -10   6  15 32.3822 3.05131  -2
  10   6  12 32.3822 3.05131   1
 -11   6  15 48.0995 6.20437  -2
  11   6  12 48.0995 6.20437   1
 -12   6  16 15.4750 4.12080  -2
  12   6  12 15.4750 4.12080   1
  11   7   9 91.9405 6.65730  -2
 -11   7  12 91.9405 6.65730   1
  10   7   9 84.3827 3.04684  -2
 -10   7  12 84.3827 3.04684   1
   9   7   9 15.7009 3.30866  -2
  -9   7  12 15.7009 3.30866   1
   7   7  10 36.3089 4.15684  -2
  -7   7  12 36.3089 4.15684   1
   6   7  10 157.614 6.02645  -2
  -6   7  12 157.614 6.02645   1
  -5   7  12 72.6312 5.89928   1
   4   7  11 630.366 18.4060  -2
  -4   7  12 630.366 18.4060   1
   3   7  11 14.9809 2.23153  -2
  -3   7  12 14.9809 2.23153   1
   2   7  11 18.8148 3.21838  -2
  -2   7  12 18.8148 3.21838   1
   1   7  12 448.603 16.6332  -2
  -1   7  12 448.603 16.6332   1
   0   7  12 0.44414 1.65978  -2
   0   7  12 0.44414 1.65978   1
  -1   7  12 423.280 11.4669  -2
   1   7  12 423.280 11.4669   1
  -2   7  13 188.852 8.02607  -2
   2   7  12 188.852 8.02607   1
  -3   7  13 37.6169 2.70005  -2
   3   7  12 37.6169 2.70005   1
  -4   7  13 480.515 18.2527  -2
   4   7  12 480.515 18.2527   1
   5   7  12 52.5301 6.06928   1
  -6   7  14 48.0710 4.13549  -2
   6   7  12 48.0710 4.13549   1
  -7   7  14 93.1748 3.53585  -2
   7   7  12 93.1748 3.53585   1
  -8   7  14 31.3717 4.87570  -2
   8   7  12 31.3717 4.87570   1
  -9   7  15 96.4371 4.02197  -2
   9   7  12 96.4371 4.02197   1
 -10   7  15 10.4205 2.02550  -2
  10   7  12 10.4205 2.02550   1
 -11   7  15 -6.3658 5.66464  -2
  11   7  12 -6.3658 5.66464   1
 -12   7  16 37.1619 4.81623  -2
  12   7  12 37.1619 4.81623   1
  11   8   9 57.6816 3.29747  -2
 -11   8  12 57.6816 3.29747   1
  10   8   9 129.188 3.97192  -2
 -10   8  12 129.188 3.97192   1
   9   8   9 62.7606 4.89233  -2
  -9   8  12 62.7606 4.89233   1
   7   8  10 389.639 8.94496  -2
  -7   8  12 389.639 8.94496   1
   6   8  10 189.763 8.48094  -2
  -6   8  12 189.763 8.48094   1
   4   8  11 15.4319 2.68917  -2
  -4   8  12 15.4319 2.68917   1
   3   8  11 25.2262 2.36270  -2
  -3   8  12 25.2262 2.36270   1
   2   8  11 552.798 28.7604  -2
  -2   8  12 552.798 28.7604   1
   1   8  12 12.4702 2.37992  -2
  -1   8  12 12.4702 2.37992   1
   0   8  12 216.513 7.10813  -2
   0   8  12 216.513 7.10813   1
  -1   8  12 15.0030 2.38632  -2
   1   8  12 15.0030 2.38632   1
  -2   8  13 92.5979 5.05176  -2
   2   8  12 92.5979 5.05176   1
  -3   8  13 59.2494 2.67970  -2
   3   8  12 59.2494 2.67970   1
  -4   8  13 7.00936 2.87711  -2
   4   8  12 7.00936 2.87711   1
   5   8  12 3.62382 4.93256   1
  -6   8  14 16.7773 2.77775  -2
   6   8  12 16.7773 2.77775   1
  -7   8  14 44.7328 2.85916  -2
   7   8  12 44.7328 2.85916   1
  -8   8  14 143.705 10.7988  -2
   8   8  12 143.705 10.7988   1
  -9   8  15 91.5374 3.83577  -2
   9   8  12 91.5374 3.83577   1
 -10   8  15 12.5753 1.75003  -2
  10   8  12 12.5753 1.75003   1
 -11   8  15 17.7485 5.35020  -2
  11   8  12 17.7485 5.35020   1
  12   9   8 40.7065 3.77569  -2
 -12   9  12 40.7065 3.77569   1
  11   9   9 8.89638 3.46967  -2
 -11   9  12 8.89638 3.46967   1
  10   9   9 64.6746 3.17605  -2
 -10   9  12 64.6746 3.17605   1
   9   9   9 38.8043 4.23194  -2
  -9   9  12 38.8043 4.23194   1
   7   9  10 42.2442 2.93870  -2
  -7   9  12 42.2442 2.93870   1
   6   9  10 25.2577 2.73889  -2
  -6   9  12 25.2577 2.73889   1
   4   9  11 189.087 5.27560  -2
  -4   9  12 189.087 5.27560   1
   3   9  11 197.142 6.65806  -2
  -3   9  12 197.142 6.65806   1
   2   9  11 120.231 8.67749  -2
  -2   9  12 120.231 8.67749   1
   1   9  12 237.513 6.77886  -2
  -1   9  12 237.513 6.77886   1
   0   9  12 3.67157 1.41787  -2
   0   9  12 3.67157 1.41787   1
  -1   9  12 236.534 6.77849  -2
   1   9  12 236.534 6.77849   1
  -2   9  13 16.9972 2.82881  -2
   2   9  12 16.9972 2.82881   1
  -3   9  13 198.037 5.43317  -2
   3   9  12 198.037 5.43317   1
  -4   9  13 218.986 6.96973  -2
   4   9  12 218.986 6.96973   1
   5   9  12 45.4781 5.66407   1
  -6   9  14 6.59688 3.06275  -2
   6   9  12 6.59688 3.06275   1
  -7   9  14 29.5227 2.95376  -2
   7   9  12 29.5227 2.95376   1
  -9   9  15 25.5662 2.75696  -2
   9   9  12 25.5662 2.75696   1
 -10   9  15 -1.6506 1.65313  -2
  10   9  12 -1.6506 1.65313   1
  11  10   9 26.3931 3.69872  -2
 -11  10  12 26.3931 3.69872   1
  10  10   9 29.8364 2.30270  -2
 -10  10  12 29.8364 2.30270   1
   9  10   9 5.50677 3.35019  -2
  -9  10  12 5.50677 3.35019   1
   7  10  10 61.6984 3.69152  -2
  -7  10  12 61.6984 3.69152   1
   6  10  10 13.2933 2.97700  -2
  -6  10  12 13.2933 2.97700   1
  -5  10  12 8.58228 2.71481   1
   4  10  11 208.189 5.14966  -2
  -4  10  12 208.189 5.14966   1
   3  10  11 188.665 5.09966  -2
  -3  10  12 188.665 5.09966   1
   2  10  11 4.30804 6.29120  -2
  -2  10  12 4.30804 6.29120   1
   1  10  12 11.7137 2.06475  -2
  -1  10  12 11.7137 2.06475   1
   0  10  12 290.499 7.11470  -2
   0  10  12 290.499 7.11470   1
  -1  10  12 9.11884 2.02097  -2
   1  10  12 9.11884 2.02097   1
  -2  10  13 54.2815 3.57404  -2
   2  10  12 54.2815 3.57404   1
  -3  10  13 117.922 4.52962  -2
   3  10  12 117.922 4.52962   1
  -4  10  13 70.9331 3.04894  -2
   4  10  12 70.9331 3.04894   1
   5  10  12 4.11122 2.40963   1
  -6  10  14 95.1436 3.91655  -2
   6  10  12 95.1436 3.91655   1
  -7  10  14 14.6784 2.60720  -2
   7  10  12 14.6784 2.60720   1
  -9  10  15 7.96226 2.67304  -2
   9  10  12 7.96226 2.67304   1
 -10  10  15 27.7908 1.83078  -2
  10  10  12 27.7908 1.83078   1
  10  11   9 54.0755 2.55845  -2
 -10  11  12 54.0755 2.55845   1
   9  11   9 57.3448 3.93680  -2
  -9  11  12 57.3448 3.93680   1
   7  11  10 11.8584 2.55062  -2
  -7  11  12 11.8584 2.55062   1
   6  11  10 37.0401 3.13651  -2
  -6  11  12 37.0401 3.13651   1
   4  11  11 1.89041 2.04492  -2
  -4  11  12 1.89041 2.04492   1
   3  11  11 102.196 2.84097  -2
  -3  11  12 102.196 2.84097   1
   2  11  11 338.320 9.20152  -2
  -2  11  12 338.320 9.20152   1
   1  11  12 24.9583 2.35487  -2
  -1  11  12 24.9583 2.35487   1
   0  11  12 57.1342 1.85701  -2
   0  11  12 57.1342 1.85701   1
  -1  11  12 31.7320 2.15834  -2
   1  11  12 31.7320 2.15834   1
  -2  11  13 66.4996 2.96309  -2
   2  11  12 66.4996 2.96309   1
  -3  11  13 1.60129 1.90460  -2
   3  11  12 1.60129 1.90460   1
  -4  11  13 0.56943 2.26151  -2
   4  11  12 0.56943 2.26151   1
  -5  11  14 23.3285 4.59176  -2
   5  11  12 23.3285 4.59176   1
  -6  11  14 64.5852 2.64636  -2
   6  11  12 64.5852 2.64636   1
  -7  11  14 32.9987 3.08693  -2
   7  11  12 32.9987 3.08693   1
  -9  11  15 9.07074 2.66458  -2
   9  11  12 9.07074 2.66458   1
 -10  11  15 28.7957 1.65384  -2
  10  11  12 28.7957 1.65384   1
  10  12   9 26.0667 1.76141  -2
 -10  12  12 26.0667 1.76141   1
   9  12   9 28.1752 2.86990  -2
  -9  12  12 28.1752 2.86990   1
   7  12  10 72.6805 3.21319  -2
  -7  12  12 72.6805 3.21319   1
   6  12  10 41.5397 3.54685  -2
  -6  12  12 41.5397 3.54685   1
   4  12  11 18.0841 5.77976  -2
  -4  12  12 18.0841 5.77976   1
   3  12  11 158.269 5.14989  -2
  -3  12  12 158.269 5.14989   1
   2  12  11 213.321 9.44805  -2
  -2  12  12 213.321 9.44805   1
   1  12  12 179.955 5.77094  -2
  -1  12  12 179.955 5.77094   1
   0  12  12 213.007 4.66661  -2
   0  12  12 213.007 4.66661   1
  -1  12  12 185.972 4.21162  -2
   1  12  12 185.972 4.21162   1
  -2  12  13 142.706 3.81201  -2
   2  12  12 142.706 3.81201   1
  -3  12  13 29.0148 1.97035  -2
   3  12  12 29.0148 1.97035   1
  -4  12  13 42.8700 2.55687  -2
   4  12  12 42.8700 2.55687   1
  -5  12  14 39.9701 4.69560  -2
   5  12  12 39.9701 4.69560   1
  -6  12  14 85.0237 3.70847  -2
   6  12  12 85.0237 3.70847   1
  -7  12  14 14.5047 2.22379  -2
   7  12  12 14.5047 2.22379   1
  -9  12  15 14.8712 2.34192  -2
   9  12  12 14.8712 2.34192   1
   9  13   9 107.264 6.58057  -2
  -9  13  12 107.264 6.58057   1
   7  13  10 23.8153 3.36579  -2
  -7  13  12 23.8153 3.36579   1
   6  13  10 111.577 4.73809  -2
  -6  13  12 111.577 4.73809   1
   4  13  11 54.1296 4.30589  -2
  -4  13  12 54.1296 4.30589   1
   3  13  11 4.53175 1.90705  -2
  -3  13  12 4.53175 1.90705   1
   2  13  11 13.6671 3.71732  -2
  -2  13  12 13.6671 3.71732   1
   1  13  12 206.383 5.57731  -2
  -1  13  12 206.383 5.57731   1
   0  13  12 2.05207 1.77573  -2
   0  13  12 2.05207 1.77573   1
  -1  13  12 212.965 5.35836  -2
   1  13  12 212.965 5.35836   1
  -2  13  13 27.5625 3.02650  -2
   2  13  12 27.5625 3.02650   1
  -3  13  13 2.67503 1.60997  -2
   3  13  12 2.67503 1.60997   1
  -4  13  13 140.566 3.91493  -2
   4  13  12 140.566 3.91493   1
  -5  13  14 13.6098 6.07175  -2
   5  13  12 13.6098 6.07175   1
  -6  13  14 49.1314 2.79721  -2
   6  13  12 49.1314 2.79721   1
  -7  13  14 32.4543 2.42560  -2
   7  13  12 32.4543 2.42560   1
  -8  13  14 131.069 8.09089  -2
   8  13  12 131.069 8.09089   1
   7  14  10 50.6082 3.45855  -2
  -7  14  12 50.6082 3.45855   1
   6  14  10 28.4719 2.94123  -2
  -6  14  12 28.4719 2.94123   1
   4  14  11 36.7032 2.80728  -2
  -4  14  12 36.7032 2.80728   1
   3  14  11 3.75177 1.89083  -2
  -3  14  12 3.75177 1.89083   1
   2  14  11 0.39860 3.26336  -2
  -2  14  12 0.39860 3.26336   1
   1  14  12 19.4329 2.72063  -2
  -1  14  12 19.4329 2.72063   1
   0  14  12 145.654 3.82992  -2
   0  14  12 145.654 3.82992   1
  -1  14  12 20.6507 2.92928  -2
   1  14  12 20.6507 2.92928   1
  -2  14  13 8.52527 2.84962  -2
   2  14  12 8.52527 2.84962   1
  -3  14  13 23.5510 2.21432  -2
   3  14  12 23.5510 2.21432   1
  -4  14  13 17.1124 2.58701  -2
   4  14  12 17.1124 2.58701   1
  -5  14  14 17.8927 6.08252  -2
   5  14  12 17.8927 6.08252   1
  -6  14  14 13.6158 2.13702  -2
   6  14  12 13.6158 2.13702   1
  -7  14  14 13.3498 1.80004  -2
   7  14  12 13.3498 1.80004   1
   7  15  10 7.29706 2.66807  -2
  -7  15  12 7.29706 2.66807   1
   6  15  10 50.9919 3.15073  -2
  -6  15  12 50.9919 3.15073   1
   4  15  11 42.3726 3.25156  -2
  -4  15  12 42.3726 3.25156   1
   3  15  11 150.037 5.69178  -2
  -3  15  12 150.037 5.69178   1
   2  15  11 9.18689 5.67505  -2
  -2  15  12 9.18689 5.67505   1
   1  15  12 23.6355 2.70704  -2
  -1  15  12 23.6355 2.70704   1
   0  15  12 12.0865 1.44027  -2
   0  15  12 12.0865 1.44027   1
  -1  15  12 18.0616 2.55623  -2
   1  15  12 18.0616 2.55623   1
  -2  15  13 37.5807 2.83131  -2
   2  15  12 37.5807 2.83131   1
  -3  15  13 84.6200 2.93337  -2
   3  15  12 84.6200 2.93337   1
  -4  15  13 14.8252 2.82178  -2
   4  15  12 14.8252 2.82178   1
  -5  15  14 38.2930 5.60651  -2
   5  15  12 38.2930 5.60651   1
  -6  15  14 65.9386 3.44052  -2
   6  15  12 65.9386 3.44052   1
   4  16  11 7.43714 2.69662  -2
  -4  16  12 7.43714 2.69662   1
   3  16  11 30.6643 2.40279  -2
  -3  16  12 30.6643 2.40279   1
   2  16  11 39.5229 5.55721  -2
  -2  16  12 39.5229 5.55721   1
   1  16  12 15.6013 2.72527  -2
  -1  16  12 15.6013 2.72527   1
   0  16  12 3.64115 1.81738  -2
   0  16  12 3.64115 1.81738   1
  -1  16  12 12.3767 2.59192  -2
   1  16  12 12.3767 2.59192   1
  -2  16  13 7.73919 2.58466  -2
   2  16  12 7.73919 2.58466   1
  -3  16  13 30.6264 2.20224  -2
   3  16  12 30.6264 2.20224   1
  -4  16  13 7.62517 2.58736  -2
   4  16  12 7.62517 2.58736   1
   3  17  11 26.1837 2.43215  -2
  -3  17  12 26.1837 2.43215   1
   2  17  11 20.7206 4.08899  -2
  -2  17  12 20.7206 4.08899   1
   1  17  12 12.8554 2.98744  -2
  -1  17  12 12.8554 2.98744   1
   0  17  12 18.7543 3.31267  -2
   0  17  12 18.7543 3.31267   1
  -1  17  12 14.2420 3.63759  -2
   1  17  12 14.2420 3.63759   1
  13   0   9 0.84419 1.71288  -2
 -13   0  13 0.84419 1.71288   1
  11   0  10 12.9633 6.06296  -2
 -11   0  13 12.9633 6.06296   1
  10   0  10 4.10694 2.25787  -2
 -10   0  13 4.10694 2.25787   1
   9   0  10 59.3459 7.40903  -2
  -9   0  13 59.3459 7.40903   1
   8   0  11 17.4250 4.35174  -2
  -8   0  13 17.4250 4.35174   1
   7   0  11 35.3179 3.28792  -2
  -7   0  13 35.3179 3.28792   1
   6   0  11 124.162 6.10238  -2
  -6   0  13 124.162 6.10238   1
   5   0  12 672.278 34.6351  -2
  -5   0  13 672.278 34.6351   1
   4   0  12 40.5984 3.26645  -2
  -4   0  13 40.5984 3.26645   1
   3   0  12 326.795 16.2729  -2
  -3   0  13 326.795 16.2729   1
  -2   0  13 0.19714 1.25315   1
   1   0  13 -0.5568 2.45203  -2
  -1   0  13 -0.5568 2.45203   1
   0   0  13 1.79027 1.57378  -2
   0   0  13 1.79027 1.57378   1
  -1   0  13 -0.0901 2.32027  -2
   1   0  13 -0.0901 2.32027   1
   2   0  13 1.69442 1.31135   1
  -3   0  14 29.5615 2.84468  -2
   3   0  13 29.5615 2.84468   1
  -4   0  14 3.35948 2.31162  -2
   4   0  13 3.35948 2.31162   1
  -6   0  15 3.24959 2.79388  -2
   6   0  13 3.24959 2.79388   1
  -7   0  15 7.83684 2.51303  -2
   7   0  13 7.83684 2.51303   1
  -8   0  15 -10.225 5.26568  -2
   8   0  13 -10.225 5.26568   1
  -9   0  16 65.4271 7.13214  -2
   9   0  13 65.4271 7.13214   1
 -10   0  16 -2.5294 4.51852  -2
  10   0  13 -2.5294 4.51852   1
 -11   0  16 11.1157 5.34376  -2
  11   0  13 11.1157 5.34376   1
  13   1   9 14.5000 1.51055  -2
 -13   1  13 14.5000 1.51055   1
  11   1  10 16.1838 4.26399  -2
 -11   1  13 16.1838 4.26399   1
  10   1  10 172.408 3.90822  -2
 -10   1  13 172.408 3.90822   1
   9   1  10 24.6691 4.47088  -2
  -9   1  13 24.6691 4.47088   1
   8   1  11 26.4022 6.02860  -2
  -8   1  13 26.4022 6.02860   1
   7   1  11 355.076 10.7809  -2
  -7   1  13 355.076 10.7809   1
   6   1  11 537.813 15.5664  -2
  -6   1  13 537.813 15.5664   1
  -5   1  13 4.21596 1.61928   1
   4   1  12 401.541 11.7009  -2
  -4   1  13 401.541 11.7009   1
   3   1  12 122.834 4.36522  -2
  -3   1  13 122.834 4.36522   1
   2   1  12 210.039 12.0984  -2
  -2   1  13 210.039 12.0984   1
   1   1  13 9.43804 1.75734  -2
  -1   1  13 9.43804 1.75734   1
   0   1  13 3.86531 1.24268  -2
   0   1  13 3.86531 1.24268   1
  -1   1  13 8.98266 1.85379  -2
   1   1  13 8.98266 1.85379   1
  -2   1  14 21.8814 2.43519  -2
   2   1  13 21.8814 2.43519   1
  -3   1  14 78.2097 2.65462  -2
   3   1  13 78.2097 2.65462   1
  -4   1  14 172.935 4.66769  -2
   4   1  13 172.935 4.66769   1
  -6   1  15 419.738 9.35816  -2
   6   1  13 419.738 9.35816   1
  -7   1  15 34.6316 2.31767  -2
   7   1  13 34.6316 2.31767   1
  -8   1  15 158.268 7.59388  -2
   8   1  13 158.268 7.59388   1
  -9   1  16 115.170 5.89160  -2
   9   1  13 115.170 5.89160   1
 -10   1  16 53.2459 3.65579  -2
  10   1  13 53.2459 3.65579   1
 -11   1  16 -2.4711 5.53027  -2
  11   1  13 -2.4711 5.53027   1
 -12   1  17 69.6319 4.49470  -2
  12   1  13 69.6319 4.49470   1
 -13   1  17 1.12978 2.84127  -2
  13   1  13 1.12978 2.84127   1
  13   2   9 31.2078 1.93836  -2
 -13   2  13 31.2078 1.93836   1
  11   2  10 -3.4135 2.99856  -2
 -11   2  13 -3.4135 2.99856   1
  10   2  10 48.0699 2.08597  -2
 -10   2  13 48.0699 2.08597   1
   9   2  10 198.404 7.13595  -2
  -9   2  13 198.404 7.13595   1
   8   2  11 88.9500 8.14162  -2
  -8   2  13 88.9500 8.14162   1
   7   2  11 357.324 13.4723  -2
  -7   2  13 357.324 13.4723   1
   6   2  11 131.131 6.31134  -2
  -6   2  13 131.131 6.31134   1
  -5   2  13 149.898 6.17551   1
   4   2  12 439.380 12.7030  -2
  -4   2  13 439.380 12.7030   1
   3   2  12 622.766 15.2894  -2
  -3   2  13 622.766 15.2894   1
   2   2  12 98.4903 7.13658  -2
  -2   2  13 98.4903 7.13658   1
   1   2  13 86.7066 3.52396  -2
  -1   2  13 86.7066 3.52396   1
   0   2  13 572.083 12.7923  -2
   0   2  13 572.083 12.7923   1
  -1   2  13 86.4593 3.09996  -2
   1   2  13 86.4593 3.09996   1
  -2   2  14 215.448 8.50206  -2
   2   2  13 215.448 8.50206   1
  -3   2  14 143.518 3.94739  -2
   3   2  13 143.518 3.94739   1
  -4   2  14 22.6048 1.89882  -2
   4   2  13 22.6048 1.89882   1
  -5   2  14 180.376 11.2443  -2
   5   2  13 180.376 11.2443   1
  -6   2  15 51.0211 2.57137  -2
   6   2  13 51.0211 2.57137   1
  -7   2  15 62.2150 2.80471  -2
   7   2  13 62.2150 2.80471   1
  -8   2  15 18.3077 3.18033  -2
   8   2  13 18.3077 3.18033   1
  -9   2  16 -1.2170 3.49721  -2
   9   2  13 -1.2170 3.49721   1
 -10   2  16 16.5626 2.75783  -2
  10   2  13 16.5626 2.75783   1
 -11   2  16 11.9443 5.54917  -2
  11   2  13 11.9443 5.54917   1
 -11   2  17 24.9527 7.06808  -2
  11   2  13 24.9527 7.06808   1
 -12   2  17 96.5792 7.23352  -2
  12   2  13 96.5792 7.23352   1
 -13   2  17 1.90671 3.36275  -2
  13   2  13 1.90671 3.36275   1
  13   3   9 16.9749 1.73168  -2
 -13   3  13 16.9749 1.73168   1
  11   3  10 34.0897 2.73970  -2
 -11   3  13 34.0897 2.73970   1
  10   3  10 14.4530 1.59167  -2
 -10   3  13 14.4530 1.59167   1
   9   3  10 118.193 4.57460  -2
  -9   3  13 118.193 4.57460   1
   8   3  11 61.8813 7.22000  -2
  -8   3  13 61.8813 7.22000   1
   7   3  11 90.4003 4.99798  -2
  -7   3  13 90.4003 4.99798   1
   6   3  11 370.731 13.8788  -2
  -6   3  13 370.731 13.8788   1
  -5   3  13 1082.38 50.7273   1
   4   3  12 129.294 4.63471  -2
  -4   3  13 129.294 4.63471   1
   3   3  12 321.108 8.30738  -2
  -3   3  13 321.108 8.30738   1
  -2   3  13 23.1877 2.24752   1
   1   3  13 245.636 6.02426  -2
  -1   3  13 245.636 6.02426   1
   0   3  13 83.4850 2.80622  -2
   0   3  13 83.4850 2.80622   1
  -1   3  13 234.337 5.77015  -2
   1   3  13 234.337 5.77015   1
  -2   3  14 261.830 7.31373  -2
   2   3  13 261.830 7.31373   1
  -3   3  14 547.335 12.4417  -2
   3   3  13 547.335 12.4417   1
  -4   3  14 547.370 12.5310  -2
   4   3  13 547.370 12.5310   1
  -5   3  14 304.717 16.6099  -2
   5   3  13 304.717 16.6099   1
  -6   3  15 106.208 4.17755  -2
   6   3  13 106.208 4.17755   1
  -7   3  15 41.9841 2.67383  -2
   7   3  13 41.9841 2.67383   1
  -8   3  15 247.825 8.26410  -2
   8   3  13 247.825 8.26410   1
  -9   3  16 5.60701 3.02203  -2
   9   3  13 5.60701 3.02203   1
 -10   3  16 54.0715 2.97775  -2
  10   3  13 54.0715 2.97775   1
 -11   3  16 13.4842 5.63514  -2
  11   3  13 13.4842 5.63514   1
 -12   3  17 2.87421 4.26309  -2
  12   3  13 2.87421 4.26309   1
  13   4   9 5.67189 1.65500  -2
 -13   4  13 5.67189 1.65500   1
  12   4   9 122.713 8.45950  -2
 -12   4  13 122.713 8.45950   1
  11   4  10 29.6997 3.96292  -2
 -11   4  13 29.6997 3.96292   1
  10   4  10 210.323 4.46917  -2
 -10   4  13 210.323 4.46917   1
   9   4  10 84.7550 3.94022  -2
  -9   4  13 84.7550 3.94022   1
   7   4  11 446.379 16.5381  -2
  -7   4  13 446.379 16.5381   1
   6   4  11 223.149 9.26865  -2
  -6   4  13 223.149 9.26865   1
  -5   4  13 19.9578 3.64403   1
   4   4  12 39.2756 3.43476  -2
  -4   4  13 39.2756 3.43476   1
   3   4  12 33.1795 2.52679  -2
  -3   4  13 33.1795 2.52679   1
  -2   4  13 1.53918 1.44356   1
   1   4  13 141.748 4.28478  -2
  -1   4  13 141.748 4.28478   1
   0   4  13 43.2944 1.78447  -2
   0   4  13 43.2944 1.78447   1
  -1   4  13 139.053 4.31228  -2
   1   4  13 139.053 4.31228   1
  -2   4  14 32.5666 2.42521  -2
   2   4  13 32.5666 2.42521   1
  -3   4  14 5.85849 1.65026  -2
   3   4  13 5.85849 1.65026   1
  -4   4  14 115.780 4.03768  -2
   4   4  13 115.780 4.03768   1
  -5   4  14 156.544 9.63656  -2
   5   4  13 156.544 9.63656   1
  -6   4  15 262.091 7.73999  -2
   6   4  13 262.091 7.73999   1
  -7   4  15 289.994 8.42156  -2
   7   4  13 289.994 8.42156   1
  -8   4  15 67.5414 4.38315  -2
   8   4  13 67.5414 4.38315   1
  -9   4  16 62.9514 3.66666  -2
   9   4  13 62.9514 3.66666   1
 -10   4  16 13.8567 1.81438  -2
  10   4  13 13.8567 1.81438   1
 -11   4  16 8.85380 5.39442  -2
  11   4  13 8.85380 5.39442   1
 -12   4  17 43.3884 3.78455  -2
  12   4  13 43.3884 3.78455   1
  13   5   9 9.17295 1.37353  -2
 -13   5  13 9.17295 1.37353   1
  12   5   9 43.6586 5.85897  -2
 -12   5  13 43.6586 5.85897   1
  11   5  10 47.6215 3.36578  -2
 -11   5  13 47.6215 3.36578   1
  10   5  10 11.9496 1.76449  -2
 -10   5  13 11.9496 1.76449   1
   9   5  10 82.1079 4.46521  -2
  -9   5  13 82.1079 4.46521   1
   7   5  11 17.9220 4.63368  -2
  -7   5  13 17.9220 4.63368   1
   6   5  11 52.2943 4.37042  -2
  -6   5  13 52.2943 4.37042   1
  -5   5  13 25.2663 4.12578   1
   4   5  12 614.524 17.8840  -2
  -4   5  13 614.524 17.8840   1
   3   5  12 23.0800 2.38089  -2
  -3   5  13 23.0800 2.38089   1
   2   5  12 546.074 19.2873  -2
  -2   5  13 546.074 19.2873   1
   1   5  13 317.867 9.65887  -2
  -1   5  13 317.867 9.65887   1
   0   5  13 76.6229 2.41012  -2
   0   5  13 76.6229 2.41012   1
  -1   5  13 311.975 8.30273  -2
   1   5  13 311.975 8.30273   1
  -2   5  14 4.27999 4.31406  -2
   2   5  13 4.27999 4.31406   1
  -3   5  14 86.2939 3.68036  -2
   3   5  13 86.2939 3.68036   1
  -4   5  14 667.696 19.8446  -2
   4   5  13 667.696 19.8446   1
   5   5  13 52.6398 3.59979   1
  -6   5  15 104.781 4.27474  -2
   6   5  13 104.781 4.27474   1
  -7   5  15 107.344 4.78158  -2
   7   5  13 107.344 4.78158   1
  -8   5  15 79.3270 5.52361  -2
   8   5  13 79.3270 5.52361   1
  -9   5  16 26.5310 3.69020  -2
   9   5  13 26.5310 3.69020   1
 -10   5  16 53.4374 3.42908  -2
  10   5  13 53.4374 3.42908   1
 -11   5  16 32.6090 6.57864  -2
  11   5  13 32.6090 6.57864   1
 -12   5  17 23.5446 3.23058  -2
  12   5  13 23.5446 3.23058   1
  13   6   9 9.07066 1.65331  -2
 -13   6  13 9.07066 1.65331   1
 -12   6  13 3.11621 2.13771   1
  11   6  10 11.1447 2.78892  -2
 -11   6  13 11.1447 2.78892   1
  10   6  10 6.37377 1.70745  -2
 -10   6  13 6.37377 1.70745   1
   9   6  10 67.1519 4.17223  -2
  -9   6  13 67.1519 4.17223   1
   8   6  11 36.8728 7.13740  -2
  -8   6  13 36.8728 7.13740   1
   7   6  11 16.9697 4.66137  -2
  -7   6  13 16.9697 4.66137   1
   6   6  11 113.432 6.22688  -2
  -6   6  13 113.432 6.22688   1
  -5   6  13 36.3226 5.11594   1
   4   6  12 59.0982 3.33584  -2
  -4   6  13 59.0982 3.33584   1
   3   6  12 324.225 9.97840  -2
  -3   6  13 324.225 9.97840   1
   2   6  12 150.045 9.41329  -2
  -2   6  13 150.045 9.41329   1
   1   6  13 59.1387 3.10230  -2
  -1   6  13 59.1387 3.10230   1
   0   6  13 25.9878 2.36093  -2
   0   6  13 25.9878 2.36093   1
  -1   6  13 57.6213 3.86157  -2
   1   6  13 57.6213 3.86157   1
  -2   6  14 188.778 7.70148  -2
   2   6  13 188.778 7.70148   1
  -3   6  14 66.7515 3.23635  -2
   3   6  13 66.7515 3.23635   1
  -4   6  14 30.9485 2.72598  -2
   4   6  13 30.9485 2.72598   1
  -5   6  14 109.735 7.43726  -2
   5   6  13 109.735 7.43726   1
  -6   6  15 20.9996 4.18327  -2
   6   6  13 20.9996 4.18327   1
  -7   6  15 162.579 4.60679  -2
   7   6  13 162.579 4.60679   1
   8   6  13 5.65437 3.88696   1
  -9   6  16 58.9286 3.38015  -2
   9   6  13 58.9286 3.38015   1
 -10   6  16 -0.7293 2.44087  -2
  10   6  13 -0.7293 2.44087   1
 -11   6  16 10.7511 5.83697  -2
  11   6  13 10.7511 5.83697   1
 -12   6  17 1.79283 4.28617  -2
  12   6  13 1.79283 4.28617   1
  12   7   9 25.4114 3.22270  -2
 -12   7  13 25.4114 3.22270   1
  11   7  10 25.9692 3.58701  -2
 -11   7  13 25.9692 3.58701   1
  10   7  10 64.4129 2.89365  -2
 -10   7  13 64.4129 2.89365   1
   9   7  10 131.731 5.41175  -2
  -9   7  13 131.731 5.41175   1
   7   7  11 7.59241 2.32988  -2
  -7   7  13 7.59241 2.32988   1
   6   7  11 66.3658 4.90774  -2
  -6   7  13 66.3658 4.90774   1
  -5   7  13 49.4497 5.76008   1
   4   7  12 498.230 14.8581  -2
  -4   7  13 498.230 14.8581   1
   3   7  12 43.7391 2.91291  -2
  -3   7  13 43.7391 2.91291   1
   2   7  12 189.578 8.13463  -2
  -2   7  13 189.578 8.13463   1
   1   7  13 132.579 6.14316  -2
  -1   7  13 132.579 6.14316   1
   0   7  13 12.6719 2.06293  -2
   0   7  13 12.6719 2.06293   1
  -1   7  13 115.530 4.69389  -2
   1   7  13 115.530 4.69389   1
  -2   7  14 174.239 6.64317  -2
   2   7  13 174.239 6.64317   1
  -3   7  14 55.7928 3.22139  -2
   3   7  13 55.7928 3.22139   1
  -4   7  14 634.756 16.9723  -2
   4   7  13 634.756 16.9723   1
  -5   7  15 102.410 10.0702  -2
   5   7  13 102.410 10.0702   1
  -6   7  15 194.096 9.29642  -2
   6   7  13 194.096 9.29642   1
  -7   7  15 45.1207 2.83269  -2
   7   7  13 45.1207 2.83269   1
  -8   7  15 48.6385 7.53223  -2
   8   7  13 48.6385 7.53223   1
  -9   7  16 132.518 4.65205  -2
   9   7  13 132.518 4.65205   1
 -10   7  16 50.6729 3.27249  -2
  10   7  13 50.6729 3.27249   1
 -11   7  16 58.7456 6.48112  -2
  11   7  13 58.7456 6.48112   1
  12   7  13 32.9454 3.64819   1
  11   8  10 16.9937 2.58313  -2
 -11   8  13 16.9937 2.58313   1
  10   8  10 134.376 5.02283  -2
 -10   8  13 134.376 5.02283   1
   9   8  10 9.01925 3.76226  -2
  -9   8  13 9.01925 3.76226   1
   7   8  11 6.38634 2.35797  -2
  -7   8  13 6.38634 2.35797   1
   6   8  11 119.720 5.17515  -2
  -6   8  13 119.720 5.17515   1
  -5   8  13 60.9152 7.81764   1
   4   8  12 13.3229 2.80864  -2
  -4   8  13 13.3229 2.80864   1
   3   8  12 59.7680 2.69240  -2
  -3   8  13 59.7680 2.69240   1
   2   8  12 100.353 7.57443  -2
  -2   8  13 100.353 7.57443   1
   1   8  13 32.9416 2.81994  -2
  -1   8  13 32.9416 2.81994   1
   0   8  13 25.7083 2.07127  -2
   0   8  13 25.7083 2.07127   1
  -1   8  13 39.4153 2.96784  -2
   1   8  13 39.4153 2.96784   1
  -2   8  14 17.7863 3.30770  -2
   2   8  13 17.7863 3.30770   1
  -3   8  14 93.6786 3.40507  -2
   3   8  13 93.6786 3.40507   1
  -4   8  14 67.6512 3.42152  -2
   4   8  13 67.6512 3.42152   1
  -6   8  15 114.682 3.79637  -2
   6   8  13 114.682 3.79637   1
  -7   8  15 158.103 4.68124  -2
   7   8  13 158.103 4.68124   1
  -8   8  15 55.7206 8.14203  -2
   8   8  13 55.7206 8.14203   1
  -9   8  16 99.3905 3.51325  -2
   9   8  13 99.3905 3.51325   1
 -10   8  16 33.9215 1.95638  -2
  10   8  13 33.9215 1.95638   1
 -11   8  16 1.00694 4.88984  -2
  11   8  13 1.00694 4.88984   1
  11   9  10 14.3630 3.55609  -2
 -11   9  13 14.3630 3.55609   1
  10   9  10 25.3177 2.35201  -2
 -10   9  13 25.3177 2.35201   1
   9   9  10 74.1145 4.91692  -2
  -9   9  13 74.1145 4.91692   1
   7   9  11 24.1827 2.73973  -2
  -7   9  13 24.1827 2.73973   1
   6   9  11 39.4570 2.96885  -2
  -6   9  13 39.4570 2.96885   1
   4   9  12 234.623 6.21826  -2
  -4   9  13 234.623 6.21826   1
   3   9  12 206.321 4.90135  -2
  -3   9  13 206.321 4.90135   1
   2   9  12 17.5125 3.51084  -2
  -2   9  13 17.5125 3.51084   1
   1   9  13 9.80550 2.25614  -2
  -1   9  13 9.80550 2.25614   1
   0   9  13 36.7205 2.20642  -2
   0   9  13 36.7205 2.20642   1
  -1   9  13 12.7064 2.27368  -2
   1   9  13 12.7064 2.27368   1
  -2   9  14 76.8459 4.21708  -2
   2   9  13 76.8459 4.21708   1
  -3   9  14 482.133 11.5351  -2
   3   9  13 482.133 11.5351   1
  -4   9  14 77.2151 3.98511  -2
   4   9  13 77.2151 3.98511   1
   5   9  13 30.3716 5.52090   1
  -6   9  15 86.1353 4.15561  -2
   6   9  13 86.1353 4.15561   1
  -7   9  15 91.5118 3.88496  -2
   7   9  13 91.5118 3.88496   1
  -9   9  16 11.5263 2.48900  -2
   9   9  13 11.5263 2.48900   1
 -10   9  16 9.59735 1.67127  -2
  10   9  13 9.59735 1.67127   1
 -11   9  16 6.12825 2.45072  -2
  11   9  13 6.12825 2.45072   1
  11  10  10 23.7001 3.50762  -2
 -11  10  13 23.7001 3.50762   1
  11  10  10 30.9648 4.83359  -2
  11  10   9 30.9648 4.83359  -2
 -11  10  13 30.9648 4.83359   1
  10  10  10 15.3521 2.06236  -2
 -10  10  13 15.3521 2.06236   1
   9  10  10 34.9570 3.11501  -2
  -9  10  13 34.9570 3.11501   1
   7  10  11 188.095 6.43319  -2
  -7  10  13 188.095 6.43319   1
   6  10  11 34.3513 3.24060  -2
  -6  10  13 34.3513 3.24060   1
  -5  10  13 4.79071 2.62521   1
   4  10  12 75.2820 2.71103  -2
  -4  10  13 75.2820 2.71103   1
   3  10  12 120.369 3.83006  -2
  -3  10  13 120.369 3.83006   1
   2  10  12 54.4227 3.33627  -2
  -2  10  13 54.4227 3.33627   1
   1  10  13 104.179 3.57910  -2
  -1  10  13 104.179 3.57910   1
   0  10  13 92.5380 3.09379  -2
   0  10  13 92.5380 3.09379   1
  -1  10  13 102.723 3.57018  -2
   1  10  13 102.723 3.57018   1
  -2  10  14 11.5539 2.96818  -2
   2  10  13 11.5539 2.96818   1
  -3  10  14 117.513 3.28361  -2
   3  10  13 117.513 3.28361   1
  -4  10  14 20.2041 2.18560  -2
   4  10  13 20.2041 2.18560   1
  -5  10  15 118.682 9.92078  -2
  -5  10  14 118.682 9.92078  -2
   5  10  13 118.682 9.92078   1
  -5  10  14 97.5184 9.36509  -2
   5  10  13 97.5184 9.36509   1
  -6  10  15 233.480 6.36245  -2
   6  10  13 233.480 6.36245   1
  -7  10  15 43.7552 3.45240  -2
   7  10  13 43.7552 3.45240   1
  -9  10  16 15.8977 2.40134  -2
   9  10  13 15.8977 2.40134   1
 -10  10  16 8.34604 1.50783  -2
  10  10  13 8.34604 1.50783   1
  10  11  10 42.0239 2.24126  -2
 -10  11  13 42.0239 2.24126   1
   9  11  10 10.7966 2.95783  -2
  -9  11  13 10.7966 2.95783   1
   7  11  11 6.12764 2.39781  -2
  -7  11  13 6.12764 2.39781   1
   6  11  11 74.8790 3.80111  -2
  -6  11  13 74.8790 3.80111   1
   4  11  12 5.99296 2.75186  -2
  -4  11  13 5.99296 2.75186   1
   3  11  12 3.10580 1.49517  -2
  -3  11  13 3.10580 1.49517   1
   2  11  12 65.7918 3.01323  -2
  -2  11  13 65.7918 3.01323   1
   1  11  13 32.8524 2.10375  -2
  -1  11  13 32.8524 2.10375   1
   0  11  13 49.6677 1.76903  -2
   0  11  13 49.6677 1.76903   1
  -1  11  13 33.7939 2.23091  -2
   1  11  13 33.7939 2.23091   1
  -2  11  14 62.9502 2.85359  -2
   2  11  13 62.9502 2.85359   1
  -3  11  14 19.4305 2.00345  -2
   3  11  13 19.4305 2.00345   1
  -4  11  14 0.05611 2.02799  -2
   4  11  13 0.05611 2.02799   1
  -5  11  15 17.1128 4.47372  -2
   5  11  13 17.1128 4.47372   1
  -6  11  15 20.0108 2.35531  -2
   6  11  13 20.0108 2.35531   1
  -7  11  15 19.5116 2.90410  -2
   7  11  13 19.5116 2.90410   1
  -9  11  16 12.3477 2.64903  -2
   9  11  13 12.3477 2.64903   1
 -10  11  16 56.7358 2.35790  -2
  10  11  13 56.7358 2.35790   1
  10  12  10 24.4849 2.19609  -2
 -10  12  13 24.4849 2.19609   1
   9  12  10 54.8649 3.34442  -2
  -9  12  13 54.8649 3.34442   1
   7  12  11 23.0520 2.99050  -2
  -7  12  13 23.0520 2.99050   1
   6  12  11 49.9667 3.70267  -2
  -6  12  13 49.9667 3.70267   1
   4  12  12 49.1856 3.94658  -2
  -4  12  13 49.1856 3.94658   1
   3  12  12 29.8916 1.99519  -2
  -3  12  13 29.8916 1.99519   1
   2  12  12 136.610 5.90596  -2
  -2  12  13 136.610 5.90596   1
   1  12  13 148.376 5.13713  -2
  -1  12  13 148.376 5.13713   1
   0  12  13 220.323 4.84935  -2
   0  12  13 220.323 4.84935   1
  -1  12  13 142.170 3.82020  -2
   1  12  13 142.170 3.82020   1
  -2  12  14 172.967 4.60038  -2
   2  12  13 172.967 4.60038   1
  -3  12  14 213.177 4.77864  -2
   3  12  13 213.177 4.77864   1
  -4  12  14 6.85446 2.12963  -2
   4  12  13 6.85446 2.12963   1
  -5  12  15 4.11249 4.18868  -2
   5  12  13 4.11249 4.18868   1
  -6  12  15 61.5602 3.15093  -2
   6  12  13 61.5602 3.15093   1
  -7  12  15 11.0512 2.09415  -2
   7  12  13 11.0512 2.09415   1
  -9  12  16 24.6206 2.45409  -2
   9  12  13 24.6206 2.45409   1
   9  13  10 60.2472 3.45232  -2
  -9  13  13 60.2472 3.45232   1
   7  13  11 27.1723 2.41410  -2
  -7  13  13 27.1723 2.41410   1
   6  13  11 87.9658 4.15320  -2
  -6  13  13 87.9658 4.15320   1
   4  13  12 141.302 4.75576  -2
  -4  13  13 141.302 4.75576   1
   3  13  12 4.36268 1.87897  -2
  -3  13  13 4.36268 1.87897   1
   2  13  12 31.9198 3.31628  -2
  -2  13  13 31.9198 3.31628   1
   1  13  13 17.7165 3.00610  -2
  -1  13  13 17.7165 3.00610   1
   0  13  13 68.9339 2.64248  -2
   0  13  13 68.9339 2.64248   1
  -1  13  13 14.0713 2.64402  -2
   1  13  13 14.0713 2.64402   1
  -2  13  14 31.0678 2.70112  -2
   2  13  13 31.0678 2.70112   1
  -3  13  14 16.7289 1.72611  -2
   3  13  13 16.7289 1.72611   1
  -4  13  14 -0.2681 2.24086  -2
   4  13  13 -0.2681 2.24086   1
  -5  13  15 67.4833 7.79011  -2
   5  13  13 67.4833 7.79011   1
  -6  13  15 3.34652 2.27590  -2
   6  13  13 3.34652 2.27590   1
  -7  13  15 26.9197 2.24164  -2
   7  13  13 26.9197 2.24164   1
  -8  13  15 10.2995 4.28272  -2
   8  13  13 10.2995 4.28272   1
   7  14  11 33.6742 2.94584  -2
  -7  14  13 33.6742 2.94584   1
   6  14  11 8.40810 1.76683  -2
  -6  14  13 8.40810 1.76683   1
   4  14  12 19.3612 2.50453  -2
  -4  14  13 19.3612 2.50453   1
   3  14  12 25.9157 2.78649  -2
  -3  14  13 25.9157 2.78649   1
   2  14  12 8.39676 3.41463  -2
  -2  14  13 8.39676 3.41463   1
   1  14  13 88.9802 3.40140  -2
  -1  14  13 88.9802 3.40140   1
   0  14  13 1.31061 1.57057  -2
   0  14  13 1.31061 1.57057   1
  -1  14  13 90.2778 3.88679  -2
   1  14  13 90.2778 3.88679   1
  -2  14  14 18.6556 2.89085  -2
   2  14  13 18.6556 2.89085   1
  -3  14  14 11.8935 2.01734  -2
   3  14  13 11.8935 2.01734   1
  -4  14  14 33.0472 2.75592  -2
   4  14  13 33.0472 2.75592   1
  -5  14  15 31.5279 5.90594  -2
   5  14  13 31.5279 5.90594   1
  -6  14  15 8.35589 1.97667  -2
   6  14  13 8.35589 1.97667   1
  -7  14  15 15.4178 1.71328  -2
   7  14  13 15.4178 1.71328   1
   6  15  11 17.2273 2.39534  -2
  -6  15  13 17.2273 2.39534   1
   4  15  12 17.5919 2.69926  -2
  -4  15  13 17.5919 2.69926   1
   3  15  12 80.3808 3.29639  -2
  -3  15  13 80.3808 3.29639   1
   2  15  12 42.0842 3.51404  -2
  -2  15  13 42.0842 3.51404   1
   1  15  13 13.3004 2.54513  -2
  -1  15  13 13.3004 2.54513   1
   0  15  13 5.75542 1.30035  -2
   0  15  13 5.75542 1.30035   1
  -1  15  13 14.8012 2.42887  -2
   1  15  13 14.8012 2.42887   1
  -2  15  14 24.4313 3.13811  -2
   2  15  13 24.4313 3.13811   1
  -3  15  14 25.4349 2.02265  -2
   3  15  13 25.4349 2.02265   1
  -4  15  14 20.3741 2.73776  -2
   4  15  13 20.3741 2.73776   1
  -6  15  15 10.0401 2.19525  -2
   6  15  13 10.0401 2.19525   1
   4  16  12 11.7903 3.48311  -2
  -4  16  13 11.7903 3.48311   1
   3  16  12 27.6568 2.26588  -2
  -3  16  13 27.6568 2.26588   1
   2  16  12 12.6477 4.78317  -2
  -2  16  13 12.6477 4.78317   1
   1  16  13 77.2947 3.69268  -2
  -1  16  13 77.2947 3.69268   1
   0  16  13 12.0429 1.97674  -2
   0  16  13 12.0429 1.97674   1
  -1  16  13 81.2044 3.71384  -2
   1  16  13 81.2044 3.71384   1
  -2  16  14 4.23423 2.35962  -2
   2  16  13 4.23423 2.35962   1
  -3  16  14 38.3555 2.26166  -2
   3  16  13 38.3555 2.26166   1
  -4  16  14 3.15862 3.05494  -2
   4  16  13 3.15862 3.05494   1
   2  17  12 16.3984 3.83653  -2
  -2  17  13 16.3984 3.83653   1
   1  17  13 9.42135 3.45997  -2
  -1  17  13 9.42135 3.45997   1
   0  17  13 -0.3815 2.59375  -2
   0  17  13 -0.3815 2.59375   1
  -1  17  13 8.33955 3.52423  -2
   1  17  13 8.33955 3.52423   1
  13   0  10 46.0921 2.42061  -2
 -13   0  14 46.0921 2.42061   1
  11   0  11 2.09231 3.66276  -2
 -11   0  14 2.09231 3.66276   1
  10   0  11 17.8229 2.54866  -2
 -10   0  14 17.8229 2.54866   1
   9   0  11 0.99519 3.41260  -2
  -9   0  14 0.99519 3.41260   1
  -8   0  14 31.7301 6.30465   1
   7   0  12 665.864 23.6795  -2
  -7   0  14 665.864 23.6795   1
   6   0  12 481.360 17.5027  -2
  -6   0  14 481.360 17.5027   1
  -5   0  14 247.723 13.1319   1
   4   0  13 2.78505 3.45137  -2
  -4   0  14 2.78505 3.45137   1
   3   0  13 32.5756 3.92988  -2
  -3   0  14 32.5756 3.92988   1
  -2   0  14 222.082 8.53885   1
   1   0  14 405.213 14.4594  -2
  -1   0  14 405.213 14.4594   1
   0   0  14 333.606 11.9602  -2
   0   0  14 333.606 11.9602   1
  -1   0  14 406.345 14.5036  -2
   1   0  14 406.345 14.5036   1
  -2   0  15 187.464 7.64476  -2
   2   0  14 187.464 7.64476   1
  -3   0  15 32.8368 2.96101  -2
   3   0  14 32.8368 2.96101   1
  -4   0  15 4.73420 2.33023  -2
   4   0  14 4.73420 2.33023   1
   5   0  14 526.851 30.1602   1
  -6   0  16 55.6487 3.83515  -2
   6   0  14 55.6487 3.83515   1
  -7   0  16 53.1455 3.19680  -2
   7   0  14 53.1455 3.19680   1
  -8   0  16 107.052 5.82862  -2
   8   0  14 107.052 5.82862   1
  -9   0  17 15.7165 5.70052  -2
   9   0  14 15.7165 5.70052   1
 -10   0  17 18.7119 4.73160  -2
  10   0  14 18.7119 4.73160   1
  11   0  14 7.87552 3.19623   1
  13   1  10 35.8733 1.72336  -2
 -13   1  14 35.8733 1.72336   1
  11   1  11 11.4518 4.04863  -2
 -11   1  14 11.4518 4.04863   1
  10   1  11 24.5058 1.76095  -2
 -10   1  14 24.5058 1.76095   1
   9   1  11 -3.0974 3.37519  -2
  -9   1  14 -3.0974 3.37519   1
   8   1  12 85.6121 6.02278  -2
  -8   1  14 85.6121 6.02278   1
   7   1  12 34.3806 3.56212  -2
  -7   1  14 34.3806 3.56212   1
   6   1  12 420.275 12.5486  -2
  -6   1  14 420.275 12.5486   1
  -5   1  14 8.64990 1.97411   1
   4   1  13 183.788 6.07576  -2
  -4   1  14 183.788 6.07576   1
   3   1  13 77.2181 3.31801  -2
  -3   1  14 77.2181 3.31801   1
   2   1  13 21.7371 4.67471  -2
  -2   1  14 21.7371 4.67471   1
   1   1  14 110.634 3.59939  -2
  -1   1  14 110.634 3.59939   1
   0   1  14 2.55070 1.24589  -2
   0   1  14 2.55070 1.24589   1
  -1   1  14 111.915 3.67938  -2
   1   1  14 111.915 3.67938   1
  -2   1  15 53.9086 3.71824  -2
   2   1  14 53.9086 3.71824   1
  -3   1  15 23.7062 1.76274  -2
   3   1  14 23.7062 1.76274   1
  -4   1  15 62.5520 2.59754  -2
   4   1  14 62.5520 2.59754   1
  -5   1  15 442.202 23.6490  -2
   5   1  14 442.202 23.6490   1
  -5   1  16 699.708 39.6486  -2
   5   1  14 699.708 39.6486   1
  -6   1  16 52.4354 2.61460  -2
   6   1  14 52.4354 2.61460   1
  -7   1  16 67.5828 2.90210  -2
   7   1  14 67.5828 2.90210   1
  -8   1  16 13.6340 3.85374  -2
   8   1  14 13.6340 3.85374   1
  -9   1  17 163.441 7.30144  -2
   9   1  14 163.441 7.30144   1
 -10   1  17 9.13001 2.68439  -2
  10   1  14 9.13001 2.68439   1
  11   1  14 1.31220 2.96523   1
 -12   1  18 18.5011 2.46515  -2
  12   1  14 18.5011 2.46515   1
  13   2  10 7.79909 1.37502  -2
 -13   2  14 7.79909 1.37502   1
  11   2  11 3.98794 2.94694  -2
 -11   2  14 3.98794 2.94694   1
  10   2  11 20.3799 1.70044  -2
 -10   2  14 20.3799 1.70044   1
   9   2  11 67.5916 3.72661  -2
  -9   2  14 67.5916 3.72661   1
   8   2  12 9.25122 5.96475  -2
  -8   2  14 9.25122 5.96475   1
   7   2  12 145.936 6.70650  -2
  -7   2  14 145.936 6.70650   1
   6   2  12 32.7970 3.81458  -2
  -6   2  14 32.7970 3.81458   1
  -5   2  14 19.6150 2.38697   1
   4   2  13 23.8929 2.37327  -2
  -4   2  14 23.8929 2.37327   1
   3   2  13 152.683 4.50084  -2
  -3   2  14 152.683 4.50084   1
   2   2  13 227.266 12.8483  -2
  -2   2  14 227.266 12.8483   1
   1   2  14 163.184 5.41023  -2
  -1   2  14 163.184 5.41023   1
   0   2  14 67.3945 2.21310  -2
   0   2  14 67.3945 2.21310   1
  -1   2  14 156.460 4.63878  -2
   1   2  14 156.460 4.63878   1
  -2   2  15 311.278 16.9177  -2
   2   2  14 311.278 16.9177   1
  -3   2  15 184.738 4.84201  -2
   3   2  14 184.738 4.84201   1
  -4   2  15 58.3943 2.46481  -2
   4   2  14 58.3943 2.46481   1
  -5   2  16 239.389 16.1306  -2
   5   2  14 239.389 16.1306   1
  -5   2  15 166.976 10.8323  -2
   5   2  14 166.976 10.8323   1
  -6   2  16 185.060 4.90864  -2
   6   2  14 185.060 4.90864   1
  -7   2  16 15.1659 2.20431  -2
   7   2  14 15.1659 2.20431   1
  -8   2  16 157.283 5.97070  -2
   8   2  14 157.283 5.97070   1
  -9   2  17 3.79470 3.67050  -2
   9   2  14 3.79470 3.67050   1
 -10   2  17 12.4406 2.65973  -2
  10   2  14 12.4406 2.65973   1
 -11   2  17 45.9314 6.49363  -2
  11   2  14 45.9314 6.49363   1
 -12   2  18 21.2542 4.63478  -2
  12   2  14 21.2542 4.63478   1
  13   3  10 26.2109 1.82052  -2
 -13   3  14 26.2109 1.82052   1
  12   3  11 32.3900 6.50654  -2
 -12   3  14 32.3900 6.50654   1
  11   3  11 105.847 3.22819  -2
 -11   3  14 105.847 3.22819   1
  10   3  11 44.2472 2.05750  -2
 -10   3  14 44.2472 2.05750   1
   9   3  11 125.165 4.70404  -2
  -9   3  14 125.165 4.70404   1
   8   3  12 77.2346 7.98225  -2
  -8   3  14 77.2346 7.98225   1
   7   3  12 41.3893 3.70696  -2
  -7   3  14 41.3893 3.70696   1
   6   3  12 12.9082 3.39691  -2
  -6   3  14 12.9082 3.39691   1
   4   3  13 573.789 16.3561  -2
  -4   3  14 573.789 16.3561   1
   3   3  13 576.787 14.2955  -2
  -3   3  14 576.787 14.2955   1
   2   3  13 273.294 14.3794  -2
  -2   3  14 273.294 14.3794   1
   1   3  14 100.487 3.51448  -2
  -1   3  14 100.487 3.51448   1
   0   3  14 8.27873 1.34737  -2
   0   3  14 8.27873 1.34737   1
  -1   3  14 100.941 3.55843  -2
   1   3  14 100.941 3.55843   1
  -2   3  15 13.7919 2.45245  -2
   2   3  14 13.7919 2.45245   1
  -3   3  15 145.842 4.06972  -2
   3   3  14 145.842 4.06972   1
  -4   3  15 623.243 14.2215  -2
   4   3  14 623.243 14.2215   1
  -5   3  15 362.011 19.3909  -2
   5   3  14 362.011 19.3909   1
  -6   3  16 62.7101 3.40103  -2
   6   3  14 62.7101 3.40103   1
  -7   3  16 1.89298 2.04494  -2
   7   3  14 1.89298 2.04494   1
  -8   3  16 72.0277 5.37602  -2
   8   3  14 72.0277 5.37602   1
  -9   3  17 43.5040 3.46725  -2
   9   3  14 43.5040 3.46725   1
 -10   3  17 38.5864 2.64206  -2
  10   3  14 38.5864 2.64206   1
 -11   3  17 0.05144 3.84154  -2
  11   3  14 0.05144 3.84154   1
 -12   3  18 16.3915 4.45564  -2
  12   3  14 16.3915 4.45564   1
  13   4  10 19.1773 2.05284  -2
 -13   4  14 19.1773 2.05284   1
  12   4  10 3.50352 4.69526  -2
 -12   4  14 3.50352 4.69526   1
  12   4  11 0.72766 6.25345  -2
 -12   4  14 0.72766 6.25345   1
  11   4  11 113.427 3.73586  -2
 -11   4  14 113.427 3.73586   1
  10   4  11 108.136 2.87123  -2
 -10   4  14 108.136 2.87123   1
   9   4  11 72.3975 3.16012  -2
  -9   4  14 72.3975 3.16012   1
   7   4  12 73.1083 4.95752  -2
  -7   4  14 73.1083 4.95752   1
   6   4  12 107.636 5.87825  -2
  -6   4  14 107.636 5.87825   1
  -5   4  14 63.9451 5.52285   1
   4   4  13 130.106 6.05867  -2
  -4   4  14 130.106 6.05867   1
   3   4  13 9.93742 2.26150  -2
  -3   4  14 9.93742 2.26150   1
  -2   4  14 16.4095 2.14862   1
   1   4  14 359.158 9.23406  -2
  -1   4  14 359.158 9.23406   1
   0   4  14 763.850 18.9226  -2
   0   4  14 763.850 18.9226   1
  -1   4  14 353.876 9.32095  -2
   1   4  14 353.876 9.32095   1
  -2   4  15 42.8500 3.77009  -2
   2   4  14 42.8500 3.77009   1
  -3   4  15 128.662 4.14832  -2
   3   4  14 128.662 4.14832   1
  -4   4  15 1.72384 1.89173  -2
   4   4  14 1.72384 1.89173   1
  -5   4  15 87.1812 6.91196  -2
   5   4  14 87.1812 6.91196   1
  -6   4  16 72.2176 4.03257  -2
   6   4  14 72.2176 4.03257   1
  -7   4  16 86.1573 3.71876  -2
   7   4  14 86.1573 3.71876   1
  -8   4  16 382.030 20.7722  -2
   8   4  14 382.030 20.7722   1
  -9   4  17 57.2608 3.59006  -2
   9   4  14 57.2608 3.59006   1
 -10   4  17 14.7312 2.65634  -2
  10   4  14 14.7312 2.65634   1
  11   4  14 -0.2482 2.88025   1
 -12   4  18 3.83914 3.96666  -2
  12   4  14 3.83914 3.96666   1
  13   5  10 1.09267 1.26864  -2
 -13   5  14 1.09267 1.26864   1
  12   5  10 54.3802 2.73704  -2
 -12   5  14 54.3802 2.73704   1
  11   5  11 13.7232 2.75209  -2
 -11   5  14 13.7232 2.75209   1
  10   5  11 84.2010 2.59900  -2
 -10   5  14 84.2010 2.59900   1
   9   5  11 58.3231 3.53959  -2
  -9   5  14 58.3231 3.53959   1
   7   5  12 232.621 13.8202  -2
  -7   5  14 232.621 13.8202   1
   6   5  12 180.166 8.19229  -2
  -6   5  14 180.166 8.19229   1
  -5   5  14 9.01343 3.34801   1
   4   5  13 704.738 20.4215  -2
  -4   5  14 704.738 20.4215   1
   3   5  13 93.8841 3.98815  -2
  -3   5  14 93.8841 3.98815   1
   2   5  13 -1.6837 2.95174  -2
  -2   5  14 -1.6837 2.95174   1
   1   5  14 92.7024 3.83079  -2
  -1   5  14 92.7024 3.83079   1
   0   5  14 0.46389 1.05577  -2
   0   5  14 0.46389 1.05577   1
  -1   5  14 92.0477 3.43480  -2
   1   5  14 92.0477 3.43480   1
  -2   5  15 25.2251 4.86391  -2
   2   5  14 25.2251 4.86391   1
  -3   5  15 172.257 6.06441  -2
   3   5  14 172.257 6.06441   1
  -4   5  15 275.745 9.03831  -2
   4   5  14 275.745 9.03831   1
  -5   5  15 331.045 17.8349  -2
   5   5  14 331.045 17.8349   1
  -6   5  16 45.0712 3.60059  -2
   6   5  14 45.0712 3.60059   1
  -7   5  16 43.2106 2.95474  -2
   7   5  14 43.2106 2.95474   1
  -8   5  16 7.33309 7.84060  -2
   8   5  14 7.33309 7.84060   1
  -9   5  17 68.2748 4.34517  -2
   9   5  14 68.2748 4.34517   1
 -10   5  17 79.8969 3.88271  -2
  10   5  14 79.8969 3.88271   1
  11   5  14 72.3679 5.99636   1
 -12   5  18 37.6482 5.12165  -2
  12   5  14 37.6482 5.12165   1
  12   6  10 33.5490 2.66395  -2
 -12   6  14 33.5490 2.66395   1
  11   6  11 15.3316 2.72759  -2
 -11   6  14 15.3316 2.72759   1
  10   6  11 8.28398 1.74025  -2
 -10   6  14 8.28398 1.74025   1
   9   6  11 38.0236 3.62054  -2
  -9   6  14 38.0236 3.62054   1
   7   6  12 376.227 9.97939  -2
  -7   6  14 376.227 9.97939   1
   6   6  12 306.855 9.92232  -2
  -6   6  14 306.855 9.92232   1
  -5   6  14 8.71178 3.46955   1
   4   6  13 30.4002 2.82322  -2
  -4   6  14 30.4002 2.82322   1
   3   6  13 69.0665 3.46544  -2
  -3   6  14 69.0665 3.46544   1
   2   6  13 203.350 8.48967  -2
  -2   6  14 203.350 8.48967   1
   1   6  14 775.440 22.2450  -2
  -1   6  14 775.440 22.2450   1
   0   6  14 115.039 5.16901  -2
   0   6  14 115.039 5.16901   1
  -1   6  14 739.500 27.7846  -2
   1   6  14 739.500 27.7846   1
  -2   6  15 54.8708 3.85911  -2
   2   6  14 54.8708 3.85911   1
  -3   6  15 49.0411 2.86763  -2
   3   6  14 49.0411 2.86763   1
  -4   6  15 60.9669 3.16809  -2
   4   6  14 60.9669 3.16809   1
  -5   6  15 383.021 20.2438  -2
   5   6  14 383.021 20.2438   1
  -6   6  16 52.9701 3.65207  -2
   6   6  14 52.9701 3.65207   1
  -7   6  16 547.695 11.5035  -2
   7   6  14 547.695 11.5035   1
  -8   6  16 125.902 11.2604  -2
   8   6  14 125.902 11.2604   1
  -9   6  17 74.9462 3.57970  -2
   9   6  14 74.9462 3.57970   1
 -10   6  17 11.3038 2.66070  -2
  10   6  14 11.3038 2.66070   1
 -11   6  17 131.181 9.25395  -2
  11   6  14 131.181 9.25395   1
 -12   6  18 32.7125 4.76390  -2
  12   6  14 32.7125 4.76390   1
  12   7  10 22.1769 1.99443  -2
 -12   7  14 22.1769 1.99443   1
  11   7  11 16.5847 2.61972  -2
 -11   7  14 16.5847 2.61972   1
  10   7  11 27.9642 2.13703  -2
 -10   7  14 27.9642 2.13703   1
   9   7  11 33.8239 4.25386  -2
  -9   7  14 33.8239 4.25386   1
   7   7  12 106.729 3.31163  -2
  -7   7  14 106.729 3.31163   1
   6   7  12 51.3259 3.17963  -2
  -6   7  14 51.3259 3.17963   1
  -5   7  14 28.7792 4.90117   1
   4   7  13 705.849 17.4582  -2
  -4   7  14 705.849 17.4582   1
   3   7  13 60.0273 3.33058  -2
  -3   7  14 60.0273 3.33058   1
   2   7  13 181.161 11.1444  -2
  -2   7  14 181.161 11.1444   1
   1   7  14 52.6829 3.91456  -2
  -1   7  14 52.6829 3.91456   1
   0   7  14 -1.3369 1.91574  -2
   0   7  14 -1.3369 1.91574   1
  -1   7  14 53.5454 4.03219  -2
   1   7  14 53.5454 4.03219   1
  -2   7  15 112.886 5.93426  -2
   2   7  14 112.886 5.93426   1
  -3   7  15 147.563 5.75124  -2
   3   7  14 147.563 5.75124   1
  -4   7  15 218.388 6.79464  -2
   4   7  14 218.388 6.79464   1
  -5   7  16 1122.68 56.2945  -2
   5   7  14 1122.68 56.2945   1
  -6   7  16 96.2286 4.18864  -2
   6   7  14 96.2286 4.18864   1
  -7   7  16 64.8363 3.18128  -2
   7   7  14 64.8363 3.18128   1
   8   7  14 99.7039 8.46778   1
  -9   7  17 24.2151 2.86683  -2
   9   7  14 24.2151 2.86683   1
 -10   7  17 31.3630 2.83728  -2
  10   7  14 31.3630 2.83728   1
 -11   7  17 18.6003 3.16180  -2
  11   7  14 18.6003 3.16180   1
  12   8  11 17.1864 3.85191  -2
 -12   8  14 17.1864 3.85191   1
  11   8  11 86.3348 4.32107  -2
 -11   8  14 86.3348 4.32107   1
  10   8  11 31.5527 2.67587  -2
 -10   8  14 31.5527 2.67587   1
   9   8  11 55.8608 4.48487  -2
  -9   8  14 55.8608 4.48487   1
   7   8  12 49.1420 3.12122  -2
  -7   8  14 49.1420 3.12122   1
   6   8  12 21.5563 2.44071  -2
  -6   8  14 21.5563 2.44071   1
   4   8  13 70.4075 2.63620  -2
  -4   8  14 70.4075 2.63620   1
   3   8  13 99.4200 3.56195  -2
  -3   8  14 99.4200 3.56195   1
   2   8  13 24.1312 5.17421  -2
  -2   8  14 24.1312 5.17421   1
   1   8  14 983.371 24.3665  -2
  -1   8  14 983.371 24.3665   1
   0   8  14 235.559 6.60346  -2
   0   8  14 235.559 6.60346   1
  -1   8  14 992.097 28.1280  -2
   1   8  14 992.097 28.1280   1
  -2   8  15 2.20260 2.75806  -2
   2   8  14 2.20260 2.75806   1
  -3   8  15 119.359 3.63735  -2
   3   8  14 119.359 3.63735   1
  -4   8  15 64.4359 3.08511  -2
   4   8  14 64.4359 3.08511   1
   5   8  14 12.9687 4.42447   1
  -6   8  16 111.432 3.94917  -2
   6   8  14 111.432 3.94917   1
  -7   8  16 222.284 5.77887  -2
   7   8  14 222.284 5.77887   1
   8   8  14 14.7233 4.01781   1
  -9   8  17 66.5522 2.95630  -2
   9   8  14 66.5522 2.95630   1
 -10   8  17 20.9764 2.12368  -2
  10   8  14 20.9764 2.12368   1
 -11   8  17 2.68478 3.34188  -2
  11   8  14 2.68478 3.34188   1
  11   9  11 0.37357 2.35311  -2
 -11   9  14 0.37357 2.35311   1
  10   9  11 20.8649 2.22236  -2
 -10   9  14 20.8649 2.22236   1
   9   9  11 103.372 4.76070  -2
  -9   9  14 103.372 4.76070   1
   7   9  12 35.2039 2.83406  -2
  -7   9  14 35.2039 2.83406   1
   6   9  12 6.97148 2.83570  -2
  -6   9  14 6.97148 2.83570   1
   4   9  13 85.4037 3.38033  -2
  -4   9  14 85.4037 3.38033   1
   3   9  13 488.165 10.3589  -2
  -3   9  14 488.165 10.3589   1
   2   9  13 72.5957 3.58589  -2
  -2   9  14 72.5957 3.58589   1
   1   9  14 29.6103 2.38957  -2
  -1   9  14 29.6103 2.38957   1
   0   9  14 9.37072 1.58222  -2
   0   9  14 9.37072 1.58222   1
  -1   9  14 26.4791 2.72151  -2
   1   9  14 26.4791 2.72151   1
  -2   9  15 -1.4133 2.88843  -2
   2   9  14 -1.4133 2.88843   1
  -3   9  15 29.9510 2.35342  -2
   3   9  14 29.9510 2.35342   1
  -4   9  15 288.671 7.51576  -2
   4   9  14 288.671 7.51576   1
  -5   9  15 163.780 12.4466  -2
   5   9  14 163.780 12.4466   1
  -6   9  16 86.8050 4.61120  -2
   6   9  14 86.8050 4.61120   1
  -7   9  16 22.2748 2.76618  -2
   7   9  14 22.2748 2.76618   1
  -9   9  17 1.99822 2.31772  -2
   9   9  14 1.99822 2.31772   1
 -10   9  17 4.56326 1.52553  -2
  10   9  14 4.56326 1.52553   1
  11  10  11 5.51378 2.23237  -2
 -11  10  14 5.51378 2.23237   1
  10  10  11 8.25745 1.87384  -2
 -10  10  14 8.25745 1.87384   1
   9  10  11 11.2928 2.71626  -2
  -9  10  14 11.2928 2.71626   1
   8  10  12 6.77846 4.86070  -2
  -8  10  14 6.77846 4.86070   1
   7  10  12 22.1460 3.02605  -2
  -7  10  14 22.1460 3.02605   1
   6  10  12 105.574 4.53521  -2
  -6  10  14 105.574 4.53521   1
   4  10  13 16.1880 2.05994  -2
  -4  10  14 16.1880 2.05994   1
   3  10  13 115.284 2.94997  -2
  -3  10  14 115.284 2.94997   1
   2  10  13 12.1354 2.54209  -2
  -2  10  14 12.1354 2.54209   1
   1  10  14 92.7426 3.39331  -2
  -1  10  14 92.7426 3.39331   1
   0  10  14 27.0510 1.76962  -2
   0  10  14 27.0510 1.76962   1
  -1  10  14 96.0238 3.99591  -2
   1  10  14 96.0238 3.99591   1
  -2  10  15 80.6966 3.95175  -2
   2  10  14 80.6966 3.95175   1
  -3  10  15 96.4215 2.50272  -2
   3  10  14 96.4215 2.50272   1
  -4  10  15 20.7255 2.17243  -2
   4  10  14 20.7255 2.17243   1
  -5  10  16 485.961 23.9807  -2
   5  10  14 485.961 23.9807   1
  -5  10  15 263.977 16.7072  -2
   5  10  14 263.977 16.7072   1
  -6  10  16 35.2658 3.18120  -2
   6  10  14 35.2658 3.18120   1
  -7  10  16 19.6032 2.99386  -2
   7  10  14 19.6032 2.99386   1
  -9  10  17 13.0153 2.26816  -2
   9  10  14 13.0153 2.26816   1
 -10  10  17 3.13753 1.33226  -2
  10  10  14 3.13753 1.33226   1
  10  11  11 25.9017 1.89051  -2
 -10  11  14 25.9017 1.89051   1
   9  11  11 31.2568 3.15457  -2
  -9  11  14 31.2568 3.15457   1
   8  11  12 45.3754 6.19103  -2
  -8  11  14 45.3754 6.19103   1
   7  11  12 32.7455 2.70654  -2
  -7  11  14 32.7455 2.70654   1
   6  11  12 67.6442 3.60505  -2
  -6  11  14 67.6442 3.60505   1
   4  11  13 6.72019 2.58355  -2
  -4  11  14 6.72019 2.58355   1
   3  11  13 17.8839 1.92092  -2
  -3  11  14 17.8839 1.92092   1
   2  11  13 59.3062 2.98764  -2
  -2  11  14 59.3062 2.98764   1
   1  11  14 11.6491 1.85774  -2
  -1  11  14 11.6491 1.85774   1
   0  11  14 34.5721 1.66851  -2
   0  11  14 34.5721 1.66851   1
  -1  11  14 17.5204 1.98098  -2
   1  11  14 17.5204 1.98098   1
  -2  11  15 112.839 3.79696  -2
   2  11  14 112.839 3.79696   1
  -3  11  15 31.0321 2.12068  -2
   3  11  14 31.0321 2.12068   1
  -4  11  15 35.8068 2.30739  -2
   4  11  14 35.8068 2.30739   1
  -5  11  16 41.7423 6.45114  -2
   5  11  14 41.7423 6.45114   1
  -6  11  16 83.7077 3.66120  -2
   6  11  14 83.7077 3.66120   1
  -7  11  16 18.1737 2.76177  -2
   7  11  14 18.1737 2.76177   1
  -9  11  17 32.2689 2.14280  -2
   9  11  14 32.2689 2.14280   1
   9  12  11 77.7218 3.17910  -2
  -9  12  14 77.7218 3.17910   1
   7  12  12 11.9770 2.84460  -2
  -7  12  14 11.9770 2.84460   1
   6  12  12 87.3814 4.40150  -2
  -6  12  14 87.3814 4.40150   1
   4  12  13 11.8970 2.52573  -2
  -4  12  14 11.8970 2.52573   1
   3  12  13 211.696 4.90495  -2
  -3  12  14 211.696 4.90495   1
   2  12  13 161.055 6.49705  -2
  -2  12  14 161.055 6.49705   1
   1  12  14 35.9033 3.29269  -2
  -1  12  14 35.9033 3.29269   1
   0  12  14 0.60980 1.22190  -2
   0  12  14 0.60980 1.22190   1
  -1  12  14 31.4959 2.55354  -2
   1  12  14 31.4959 2.55354   1
  -2  12  15 144.598 4.15042  -2
   2  12  14 144.598 4.15042   1
  -3  12  15 65.8299 2.51259  -2
   3  12  14 65.8299 2.51259   1
  -4  12  15 49.3608 2.36172  -2
   4  12  14 49.3608 2.36172   1
  -5  12  16 59.7979 4.94668  -2
   5  12  14 59.7979 4.94668   1
  -6  12  16 5.23601 2.36252  -2
   6  12  14 5.23601 2.36252   1
  -7  12  16 33.3928 2.32342  -2
   7  12  14 33.3928 2.32342   1
  -9  12  17 6.61501 1.77813  -2
   9  12  14 6.61501 1.77813   1
   9  13  11 11.0944 2.36212  -2
  -9  13  14 11.0944 2.36212   1
   8  13  11 91.1856 6.50673  -2
  -8  13  14 91.1856 6.50673   1
   7  13  12 33.0326 2.09316  -2
  -7  13  14 33.0326 2.09316   1
   6  13  12 46.8406 3.26327  -2
  -6  13  14 46.8406 3.26327   1
   4  13  13 4.61864 2.47397  -2
  -4  13  14 4.61864 2.47397   1
   3  13  13 16.5837 1.99110  -2
  -3  13  14 16.5837 1.99110   1
   2  13  13 38.3084 3.44875  -2
  -2  13  14 38.3084 3.44875   1
   1  13  14 49.2882 3.31127  -2
  -1  13  14 49.2882 3.31127   1
   0  13  14 26.5349 2.00334  -2
   0  13  14 26.5349 2.00334   1
  -1  13  14 58.2989 3.09748  -2
   1  13  14 58.2989 3.09748   1
  -2  13  15 7.68340 2.47938  -2
   2  13  14 7.68340 2.47938   1
  -3  13  15 69.2449 2.46851  -2
   3  13  14 69.2449 2.46851   1
  -4  13  15 49.5427 2.74556  -2
   4  13  14 49.5427 2.74556   1
  -5  13  16 114.287 8.94201  -2
   5  13  14 114.287 8.94201   1
  -6  13  16 116.329 4.20371  -2
   6  13  14 116.329 4.20371   1
  -7  13  16 82.9672 3.23551  -2
   7  13  14 82.9672 3.23551   1
   7  14  12 14.2702 2.39829  -2
  -7  14  14 14.2702 2.39829   1
   6  14  12 16.3879 1.87409  -2
  -6  14  14 16.3879 1.87409   1
   5  14  12 19.9903 4.33456  -2
  -5  14  14 19.9903 4.33456   1
   4  14  13 25.7708 3.11060  -2
  -4  14  14 25.7708 3.11060   1
   3  14  13 9.82415 2.08596  -2
  -3  14  14 9.82415 2.08596   1
   2  14  13 21.4765 3.58304  -2
  -2  14  14 21.4765 3.58304   1
   1  14  14 7.39192 2.34929  -2
  -1  14  14 7.39192 2.34929   1
   0  14  14 120.259 3.62554  -2
   0  14  14 120.259 3.62554   1
  -1  14  14 8.46477 2.64542  -2
   1  14  14 8.46477 2.64542   1
  -2  14  15 15.0201 2.68455  -2
   2  14  14 15.0201 2.68455   1
  -3  14  15 2.30139 1.96323  -2
   3  14  14 2.30139 1.96323   1
  -4  14  15 6.11946 2.33477  -2
   4  14  14 6.11946 2.33477   1
  -5  14  16 24.3062 6.14668  -2
   5  14  14 24.3062 6.14668   1
  -6  14  16 81.6466 3.13937  -2
   6  14  14 81.6466 3.13937   1
  -7  14  16 16.4982 1.64780  -2
   7  14  14 16.4982 1.64780   1
   6  15  12 69.2691 4.57282  -2
  -6  15  14 69.2691 4.57282   1
   4  15  13 22.9459 2.70909  -2
  -4  15  14 22.9459 2.70909   1
   3  15  13 27.0741 2.42145  -2
  -3  15  14 27.0741 2.42145   1
   2  15  13 22.7291 3.11013  -2
  -2  15  14 22.7291 3.11013   1
   1  15  14 21.5961 2.56425  -2
  -1  15  14 21.5961 2.56425   1
   0  15  14 14.2313 1.33517  -2
   0  15  14 14.2313 1.33517   1
  -1  15  14 20.3326 2.43841  -2
   1  15  14 20.3326 2.43841   1
  -2  15  15 24.8170 3.01026  -2
   2  15  14 24.8170 3.01026   1
  -3  15  15 55.3362 2.45948  -2
   3  15  14 55.3362 2.45948   1
  -4  15  15 49.1358 3.69969  -2
   4  15  14 49.1358 3.69969   1
   4  16  13 15.5062 3.53633  -2
  -4  16  14 15.5062 3.53633   1
   3  16  13 41.0131 2.62986  -2
  -3  16  14 41.0131 2.62986   1
   2  16  13 2.05587 4.17015  -2
  -2  16  14 2.05587 4.17015   1
   1  16  14 17.7663 3.26032  -2
  -1  16  14 17.7663 3.26032   1
   0  16  14 7.97818 1.82177  -2
   0  16  14 7.97818 1.82177   1
  -1  16  14 16.1014 2.47674  -2
   1  16  14 16.1014 2.47674   1
  -2  16  15 76.4560 4.47333  -2
   2  16  14 76.4560 4.47333   1
  -3  16  15 19.9288 2.19577  -2
   3  16  14 19.9288 2.19577   1
  -4  16  15 21.0962 3.22238  -2
   4  16  14 21.0962 3.22238   1
  -1  17  14 56.5058 5.32228   1
  13   0  11 0.76226 1.58916  -2
 -13   0  15 0.76226 1.58916   1
  11   0  12 15.2469 3.15504  -2
 -11   0  15 15.2469 3.15504   1
  10   0  12 13.2842 2.33922  -2
 -10   0  15 13.2842 2.33922   1
   9   0  12 3.87654 2.88692  -2
  -9   0  15 3.87654 2.88692   1
   7   0  13 37.4273 5.25268  -2
  -7   0  15 37.4273 5.25268   1
   6   0  13 20.5859 5.16780  -2
  -6   0  15 20.5859 5.16780   1
   4   0  14 0.56106 3.48198  -2
  -4   0  15 0.56106 3.48198   1
   3   0  14 29.9620 3.92671  -2
  -3   0  15 29.9620 3.92671   1
  -2   0  15 0.24224 1.99153   1
   1   0  15 -0.1443 2.47799  -2
  -1   0  15 -0.1443 2.47799   1
   0   0  15 -2.6223 1.71408  -2
   0   0  15 -2.6223 1.71408   1
  -1   0  15 -1.5099 2.49493  -2
   1   0  15 -1.5099 2.49493   1
  -2   0  16 88.5754 4.91150  -2
   2   0  15 88.5754 4.91150   1
  -3   0  16 75.6860 4.18725  -2
   3   0  15 75.6860 4.18725   1
  -4   0  16 80.7216 3.92745  -2
   4   0  15 80.7216 3.92745   1
  -5   0  17 -3.4030 6.22097  -2
   5   0  15 -3.4030 6.22097   1
  -6   0  17 -3.0305 2.87484  -2
   6   0  15 -3.0305 2.87484   1
  -7   0  17 19.8249 2.93612  -2
   7   0  15 19.8249 2.93612   1
  -8   0  17 -0.6541 3.65931  -2
   8   0  15 -0.6541 3.65931   1
  -9   0  18 110.287 8.86200  -2
   9   0  15 110.287 8.86200   1
 -10   0  18 23.8355 5.18496  -2
  10   0  15 23.8355 5.18496   1
  11   0  15 -2.8552 2.57789   1
  13   1  11 2.28719 1.33627  -2
 -13   1  15 2.28719 1.33627   1
  12   1  12 57.6463 4.83981  -2
 -12   1  15 57.6463 4.83981   1
  12   1  11 -0.1502 4.70134  -2
 -12   1  15 -0.1502 4.70134   1
  11   1  12 17.5821 2.96886  -2
 -11   1  15 17.5821 2.96886   1
  10   1  12 26.0807 1.78483  -2
 -10   1  15 26.0807 1.78483   1
   9   1  12 74.5872 2.88613  -2
  -9   1  15 74.5872 2.88613   1
   8   1  13 157.935 11.8313  -2
  -8   1  15 157.935 11.8313   1
   7   1  13 49.7443 3.42603  -2
  -7   1  15 49.7443 3.42603   1
   6   1  13 461.691 13.6869  -2
  -6   1  15 461.691 13.6869   1
  -5   1  15 59.1433 5.00060   1
   4   1  14 59.3264 3.76992  -2
  -4   1  15 59.3264 3.76992   1
   3   1  14 24.4074 2.68450  -2
  -3   1  15 24.4074 2.68450   1
   2   1  14 57.9520 5.73487  -2
  -2   1  15 57.9520 5.73487   1
   1   1  15 163.068 5.53351  -2
  -1   1  15 163.068 5.53351   1
   0   1  15 57.6242 2.24786  -2
   0   1  15 57.6242 2.24786   1
  -1   1  15 153.830 4.62421  -2
   1   1  15 153.830 4.62421   1
  -2   1  16 213.404 8.59805  -2
   2   1  15 213.404 8.59805   1
  -3   1  16 9.91501 1.61888  -2
   3   1  15 9.91501 1.61888   1
  -4   1  16 97.0098 3.28969  -2
   4   1  15 97.0098 3.28969   1
  -5   1  17 24.1178 7.50929  -2
   5   1  15 24.1178 7.50929   1
  -6   1  17 23.9928 2.25993  -2
   6   1  15 23.9928 2.25993   1
  -7   1  17 17.4998 2.14484  -2
   7   1  15 17.4998 2.14484   1
  -8   1  17 111.075 6.24098  -2
   8   1  15 111.075 6.24098   1
  -9   1  18 70.3613 4.65093  -2
   9   1  15 70.3613 4.65093   1
 -10   1  18 11.4944 5.26660  -2
  10   1  15 11.4944 5.26660   1
  11   1  15 6.08892 2.98768   1
  13   2  11 18.5857 1.48991  -2
 -13   2  15 18.5857 1.48991   1
  12   2  11 30.5716 5.40802  -2
 -12   2  15 30.5716 5.40802   1
  11   2  12 18.4735 2.46634  -2
 -11   2  15 18.4735 2.46634   1
  10   2  12 17.1415 1.66767  -2
 -10   2  15 17.1415 1.66767   1
   9   2  12 27.0286 2.80330  -2
  -9   2  15 27.0286 2.80330   1
   8   2  13 21.8851 5.05382  -2
  -8   2  15 21.8851 5.05382   1
   7   2  13 69.7049 3.95225  -2
  -7   2  15 69.7049 3.95225   1
   6   2  13 57.2619 4.63565  -2
  -6   2  15 57.2619 4.63565   1
  -5   2  15 4.80352 1.81708   1
   4   2  14 60.7444 3.17394  -2
  -4   2  15 60.7444 3.17394   1
   3   2  14 195.524 6.34430  -2
  -3   2  15 195.524 6.34430   1
  -2   2  15 263.967 7.99155   1
   1   2  15 26.2178 2.44544  -2
  -1   2  15 26.2178 2.44544   1
   0   2  15 10.6335 1.41040  -2
   0   2  15 10.6335 1.41040   1
  -1   2  15 25.2166 2.01689  -2
   1   2  15 25.2166 2.01689   1
  -2   2  16 35.0627 2.94944  -2
   2   2  15 35.0627 2.94944   1
  -3   2  16 28.4160 1.89281  -2
   3   2  15 28.4160 1.89281   1
  -4   2  16 48.2016 2.42049  -2
   4   2  15 48.2016 2.42049   1
  -5   2  16 85.8730 7.86116  -2
   5   2  15 85.8730 7.86116   1
  -6   2  17 588.429 12.8649  -2
   6   2  15 588.429 12.8649   1
  -7   2  17 47.6369 2.90411  -2
   7   2  15 47.6369 2.90411   1
  -8   2  17 71.5779 4.18668  -2
   8   2  15 71.5779 4.18668   1
  -9   2  18 82.5363 5.08797  -2
   9   2  15 82.5363 5.08797   1
 -10   2  18 5.29817 2.45361  -2
  10   2  15 5.29817 2.45361   1
  11   2  15 14.5290 3.42913   1
 -12   2  19 20.8630 4.27307  -2
  12   2  15 20.8630 4.27307   1
  13   3  11 90.0277 4.03352  -2
 -13   3  15 90.0277 4.03352   1
  12   3  11 77.1082 6.52059  -2
 -12   3  15 77.1082 6.52059   1
  12   3  12 64.0600 6.67307  -2
 -12   3  15 64.0600 6.67307   1
  11   3  12 63.1085 2.41668  -2
 -11   3  15 63.1085 2.41668   1
  10   3  12 3.03195 1.43824  -2
 -10   3  15 3.03195 1.43824   1
   9   3  12 153.833 3.93869  -2
  -9   3  15 153.833 3.93869   1
   8   3  13 261.296 16.1280  -2
  -8   3  15 261.296 16.1280   1
   7   3  13 46.1477 4.36652  -2
  -7   3  15 46.1477 4.36652   1
   6   3  13 128.701 6.50736  -2
  -6   3  15 128.701 6.50736   1
  -5   3  15 194.370 11.0815   1
   4   3  14 673.012 23.6690  -2
  -4   3  15 673.012 23.6690   1
   3   3  14 157.932 4.72974  -2
  -3   3  15 157.932 4.72974   1
   2   3  14 12.8678 2.76741  -2
  -2   3  15 12.8678 2.76741   1
   1   3  15 80.8892 3.56756  -2
  -1   3  15 80.8892 3.56756   1
   0   3  15 128.233 3.95450  -2
   0   3  15 128.233 3.95450   1
  -1   3  15 73.5676 3.06565  -2
   1   3  15 73.5676 3.06565   1
  -2   3  16 331.841 10.2285  -2
   2   3  15 331.841 10.2285   1
  -3   3  16 12.0335 1.70697  -2
   3   3  15 12.0335 1.70697   1
  -4   3  16 512.697 11.9275  -2
   4   3  15 512.697 11.9275   1
  -5   3  16 5.07086 3.68088  -2
   5   3  15 5.07086 3.68088   1
  -6   3  17 80.1248 3.35250  -2
   6   3  15 80.1248 3.35250   1
  -7   3  17 95.3731 3.42842  -2
   7   3  15 95.3731 3.42842   1
  -8   3  17 172.688 10.4480  -2
   8   3  15 172.688 10.4480   1
  -9   3  18 112.214 4.55796  -2
   9   3  15 112.214 4.55796   1
 -10   3  18 14.9494 2.48845  -2
  10   3  15 14.9494 2.48845   1
 -11   3  18 0.48450 3.60829  -2
  11   3  15 0.48450 3.60829   1
  13   4  11 37.9186 2.34525  -2
 -13   4  15 37.9186 2.34525   1
  12   4  11 6.18074 3.02260  -2
 -12   4  15 6.18074 3.02260   1
  11   4  12 28.9246 2.43813  -2
 -11   4  15 28.9246 2.43813   1
  10   4  12 91.3769 2.49044  -2
 -10   4  15 91.3769 2.49044   1
   9   4  12 88.5307 3.37823  -2
  -9   4  15 88.5307 3.37823   1
   7   4  13 310.200 17.5551  -2
  -7   4  15 310.200 17.5551   1
   6   4  13 316.801 12.3971  -2
  -6   4  15 316.801 12.3971   1
  -5   4  15 52.5827 5.84658   1
   4   4  14 0.27036 2.94597  -2
  -4   4  15 0.27036 2.94597   1
   3   4  14 127.525 4.81128  -2
  -3   4  15 127.525 4.81128   1
   2   4  14 59.4976 5.56569  -2
  -2   4  15 59.4976 5.56569   1
   1   4  15 54.6344 3.01710  -2
  -1   4  15 54.6344 3.01710   1
   0   4  15 18.1131 1.58169  -2
   0   4  15 18.1131 1.58169   1
  -1   4  15 55.0515 2.78122  -2
   1   4  15 55.0515 2.78122   1
  -2   4  16 184.057 8.25147  -2
   2   4  15 184.057 8.25147   1
  -3   4  16 44.7860 2.82630  -2
   3   4  15 44.7860 2.82630   1
  -4   4  16 123.348 4.96401  -2
   4   4  15 123.348 4.96401   1
  -5   4  16 67.0191 6.58615  -2
   5   4  15 67.0191 6.58615   1
  -6   4  17 695.981 21.3711  -2
   6   4  15 695.981 21.3711   1
  -7   4  17 37.0599 3.06050  -2
   7   4  15 37.0599 3.06050   1
   8   4  15 84.7021 7.67195   1
  -9   4  18 35.1071 3.21475  -2
   9   4  15 35.1071 3.21475   1
 -10   4  18 2.15088 2.49732  -2
  10   4  15 2.15088 2.49732   1
  11   4  15 -2.2269 2.47042   1
  12   5  11 38.9695 2.41556  -2
 -12   5  15 38.9695 2.41556   1
  11   5  12 16.9556 2.37694  -2
 -11   5  15 16.9556 2.37694   1
  10   5  12 22.5319 1.56966  -2
 -10   5  15 22.5319 1.56966   1
   9   5  12 166.241 5.23057  -2
  -9   5  15 166.241 5.23057   1
   7   5  13 133.803 9.33840  -2
  -7   5  15 133.803 9.33840   1
   6   5  13 117.301 5.19917  -2
  -6   5  15 117.301 5.19917   1
  -5   5  15 13.8345 3.42158   1
   4   5  14 305.121 11.7459  -2
  -4   5  15 305.121 11.7459   1
   3   5  14 188.735 6.47985  -2
  -3   5  15 188.735 6.47985   1
   2   5  14 32.2387 3.67655  -2
  -2   5  15 32.2387 3.67655   1
   1   5  15 344.507 10.5160  -2
  -1   5  15 344.507 10.5160   1
   0   5  15 79.2562 2.89556  -2
   0   5  15 79.2562 2.89556   1
  -1   5  15 337.702 9.06256  -2
   1   5  15 337.702 9.06256   1
  -2   5  16 52.8633 3.88946  -2
   2   5  15 52.8633 3.88946   1
  -3   5  16 64.8439 3.33414  -2
   3   5  15 64.8439 3.33414   1
  -4   5  16 106.075 4.57159  -2
   4   5  15 106.075 4.57159   1
  -5   5  16 406.408 21.5121  -2
   5   5  15 406.408 21.5121   1
  -6   5  17 75.6328 4.32171  -2
   6   5  15 75.6328 4.32171   1
  -7   5  17 92.5021 3.08438  -2
   7   5  15 92.5021 3.08438   1
  -8   5  17 37.7897 8.65830  -2
   8   5  15 37.7897 8.65830   1
  -9   5  18 46.3461 3.97129  -2
   9   5  15 46.3461 3.97129   1
 -10   5  18 0.29551 2.43355  -2
  10   5  15 0.29551 2.43355   1
 -11   5  18 78.0926 5.65720  -2
  11   5  15 78.0926 5.65720   1
  12   6  11 20.5519 2.33002  -2
 -12   6  15 20.5519 2.33002   1
  12   6  12 18.8375 4.62441  -2
 -12   6  15 18.8375 4.62441   1
  11   6  12 48.0657 2.73694  -2
 -11   6  15 48.0657 2.73694   1
  10   6  12 28.5203 2.01569  -2
 -10   6  15 28.5203 2.01569   1
   9   6  12 75.1218 4.24040  -2
  -9   6  15 75.1218 4.24040   1
   7   6  13 169.662 3.99732  -2
  -7   6  15 169.662 3.99732   1
   6   6  13 24.3979 4.04049  -2
  -6   6  15 24.3979 4.04049   1
  -5   6  15 38.4553 5.07882   1
   4   6  14 61.9310 3.55297  -2
  -4   6  15 61.9310 3.55297   1
   3   6  14 54.8376 3.22963  -2
  -3   6  15 54.8376 3.22963   1
   2   6  14 54.1265 4.39073  -2
  -2   6  15 54.1265 4.39073   1
   1   6  15 7.50012 2.31629  -2
  -1   6  15 7.50012 2.31629   1
   0   6  15 9.39430 2.87486  -2
   0   6  15 9.39430 2.87486   1
  -1   6  15 2.42969 2.84672  -2
   1   6  15 2.42969 2.84672   1
  -2   6  16 152.249 6.88599  -2
   2   6  15 152.249 6.88599   1
  -3   6  16 46.9513 2.89840  -2
   3   6  15 46.9513 2.89840   1
  -4   6  16 113.157 4.74569  -2
   4   6  15 113.157 4.74569   1
   5   6  15 69.7262 5.30556   1
  -6   6  17 85.7732 5.43629  -2
   6   6  15 85.7732 5.43629   1
  -7   6  17 49.8388 2.38798  -2
   7   6  15 49.8388 2.38798   1
  -8   6  17 13.0357 8.21450  -2
   8   6  15 13.0357 8.21450   1
  -9   6  18 85.2217 3.64081  -2
   9   6  15 85.2217 3.64081   1
 -10   6  18 5.91263 2.40674  -2
  10   6  15 5.91263 2.40674   1
 -11   6  18 11.0012 3.74351  -2
  11   6  15 11.0012 3.74351   1
  12   7  11 30.2603 2.03677  -2
 -12   7  15 30.2603 2.03677   1
  12   7  12 20.8400 4.13725  -2
 -12   7  15 20.8400 4.13725   1
  11   7  12 4.39662 2.12585  -2
 -11   7  15 4.39662 2.12585   1
  10   7  12 18.2721 1.80794  -2
 -10   7  15 18.2721 1.80794   1
   9   7  12 95.6356 5.53509  -2
  -9   7  15 95.6356 5.53509   1
   7   7  13 45.8940 2.43127  -2
  -7   7  15 45.8940 2.43127   1
   6   7  13 209.371 5.06320  -2
  -6   7  15 209.371 5.06320   1
  -5   7  15 31.8426 5.30252   1
   4   7  14 233.826 6.74173  -2
  -4   7  15 233.826 6.74173   1
   3   7  14 138.430 4.49993  -2
  -3   7  15 138.430 4.49993   1
   1   7  15 7.55490 3.12862  -2
  -1   7  15 7.55490 3.12862   1
   0   7  15 128.751 8.04260  -2
   0   7  15 128.751 8.04260   1
  -1   7  15 14.3161 3.94111  -2
   1   7  15 14.3161 3.94111   1
  -2   7  16 127.175 5.56542  -2
   2   7  15 127.175 5.56542   1
  -3   7  16 276.653 7.30030  -2
   3   7  15 276.653 7.30030   1
  -4   7  16 138.905 5.90259  -2
   4   7  15 138.905 5.90259   1
  -5   7  17 286.287 17.2742  -2
   5   7  15 286.287 17.2742   1
  -5   7  16 971.202 48.8338  -2
   5   7  15 971.202 48.8338   1
  -6   7  17 142.559 4.43508  -2
   6   7  15 142.559 4.43508   1
  -7   7  17 132.057 4.18994  -2
   7   7  15 132.057 4.18994   1
   8   7  15 51.6030 6.25535   1
  -9   7  18 43.0191 2.89339  -2
   9   7  15 43.0191 2.89339   1
 -10   7  18 27.2508 2.60933  -2
  10   7  15 27.2508 2.60933   1
 -11   7  18 24.5796 2.61569  -2
  11   7  15 24.5796 2.61569   1
  11   8  12 19.3964 2.41048  -2
 -11   8  15 19.3964 2.41048   1
  10   8  12 7.71278 2.21017  -2
 -10   8  15 7.71278 2.21017   1
   9   8  12 99.8043 5.37123  -2
  -9   8  15 99.8043 5.37123   1
   8   8  13 56.0543 4.87580  -2
  -8   8  15 56.0543 4.87580   1
   7   8  13 151.390 4.28482  -2
  -7   8  15 151.390 4.28482   1
   6   8  13 117.301 3.49307  -2
  -6   8  15 117.301 3.49307   1
   5   8  13 17.1196 7.07312  -2
  -5   8  15 17.1196 7.07312   1
   4   8  14 68.8427 2.69762  -2
  -4   8  15 68.8427 2.69762   1
   3   8  14 113.569 3.30831  -2
  -3   8  15 113.569 3.30831   1
  -2   8  15 -3.4032 2.17639   1
   1   8  15 25.6040 2.59525  -2
  -1   8  15 25.6040 2.59525   1
   0   8  15 130.731 4.22782  -2
   0   8  15 130.731 4.22782   1
  -1   8  15 26.2879 2.93570  -2
   1   8  15 26.2879 2.93570   1
  -2   8  16 138.678 4.96158  -2
   2   8  15 138.678 4.96158   1
  -3   8  16 132.404 3.92078  -2
   3   8  15 132.404 3.92078   1
  -4   8  16 96.1395 4.24742  -2
   4   8  15 96.1395 4.24742   1
  -6   8  17 212.039 5.68866  -2
   6   8  15 212.039 5.68866   1
  -7   8  17 26.4518 2.60680  -2
   7   8  15 26.4518 2.60680   1
   8   8  15 15.7200 4.25875   1
  -9   8  18 48.1967 2.61528  -2
   9   8  15 48.1967 2.61528   1
 -10   8  18 0.44380 1.76958  -2
  10   8  15 0.44380 1.76958   1
 -11   8  18 -1.4731 2.55868  -2
  11   8  15 -1.4731 2.55868   1
  11   9  12 102.448 4.42303  -2
 -11   9  15 102.448 4.42303   1
  10   9  12 0.75701 1.65694  -2
 -10   9  15 0.75701 1.65694   1
   9   9  12 29.7910 3.24624  -2
  -9   9  15 29.7910 3.24624   1
   8   9  13 25.4575 4.06898  -2
  -8   9  15 25.4575 4.06898   1
   7   9  13 93.4634 3.83336  -2
  -7   9  15 93.4634 3.83336   1
   6   9  13 85.4628 3.54065  -2
  -6   9  15 85.4628 3.54065   1
   4   9  14 310.978 6.40169  -2
  -4   9  15 310.978 6.40169   1
   3   9  14 28.0482 2.00681  -2
  -3   9  15 28.0482 2.00681   1
   2   9  14 5.37833 2.38745  -2
  -2   9  15 5.37833 2.38745   1
   1   9  15 55.5108 2.70848  -2
  -1   9  15 55.5108 2.70848   1
   0   9  15 143.380 4.11508  -2
   0   9  15 143.380 4.11508   1
  -1   9  15 58.3032 3.32365  -2
   1   9  15 58.3032 3.32365   1
  -2   9  16 263.518 8.75467  -2
   2   9  15 263.518 8.75467   1
  -3   9  16 213.836 4.90523  -2
   3   9  15 213.836 4.90523   1
  -4   9  16 87.7784 2.41214  -2
   4   9  15 87.7784 2.41214   1
   5   9  15 4.10438 3.49775   1
  -6   9  17 222.106 7.44962  -2
   6   9  15 222.106 7.44962   1
  -7   9  17 23.6783 2.74411  -2
   7   9  15 23.6783 2.74411   1
  -9   9  18 -0.3456 2.20318  -2
   9   9  15 -0.3456 2.20318   1
 -10   9  18 3.12495 1.83915  -2
  10   9  15 3.12495 1.83915   1
  10  10  12 25.8728 2.03235  -2
 -10  10  15 25.8728 2.03235   1
   9  10  12 5.68473 2.60696  -2
  -9  10  15 5.68473 2.60696   1
   8  10  13 20.7506 3.72775  -2
  -8  10  15 20.7506 3.72775   1
   7  10  13 50.9020 3.36336  -2
  -7  10  15 50.9020 3.36336   1
   6  10  13 224.725 7.29766  -2
  -6  10  15 224.725 7.29766   1
   5  10  13 130.827 9.91165  -2
  -5  10  15 130.827 9.91165   1
   4  10  14 21.8312 2.57904  -2
  -4  10  15 21.8312 2.57904   1
   3  10  14 92.8443 2.64635  -2
  -3  10  15 92.8443 2.64635   1
   2  10  14 84.2259 3.34441  -2
  -2  10  15 84.2259 3.34441   1
   1  10  15 21.6202 2.03079  -2
  -1  10  15 21.6202 2.03079   1
   0  10  15 132.622 3.37444  -2
   0  10  15 132.622 3.37444   1
  -1  10  15 18.9989 2.40176  -2
   1  10  15 18.9989 2.40176   1
  -2  10  16 237.650 5.39259  -2
   2  10  15 237.650 5.39259   1
  -3  10  16 4.95878 1.46247  -2
   3  10  15 4.95878 1.46247   1
  -4  10  16 62.8395 2.43943  -2
   4  10  15 62.8395 2.43943   1
  -5  10  16 283.708 17.6235  -2
   5  10  15 283.708 17.6235   1
  -6  10  17 314.867 8.52444  -2
   6  10  15 314.867 8.52444   1
  -7  10  17 20.9131 2.91492  -2
   7  10  15 20.9131 2.91492   1
  -9  10  18 3.29114 1.96573  -2
   9  10  15 3.29114 1.96573   1
 -10  10  18 30.1595 2.03261  -2
  10  10  15 30.1595 2.03261   1
  10  11  12 34.0531 1.92906  -2
 -10  11  15 34.0531 1.92906   1
   9  11  12 21.6815 1.92631  -2
  -9  11  15 21.6815 1.92631   1
   8  11  13 60.0066 6.30198  -2
  -8  11  15 60.0066 6.30198   1
   7  11  13 22.2161 2.44945  -2
  -7  11  15 22.2161 2.44945   1
   6  11  13 22.0324 3.74182  -2
  -6  11  15 22.0324 3.74182   1
   4  11  14 36.8046 2.64254  -2
  -4  11  15 36.8046 2.64254   1
   3  11  14 30.2683 2.07819  -2
  -3  11  15 30.2683 2.07819   1
   2  11  14 101.839 4.60870  -2
  -2  11  15 101.839 4.60870   1
   1  11  15 326.609 7.21704  -2
  -1  11  15 326.609 7.21704   1
   0  11  15 2.37502 1.52618  -2
   0  11  15 2.37502 1.52618   1
  -1  11  15 340.860 7.02809  -2
   1  11  15 340.860 7.02809   1
  -2  11  16 34.2741 3.09426  -2
   2  11  15 34.2741 3.09426   1
  -3  11  16 74.9999 2.67985  -2
   3  11  15 74.9999 2.67985   1
  -4  11  16 49.4621 2.25832  -2
   4  11  15 49.4621 2.25832   1
  -5  11  17 15.2006 5.97677  -2
   5  11  15 15.2006 5.97677   1
  -6  11  17 17.1008 2.62286  -2
   6  11  15 17.1008 2.62286   1
  -7  11  17 42.2902 3.04475  -2
   7  11  15 42.2902 3.04475   1
  -9  11  18 33.9409 2.04351  -2
   9  11  15 33.9409 2.04351   1
   9  12  12 27.6856 2.96398  -2
  -9  12  15 27.6856 2.96398   1
   8  12  13 0.06325 3.00211  -2
  -8  12  15 0.06325 3.00211   1
   8  12  12 93.4603 7.35503  -2
  -8  12  15 93.4603 7.35503   1
   7  12  13 5.35055 2.66823  -2
  -7  12  15 5.35055 2.66823   1
   6  12  13 62.6648 4.46432  -2
  -6  12  15 62.6648 4.46432   1
   4  12  14 52.2924 2.93907  -2
  -4  12  15 52.2924 2.93907   1
   3  12  14 68.9167 2.53218  -2
  -3  12  15 68.9167 2.53218   1
   2  12  14 138.564 5.18079  -2
  -2  12  15 138.564 5.18079   1
   1  12  15 69.7101 3.80817  -2
  -1  12  15 69.7101 3.80817   1
   0  12  15 56.3907 2.28466  -2
   0  12  15 56.3907 2.28466   1
  -1  12  15 69.5564 3.03550  -2
   1  12  15 69.5564 3.03550   1
  -2  12  16 14.7192 2.78577  -2
   2  12  15 14.7192 2.78577   1
  -3  12  16 1.31653 1.78849  -2
   3  12  15 1.31653 1.78849   1
  -4  12  16 4.36800 1.75148  -2
   4  12  15 4.36800 1.75148   1
  -5  12  17 21.2355 5.51649  -2
   5  12  15 21.2355 5.51649   1
  -6  12  17 44.1311 2.71055  -2
   6  12  15 44.1311 2.71055   1
  -7  12  17 11.3422 1.95078  -2
   7  12  15 11.3422 1.95078   1
   7  13  13 26.7141 1.97678  -2
  -7  13  15 26.7141 1.97678   1
   6  13  13 4.11602 2.55165  -2
  -6  13  15 4.11602 2.55165   1
   4  13  14 51.5702 2.69267  -2
  -4  13  15 51.5702 2.69267   1
   3  13  14 67.0163 2.64531  -2
  -3  13  15 67.0163 2.64531   1
   2  13  14 8.41881 3.07831  -2
  -2  13  15 8.41881 3.07831   1
   1  13  15 33.2773 3.13497  -2
  -1  13  15 33.2773 3.13497   1
   0  13  15 6.16017 1.92018  -2
   0  13  15 6.16017 1.92018   1
  -1  13  15 36.6182 2.73756  -2
   1  13  15 36.6182 2.73756   1
  -2  13  16 44.7824 3.26711  -2
   2  13  15 44.7824 3.26711   1
  -3  13  16 127.550 3.67545  -2
   3  13  15 127.550 3.67545   1
  -4  13  16 0.86660 1.92772  -2
   4  13  15 0.86660 1.92772   1
  -5  13  17 -2.7647 4.73700  -2
   5  13  15 -2.7647 4.73700   1
  -6  13  17 37.8365 2.57804  -2
   6  13  15 37.8365 2.57804   1
  -7  13  17 0.93827 1.72143  -2
   7  13  15 0.93827 1.72143   1
   7  14  13 14.6668 2.96355  -2
  -7  14  15 14.6668 2.96355   1
   6  14  13 7.92336 1.71906  -2
  -6  14  15 7.92336 1.71906   1
   4  14  14 1.26628 2.67614  -2
  -4  14  15 1.26628 2.67614   1
   3  14  14 0.71045 1.93943  -2
  -3  14  15 0.71045 1.93943   1
   2  14  14 16.4678 3.37062  -2
  -2  14  15 16.4678 3.37062   1
   1  14  15 36.5591 2.59695  -2
  -1  14  15 36.5591 2.59695   1
   0  14  15 78.2977 2.78262  -2
   0  14  15 78.2977 2.78262   1
  -1  14  15 36.9674 2.93115  -2
   1  14  15 36.9674 2.93115   1
  -2  14  16 0.04921 2.54587  -2
   2  14  15 0.04921 2.54587   1
  -3  14  16 38.2478 2.38210  -2
   3  14  15 38.2478 2.38210   1
  -4  14  16 30.2093 2.87404  -2
   4  14  15 30.2093 2.87404   1
   5  14  15 10.7250 2.70939   1
  -6  14  17 7.02977 1.70338  -2
   6  14  15 7.02977 1.70338   1
   4  15  14 45.6583 2.98879  -2
  -4  15  15 45.6583 2.98879   1
   3  15  14 52.4906 2.82046  -2
  -3  15  15 52.4906 2.82046   1
   2  15  14 20.2728 2.60087  -2
  -2  15  15 20.2728 2.60087   1
   1  15  15 44.2116 2.80544  -2
  -1  15  15 44.2116 2.80544   1
   0  15  15 4.20691 1.42063  -2
   0  15  15 4.20691 1.42063   1
  -1  15  15 39.0835 2.54637  -2
   1  15  15 39.0835 2.54637   1
  -2  15  16 54.5262 2.83231  -2
   2  15  15 54.5262 2.83231   1
  -3  15  16 11.7294 1.69419  -2
   3  15  15 11.7294 1.69419   1
  -4  15  16 55.9421 3.69705  -2
   4  15  15 55.9421 3.69705   1
   4  16  14 12.8880 4.31149  -2
  -4  16  15 12.8880 4.31149   1
   3  16  14 22.6600 2.14581  -2
  -3  16  15 22.6600 2.14581   1
   2  16  14 69.7198 4.64502  -2
  -2  16  15 69.7198 4.64502   1
   1  16  15 18.8186 3.12225  -2
  -1  16  15 18.8186 3.12225   1
   0  16  15 65.5079 3.62071  -2
   0  16  15 65.5079 3.62071   1
  -1  16  15 10.7703 2.17445  -2
   1  16  15 10.7703 2.17445   1
  -2  16  16 14.9452 3.87452  -2
   2  16  15 14.9452 3.87452   1
  -3  16  16 10.4901 2.70092  -2
   3  16  15 10.4901 2.70092   1
  13   0  12 50.2416 2.38623  -2
 -13   0  16 50.2416 2.38623   1
  12   0  12 3.16547 4.53979  -2
 -12   0  16 3.16547 4.53979   1
  12   0  12 6.99508 6.39320  -2
  12   0  13 6.99508 6.39320  -2
 -12   0  16 6.99508 6.39320   1
  11   0  13 17.4143 3.65162  -2
 -11   0  16 17.4143 3.65162   1
  10   0  13 5.97557 2.23729  -2
 -10   0  16 5.97557 2.23729   1
   9   0  13 76.6355 3.79749  -2
  -9   0  16 76.6355 3.79749   1
   7   0  14 55.7221 6.00701  -2
  -7   0  16 55.7221 6.00701   1
   6   0  14 60.2577 6.45477  -2
  -6   0  16 60.2577 6.45477   1
  -5   0  16 42.1536 4.91691   1
   4   0  15 70.6679 5.93072  -2
  -4   0  16 70.6679 5.93072   1
   3   0  15 83.0212 6.02208  -2
  -3   0  16 83.0212 6.02208   1
  -2   0  16 87.0256 5.90005   1
   1   0  16 13.2592 2.84060  -2
  -1   0  16 13.2592 2.84060   1
   0   0  16 921.128 31.5804  -2
   0   0  16 921.128 31.5804   1
  -1   0  16 10.0121 2.78575  -2
   1   0  16 10.0121 2.78575   1
  -2   0  17 135.000 6.24525  -2
   2   0  16 135.000 6.24525   1
  -3   0  17 153.755 6.66865  -2
   3   0  16 153.755 6.66865   1
  -4   0  17 155.898 5.91388  -2
   4   0  16 155.898 5.91388   1
  -5   0  18 114.578 10.5492  -2
   5   0  16 114.578 10.5492   1
  -6   0  18 366.896 10.2819  -2
   6   0  16 366.896 10.2819   1
  -7   0  18 841.254 25.5628  -2
   7   0  16 841.254 25.5628   1
  -8   0  18 92.3540 7.12797  -2
   8   0  16 92.3540 7.12797   1
  -9   0  19 10.9760 5.35805  -2
   9   0  16 10.9760 5.35805   1
 -10   0  19 10.7361 4.78794  -2
  10   0  16 10.7361 4.78794   1
  11   0  16 0.81007 2.60059   1
 -12   0  20 146.491 6.81517  -2
  12   0  16 146.491 6.81517   1
  13   1  12 11.1225 1.32553  -2
 -13   1  16 11.1225 1.32553   1
  12   1  13 86.5272 7.71552  -2
 -12   1  16 86.5272 7.71552   1
  12   1  12 52.4871 4.10774  -2
 -12   1  16 52.4871 4.10774   1
  11   1  13 4.11487 3.01094  -2
 -11   1  16 4.11487 3.01094   1
  10   1  13 56.3491 2.20147  -2
 -10   1  16 56.3491 2.20147   1
   9   1  13 151.739 3.92472  -2
  -9   1  16 151.739 3.92472   1
   8   1  14 -8.5075 7.43590  -2
  -8   1  16 -8.5075 7.43590   1
   7   1  14 75.1086 7.54653  -2
  -7   1  16 75.1086 7.54653   1
   6   1  14 72.0791 4.84678  -2
  -6   1  16 72.0791 4.84678   1
  -5   1  16 253.212 9.62368   1
   4   1  15 97.3469 4.94213  -2
  -4   1  16 97.3469 4.94213   1
   3   1  15 10.1839 2.46836  -2
  -3   1  16 10.1839 2.46836   1
   2   1  15 204.178 12.1380  -2
  -2   1  16 204.178 12.1380   1
   1   1  16 62.4685 3.24335  -2
  -1   1  16 62.4685 3.24335   1
   0   1  16 4.62526 1.28606  -2
   0   1  16 4.62526 1.28606   1
  -1   1  16 63.3304 2.84372  -2
   1   1  16 63.3304 2.84372   1
  -2   1  17 64.0462 3.05738  -2
   2   1  16 64.0462 3.05738   1
  -3   1  17 48.4388 2.28693  -2
   3   1  16 48.4388 2.28693   1
  -4   1  17 16.1774 2.03007  -2
   4   1  16 16.1774 2.03007   1
  -5   1  17 14.7329 5.50563  -2
   5   1  16 14.7329 5.50563   1
  -6   1  18 41.2591 2.31522  -2
   6   1  16 41.2591 2.31522   1
  -7   1  18 69.9267 2.75807  -2
   7   1  16 69.9267 2.75807   1
   8   1  16 152.275 7.16705   1
  -9   1  19 68.0799 3.75255  -2
   9   1  16 68.0799 3.75255   1
 -10   1  19 24.1790 4.09692  -2
  10   1  16 24.1790 4.09692   1
  11   1  16 6.77694 2.85090   1
  13   2  12 119.232 3.89510  -2
 -13   2  16 119.232 3.89510   1
  12   2  12 117.503 4.53553  -2
 -12   2  16 117.503 4.53553   1
  11   2  13 6.97924 1.90513  -2
 -11   2  16 6.97924 1.90513   1
  10   2  13 20.1474 1.65707  -2
 -10   2  16 20.1474 1.65707   1
   9   2  13 -4.4210 2.39839  -2
  -9   2  16 -4.4210 2.39839   1
   8   2  14 179.122 12.8146  -2
  -8   2  16 179.122 12.8146   1
   7   2  14 15.2747 3.94632  -2
  -7   2  16 15.2747 3.94632   1
   6   2  14 225.468 9.54467  -2
  -6   2  16 225.468 9.54467   1
  -5   2  16 67.1648 3.86593   1
   4   2  15 48.8479 3.56865  -2
  -4   2  16 48.8479 3.56865   1
   3   2  15 25.1576 2.83625  -2
  -3   2  16 25.1576 2.83625   1
   2   2  15 33.9298 5.10903  -2
  -2   2  16 33.9298 5.10903   1
   1   2  16 23.9345 2.53604  -2
  -1   2  16 23.9345 2.53604   1
   0   2  16 3.25536 1.31393  -2
   0   2  16 3.25536 1.31393   1
  -1   2  16 24.0937 2.08168  -2
   1   2  16 24.0937 2.08168   1
  -2   2  17 22.0661 2.48165  -2
   2   2  16 22.0661 2.48165   1
  -3   2  17 57.5766 2.49576  -2
   3   2  16 57.5766 2.49576   1
  -4   2  17 103.219 3.49442  -2
   4   2  16 103.219 3.49442   1
  -5   2  17 162.769 10.6495  -2
   5   2  16 162.769 10.6495   1
  -6   2  18 24.3913 2.74429  -2
   6   2  16 24.3913 2.74429   1
  -7   2  18 64.3361 2.89945  -2
   7   2  16 64.3361 2.89945   1
  -8   2  18 67.2515 6.87230  -2
   8   2  16 67.2515 6.87230   1
  -9   2  19 18.2650 3.35279  -2
   9   2  16 18.2650 3.35279   1
 -10   2  19 17.8501 2.49128  -2
  10   2  16 17.8501 2.49128   1
 -11   2  19 63.7574 5.80029  -2
  11   2  16 63.7574 5.80029   1
  13   3  12 3.04154 1.98523  -2
 -13   3  16 3.04154 1.98523   1
  12   3  12 2.81734 2.21252  -2
 -12   3  16 2.81734 2.21252   1
  12   3  13 1.88286 5.31178  -2
 -12   3  16 1.88286 5.31178   1
  11   3  13 13.5151 1.96810  -2
 -11   3  16 13.5151 1.96810   1
  10   3  13 58.4538 2.07336  -2
 -10   3  16 58.4538 2.07336   1
   9   3  13 8.18605 2.07247  -2
  -9   3  16 8.18605 2.07247   1
   8   3  14 94.2826 5.09768  -2
  -8   3  16 94.2826 5.09768   1
   7   3  14 4.19025 3.54591  -2
  -7   3  16 4.19025 3.54591   1
   6   3  14 75.4896 5.28733  -2
  -6   3  16 75.4896 5.28733   1
  -5   3  16 1.89222 2.84308   1
   4   3  15 528.558 19.0384  -2
  -4   3  16 528.558 19.0384   1
   3   3  15 13.4752 1.95279  -2
  -3   3  16 13.4752 1.95279   1
   2   3  15 346.626 18.7552  -2
  -2   3  16 346.626 18.7552   1
   1   3  16 153.636 5.39508  -2
  -1   3  16 153.636 5.39508   1
   0   3  16 42.8658 2.16725  -2
   0   3  16 42.8658 2.16725   1
  -1   3  16 145.933 4.71024  -2
   1   3  16 145.933 4.71024   1
  -2   3  17 171.780 6.32290  -2
   2   3  16 171.780 6.32290   1
  -3   3  17 26.7465 1.97670  -2
   3   3  16 26.7465 1.97670   1
  -4   3  17 189.747 5.22781  -2
   4   3  16 189.747 5.22781   1
  -5   3  17 141.142 10.5174  -2
   5   3  16 141.142 10.5174   1
  -6   3  18 125.608 4.36424  -2
   6   3  16 125.608 4.36424   1
  -7   3  18 33.5199 2.50880  -2
   7   3  16 33.5199 2.50880   1
  -8   3  18 31.2260 6.14670  -2
   8   3  16 31.2260 6.14670   1
  -9   3  19 21.2940 3.06481  -2
   9   3  16 21.2940 3.06481   1
 -10   3  19 2.43887 2.14637  -2
  10   3  16 2.43887 2.14637   1
 -11   3  19 2.44649 3.36079  -2
  11   3  16 2.44649 3.36079   1
  13   4  12 4.29778 1.67313  -2
 -13   4  16 4.29778 1.67313   1
  12   4  12 2.23732 2.06748  -2
 -12   4  16 2.23732 2.06748   1
  11   4  13 7.30395 1.73410  -2
 -11   4  16 7.30395 1.73410   1
  10   4  13 14.5461 1.45748  -2
 -10   4  16 14.5461 1.45748   1
   9   4  13 69.2420 2.85681  -2
  -9   4  16 69.2420 2.85681   1
   8   4  14 416.423 20.6125  -2
  -8   4  16 416.423 20.6125   1
   7   4  14 94.8324 5.74525  -2
  -7   4  16 94.8324 5.74525   1
   6   4  14 148.187 5.98248  -2
  -6   4  16 148.187 5.98248   1
  -5   4  16 -1.6400 2.94363   1
   4   4  15 132.718 6.37538  -2
  -4   4  16 132.718 6.37538   1
   3   4  15 45.8171 3.02658  -2
  -3   4  16 45.8171 3.02658   1
   2   4  15 192.562 11.5782  -2
  -2   4  16 192.562 11.5782   1
   1   4  16 251.044 7.92148  -2
  -1   4  16 251.044 7.92148   1
   0   4  16 3.32382 1.39862  -2
   0   4  16 3.32382 1.39862   1
  -1   4  16 252.885 7.14736  -2
   1   4  16 252.885 7.14736   1
  -2   4  17 336.853 10.8315  -2
   2   4  16 336.853 10.8315   1
  -3   4  17 27.9834 2.57407  -2
   3   4  16 27.9834 2.57407   1
  -4   4  17 57.0328 3.36375  -2
   4   4  16 57.0328 3.36375   1
  -5   4  17 111.990 8.37325  -2
   5   4  16 111.990 8.37325   1
  -6   4  18 132.533 5.66525  -2
   6   4  16 132.533 5.66525   1
  -7   4  18 21.9499 2.21873  -2
   7   4  16 21.9499 2.21873   1
   8   4  16 6.83194 4.27684   1
  -9   4  19 8.03090 2.82165  -2
   9   4  16 8.03090 2.82165   1
 -10   4  19 17.6658 2.48674  -2
  10   4  16 17.6658 2.48674   1
 -11   4  19 -1.0487 5.30820  -2
  11   4  16 -1.0487 5.30820   1
  12   5  12 43.4179 2.36111  -2
 -12   5  16 43.4179 2.36111   1
  12   5  13 44.9056 5.08760  -2
 -12   5  16 44.9056 5.08760   1
  11   5  13 29.9510 2.21760  -2
 -11   5  16 29.9510 2.21760   1
  10   5  13 48.4841 2.08408  -2
 -10   5  16 48.4841 2.08408   1
   9   5  13 35.8513 3.04319  -2
  -9   5  16 35.8513 3.04319   1
   8   5  14 3.92584 6.47348  -2
  -8   5  16 3.92584 6.47348   1
   7   5  14 43.7877 3.41155  -2
  -7   5  16 43.7877 3.41155   1
   6   5  14 54.2297 4.70293  -2
  -6   5  16 54.2297 4.70293   1
  -5   5  16 361.714 18.9042   1
   4   5  15 115.475 5.99049  -2
  -4   5  16 115.475 5.99049   1
   3   5  15 64.8191 3.52279  -2
  -3   5  16 64.8191 3.52279   1
   2   5  15 52.5333 4.35723  -2
  -2   5  16 52.5333 4.35723   1
   1   5  16 211.820 8.56624  -2
  -1   5  16 211.820 8.56624   1
   0   5  16 39.4907 2.43098  -2
   0   5  16 39.4907 2.43098   1
  -1   5  16 214.298 6.29499  -2
   1   5  16 214.298 6.29499   1
  -2   5  17 267.497 10.4805  -2
   2   5  16 267.497 10.4805   1
  -3   5  17 208.681 7.21792  -2
   3   5  16 208.681 7.21792   1
  -4   5  17 384.233 12.2019  -2
   4   5  16 384.233 12.2019   1
  -5   5  17 193.898 11.7115  -2
   5   5  16 193.898 11.7115   1
  -6   5  18 17.8700 2.77494  -2
   6   5  16 17.8700 2.77494   1
  -7   5  18 84.8694 3.44112  -2
   7   5  16 84.8694 3.44112   1
  -8   5  18 10.4142 8.29606  -2
   8   5  16 10.4142 8.29606   1
  -9   5  19 19.6571 3.35890  -2
   9   5  16 19.6571 3.35890   1
 -10   5  19 9.16910 2.39097  -2
  10   5  16 9.16910 2.39097   1
 -11   5  19 13.4365 3.06225  -2
  11   5  16 13.4365 3.06225   1
  12   6  12 18.1000 2.23151  -2
 -12   6  16 18.1000 2.23151   1
  12   6  13 14.4830 4.34208  -2
 -12   6  16 14.4830 4.34208   1
  11   6  13 8.88986 1.95318  -2
 -11   6  16 8.88986 1.95318   1
  10   6  13 4.03958 1.64065  -2
 -10   6  16 4.03958 1.64065   1
   9   6  13 64.9161 3.37650  -2
  -9   6  16 64.9161 3.37650   1
   8   6  14 152.868 7.33813  -2
  -8   6  16 152.868 7.33813   1
   7   6  14 534.586 9.98459  -2
  -7   6  16 534.586 9.98459   1
   6   6  14 58.4608 4.02485  -2
  -6   6  16 58.4608 4.02485   1
   5   6  14 396.915 22.2291  -2
  -5   6  16 396.915 22.2291   1
   4   6  15 118.331 6.13904  -2
  -4   6  16 118.331 6.13904   1
   3   6  15 55.2558 3.38029  -2
  -3   6  16 55.2558 3.38029   1
   2   6  15 157.084 5.85857  -2
  -2   6  16 157.084 5.85857   1
   1   6  16 260.029 10.1822  -2
  -1   6  16 260.029 10.1822   1
   0   6  16 193.259 11.0511  -2
   0   6  16 193.259 11.0511   1
  -1   6  16 257.319 10.8738  -2
   1   6  16 257.319 10.8738   1
  -2   6  17 106.783 5.56371  -2
   2   6  16 106.783 5.56371   1
  -3   6  17 11.4466 2.30387  -2
   3   6  16 11.4466 2.30387   1
  -4   6  17 165.613 5.48880  -2
   4   6  16 165.613 5.48880   1
  -5   6  18 175.144 12.5027  -2
   5   6  16 175.144 12.5027   1
  -6   6  18 479.011 10.1164  -2
   6   6  16 479.011 10.1164   1
  -7   6  18 323.395 7.29171  -2
   7   6  16 323.395 7.29171   1
  -8   6  18 272.164 16.6268  -2
   8   6  16 272.164 16.6268   1
  -9   6  19 30.8333 3.50632  -2
   9   6  16 30.8333 3.50632   1
 -10   6  19 34.0627 2.70415  -2
  10   6  16 34.0627 2.70415   1
 -11   6  19 8.84250 2.84956  -2
  11   6  16 8.84250 2.84956   1
  12   7  12 43.8516 2.43505  -2
 -12   7  16 43.8516 2.43505   1
  11   7  13 50.9811 2.46784  -2
 -11   7  16 50.9811 2.46784   1
  10   7  13 55.4422 2.36035  -2
 -10   7  16 55.4422 2.36035   1
   9   7  13 142.580 6.65357  -2
  -9   7  16 142.580 6.65357   1
   8   7  14 112.551 6.21648  -2
  -8   7  16 112.551 6.21648   1
   7   7  14 69.1207 2.77419  -2
  -7   7  16 69.1207 2.77419   1
   6   7  14 99.3587 3.27686  -2
  -6   7  16 99.3587 3.27686   1
   4   7  15 149.157 4.14411  -2
  -4   7  16 149.157 4.14411   1
   3   7  15 291.246 7.93878  -2
  -3   7  16 291.246 7.93878   1
   2   7  15 124.762 8.84129  -2
  -2   7  16 124.762 8.84129   1
   1   7  16 97.9679 4.45652  -2
  -1   7  16 97.9679 4.45652   1
   0   7  16 57.2994 3.51741  -2
   0   7  16 57.2994 3.51741   1
  -1   7  16 95.6428 5.07940  -2
   1   7  16 95.6428 5.07940   1
  -2   7  17 160.034 6.24423  -2
   2   7  16 160.034 6.24423   1
  -3   7  17 709.462 21.9694  -2
   3   7  16 709.462 21.9694   1
  -4   7  17 393.634 15.7927  -2
   4   7  16 393.634 15.7927   1
  -5   7  18 350.158 20.0840  -2
   5   7  16 350.158 20.0840   1
  -5   7  17 152.718 9.89164  -2
   5   7  16 152.718 9.89164   1
  -6   7  18 400.042 8.51735  -2
   6   7  16 400.042 8.51735   1
  -7   7  18 7.09960 2.43746  -2
   7   7  16 7.09960 2.43746   1
   8   7  16 56.4806 6.26315   1
  -9   7  19 16.8643 2.44322  -2
   9   7  16 16.8643 2.44322   1
 -10   7  19 35.9808 2.71578  -2
  10   7  16 35.9808 2.71578   1
 -11   7  19 21.9494 2.79524  -2
  11   7  16 21.9494 2.79524   1
  11   8  13 5.64936 2.17126  -2
 -11   8  16 5.64936 2.17126   1
  10   8  13 30.3142 2.52123  -2
 -10   8  16 30.3142 2.52123   1
   9   8  13 102.391 5.40217  -2
  -9   8  16 102.391 5.40217   1
   8   8  14 60.3531 4.81942  -2
  -8   8  16 60.3531 4.81942   1
   7   8  14 210.469 5.34107  -2
  -7   8  16 210.469 5.34107   1
   6   8  14 120.146 3.53954  -2
  -6   8  16 120.146 3.53954   1
   5   8  14 185.588 13.0075  -2
  -5   8  16 185.588 13.0075   1
   4   8  15 110.146 3.44982  -2
  -4   8  16 110.146 3.44982   1
   3   8  15 126.098 3.58363  -2
  -3   8  16 126.098 3.58363   1
   2   8  15 135.175 5.84491  -2
  -2   8  16 135.175 5.84491   1
   1   8  16 36.9878 2.56723  -2
  -1   8  16 36.9878 2.56723   1
   0   8  16 637.040 16.1387  -2
   0   8  16 637.040 16.1387   1
  -1   8  16 39.1588 2.96817  -2
   1   8  16 39.1588 2.96817   1
  -2   8  17 172.483 5.73048  -2
   2   8  16 172.483 5.73048   1
  -3   8  17 71.1444 2.89081  -2
   3   8  16 71.1444 2.89081   1
  -4   8  17 240.772 8.22413  -2
   4   8  16 240.772 8.22413   1
  -6   8  18 53.5904 3.39995  -2
   6   8  16 53.5904 3.39995   1
  -7   8  18 134.719 4.20846  -2
   7   8  16 134.719 4.20846   1
   8   8  16 9.08098 3.60128   1
  -9   8  19 11.3137 2.03720  -2
   9   8  16 11.3137 2.03720   1
 -10   8  19 50.3847 2.40707  -2
  10   8  16 50.3847 2.40707   1
  11   9  13 10.8405 2.37594  -2
 -11   9  16 10.8405 2.37594   1
  10   9  13 8.43127 1.70332  -2
 -10   9  16 8.43127 1.70332   1
   9   9  13 7.43929 2.82204  -2
  -9   9  16 7.43929 2.82204   1
   8   9  14 14.4959 3.80708  -2
  -8   9  16 14.4959 3.80708   1
   7   9  14 27.7847 2.72587  -2
  -7   9  16 27.7847 2.72587   1
   6   9  14 84.6777 2.96529  -2
  -6   9  16 84.6777 2.96529   1
  -5   9  16 -1.0212 2.50424   1
   4   9  15 94.9961 3.00150  -2
  -4   9  16 94.9961 3.00150   1
   3   9  15 215.519 4.19400  -2
  -3   9  16 215.519 4.19400   1
   2   9  15 272.577 7.19866  -2
  -2   9  16 272.577 7.19866   1
   1   9  16 14.0167 2.24744  -2
  -1   9  16 14.0167 2.24744   1
   0   9  16 13.8100 1.98127  -2
   0   9  16 13.8100 1.98127   1
  -1   9  16 14.6296 2.83133  -2
   1   9  16 14.6296 2.83133   1
  -2   9  17 388.177 9.18708  -2
   2   9  16 388.177 9.18708   1
  -3   9  17 343.803 5.82923  -2
   3   9  16 343.803 5.82923   1
  -4   9  17 126.670 3.02476  -2
   4   9  16 126.670 3.02476   1
   5   9  16 13.0146 4.16162   1
  -6   9  18 157.210 5.15626  -2
   6   9  16 157.210 5.15626   1
  -7   9  18 20.4202 2.67644  -2
   7   9  16 20.4202 2.67644   1
  -9   9  19 15.1027 2.15813  -2
   9   9  16 15.1027 2.15813   1
 -10   9  19 10.1679 1.78573  -2
  10   9  16 10.1679 1.78573   1
  10  10  13 6.08912 1.69351  -2
 -10  10  16 6.08912 1.69351   1
   9  10  13 16.0758 2.30231  -2
  -9  10  16 16.0758 2.30231   1
   8  10  14 22.4378 3.53229  -2
  -8  10  16 22.4378 3.53229   1
   7  10  14 9.47025 2.69534  -2
  -7  10  16 9.47025 2.69534   1
   6  10  14 40.7063 2.95436  -2
  -6  10  16 40.7063 2.95436   1
   5  10  14 495.406 24.6285  -2
  -5  10  16 495.406 24.6285   1
   4  10  15 62.4377 3.10206  -2
  -4  10  16 62.4377 3.10206   1
   3  10  15 4.43053 1.60437  -2
  -3  10  16 4.43053 1.60437   1
   2  10  15 228.647 5.75647  -2
  -2  10  16 228.647 5.75647   1
   1  10  16 230.875 4.88729  -2
  -1  10  16 230.875 4.88729   1
   0  10  16 124.932 3.18508  -2
   0  10  16 124.932 3.18508   1
  -1  10  16 238.397 5.28267  -2
   1  10  16 238.397 5.28267   1
  -2  10  17 3.96552 2.60554  -2
   2  10  16 3.96552 2.60554   1
  -3  10  17 2.33599 1.62151  -2
   3  10  16 2.33599 1.62151   1
  -4  10  17 5.35047 1.94160  -2
   4  10  16 5.35047 1.94160   1
  -5  10  17 78.2270 8.62967  -2
   5  10  16 78.2270 8.62967   1
  -6  10  18 27.2228 3.28207  -2
   6  10  16 27.2228 3.28207   1
  -7  10  18 63.0406 3.08935  -2
   7  10  16 63.0406 3.08935   1
  -9  10  19 6.67610 1.82497  -2
   9  10  16 6.67610 1.82497   1
  10  11  13 49.4637 2.51857  -2
 -10  11  16 49.4637 2.51857   1
   9  11  13 11.9295 1.64936  -2
  -9  11  16 11.9295 1.64936   1
   8  11  14 -5.3633 4.68264  -2
  -8  11  16 -5.3633 4.68264   1
   8  11  13 61.4479 6.60764  -2
  -8  11  16 61.4479 6.60764   1
   7  11  14 22.7851 2.57934  -2
  -7  11  16 22.7851 2.57934   1
   6  11  14 88.1196 4.28909  -2
  -6  11  16 88.1196 4.28909   1
   5  11  14 57.4295 6.69008  -2
  -5  11  16 57.4295 6.69008   1
   4  11  15 56.0634 2.91293  -2
  -4  11  16 56.0634 2.91293   1
   3  11  15 81.1993 2.81213  -2
  -3  11  16 81.1993 2.81213   1
   2  11  15 29.8931 3.63970  -2
  -2  11  16 29.8931 3.63970   1
   1  11  16 21.9406 2.32831  -2
  -1  11  16 21.9406 2.32831   1
   0  11  16 -0.0176 1.36510  -2
   0  11  16 -0.0176 1.36510   1
  -1  11  16 25.1261 2.29778  -2
   1  11  16 25.1261 2.29778   1
  -2  11  17 28.0200 3.00879  -2
   2  11  16 28.0200 3.00879   1
  -3  11  17 219.454 4.50325  -2
   3  11  16 219.454 4.50325   1
  -4  11  17 78.4495 2.65951  -2
   4  11  16 78.4495 2.65951   1
   5  11  16 2.45979 2.12780   1
  -6  11  18 133.755 4.41817  -2
   6  11  16 133.755 4.41817   1
  -7  11  18 8.81629 2.39712  -2
   7  11  16 8.81629 2.39712   1
  -8  11  18 12.5347 3.99641  -2
   8  11  16 12.5347 3.99641   1
  -9  11  19 2.05227 1.80241  -2
   9  11  16 2.05227 1.80241   1
   9  12  13 31.5110 2.95442  -2
  -9  12  16 31.5110 2.95442   1
   8  12  13 13.9428 3.40697  -2
  -8  12  16 13.9428 3.40697   1
   8  12  13 29.2205 5.26824  -2
   8  12  14 29.2205 5.26824  -2
  -8  12  16 29.2205 5.26824   1
   8  12  14 23.4294 3.23721  -2
  -8  12  16 23.4294 3.23721   1
   7  12  14 30.9476 2.96346  -2
  -7  12  16 30.9476 2.96346   1
   6  12  14 3.56083 3.13343  -2
  -6  12  16 3.56083 3.13343   1
   4  12  15 2.94604 2.38713  -2
  -4  12  16 2.94604 2.38713   1
   3  12  15 4.81774 1.75588  -2
  -3  12  16 4.81774 1.75588   1
   2  12  15 19.4977 3.28529  -2
  -2  12  16 19.4977 3.28529   1
   1  12  16 39.1551 3.02295  -2
  -1  12  16 39.1551 3.02295   1
   0  12  16 424.985 9.94281  -2
   0  12  16 424.985 9.94281   1
  -1  12  16 38.6589 2.61365  -2
   1  12  16 38.6589 2.61365   1
  -2  12  17 16.0626 2.74061  -2
   2  12  16 16.0626 2.74061   1
  -3  12  17 0.01858 1.74969  -2
   3  12  16 0.01858 1.74969   1
  -4  12  17 64.1112 2.59692  -2
   4  12  16 64.1112 2.59692   1
   5  12  16 15.4922 3.56066   1
  -6  12  18 86.9614 3.36162  -2
   6  12  16 86.9614 3.36162   1
  -7  12  18 13.8173 2.22016  -2
   7  12  16 13.8173 2.22016   1
  -8  12  18 20.4730 2.62559  -2
   8  12  16 20.4730 2.62559   1
   7  13  14 83.1709 2.97460  -2
  -7  13  16 83.1709 2.97460   1
   6  13  14 113.957 4.59401  -2
  -6  13  16 113.957 4.59401   1
   4  13  15 6.00892 2.08270  -2
  -4  13  16 6.00892 2.08270   1
   3  13  15 122.462 3.21161  -2
  -3  13  16 122.462 3.21161   1
   2  13  15 43.6831 3.97424  -2
  -2  13  16 43.6831 3.97424   1
   1  13  16 7.22614 2.74489  -2
  -1  13  16 7.22614 2.74489   1
   0  13  16 16.4913 2.18178  -2
   0  13  16 16.4913 2.18178   1
  -1  13  16 6.25587 2.39654  -2
   1  13  16 6.25587 2.39654   1
  -2  13  17 7.60571 2.87267  -2
   2  13  16 7.60571 2.87267   1
  -3  13  17 62.1461 2.51191  -2
   3  13  16 62.1461 2.51191   1
  -4  13  17 10.3553 2.01323  -2
   4  13  16 10.3553 2.01323   1
  -6  13  18 5.94073 1.97962  -2
   6  13  16 5.94073 1.97962   1
  -7  13  18 6.25993 1.64836  -2
   7  13  16 6.25993 1.64836   1
   7  14  14 15.5421 2.68317  -2
  -7  14  16 15.5421 2.68317   1
   6  14  14 84.4812 2.96742  -2
  -6  14  16 84.4812 2.96742   1
   4  14  15 21.4683 2.78996  -2
  -4  14  16 21.4683 2.78996   1
   3  14  15 36.8337 2.37053  -2
  -3  14  16 36.8337 2.37053   1
   2  14  15 0.77847 2.53983  -2
  -2  14  16 0.77847 2.53983   1
   1  14  16 25.5292 2.42178  -2
  -1  14  16 25.5292 2.42178   1
   0  14  16 -0.4152 1.41247  -2
   0  14  16 -0.4152 1.41247   1
  -1  14  16 26.0386 2.69404  -2
   1  14  16 26.0386 2.69404   1
  -2  14  17 1.39800 2.48515  -2
   2  14  16 1.39800 2.48515   1
  -3  14  17 23.1436 2.05612  -2
   3  14  16 23.1436 2.05612   1
  -4  14  17 77.1954 3.01026  -2
   4  14  16 77.1954 3.01026   1
  -6  14  18 15.0295 2.26486  -2
   6  14  16 15.0295 2.26486   1
   4  15  15 55.2341 3.12260  -2
  -4  15  16 55.2341 3.12260   1
   3  15  15 11.1159 2.00289  -2
  -3  15  16 11.1159 2.00289   1
   2  15  15 55.8947 3.42585  -2
  -2  15  16 55.8947 3.42585   1
   1  15  16 5.27347 2.20913  -2
  -1  15  16 5.27347 2.20913   1
   0  15  16 0.60453 1.34616  -2
   0  15  16 0.60453 1.34616   1
  -1  15  16 8.28320 2.11558  -2
   1  15  16 8.28320 2.11558   1
  -2  15  17 8.78910 2.16864  -2
   2  15  16 8.78910 2.16864   1
  -3  15  17 19.5266 2.07430  -2
   3  15  16 19.5266 2.07430   1
  -4  15  17 69.3738 4.95891  -2
   4  15  16 69.3738 4.95891   1
   3  16  15 10.2921 1.84055  -2
  -3  16  16 10.2921 1.84055   1
   2  16  15 13.5509 3.43114  -2
  -2  16  16 13.5509 3.43114   1
   1  16  16 -4.5800 3.41602  -2
  -1  16  16 -4.5800 3.41602   1
   0  16  16 4.80192 2.82142  -2
   0  16  16 4.80192 2.82142   1
  -1  16  16 4.13638 2.27986  -2
   1  16  16 4.13638 2.27986   1
  13   0  13 0.95530 1.77535  -2
 -13   0  17 0.95530 1.77535   1
  12   0  13 9.03828 4.44046  -2
 -12   0  17 9.03828 4.44046   1
  12   0  14 56.9397 5.34689  -2
 -12   0  17 56.9397 5.34689   1
  11   0  14 4.68995 3.50812  -2
 -11   0  17 4.68995 3.50812   1
  10   0  14 18.4380 2.55048  -2
 -10   0  17 18.4380 2.55048   1
   9   0  14 14.4516 3.00271  -2
  -9   0  17 14.4516 3.00271   1
   8   0  15 15.1443 6.37372  -2
  -8   0  17 15.1443 6.37372   1
   7   0  15 36.3540 6.97621  -2
  -7   0  17 36.3540 6.97621   1
   6   0  15 3.84821 5.00593  -2
  -6   0  17 3.84821 5.00593   1
  -5   0  17 -1.0854 2.10652   1
   4   0  16 146.411 9.21471  -2
  -4   0  17 146.411 9.21471   1
   3   0  16 160.368 9.44563  -2
  -3   0  17 160.368 9.44563   1
  -2   0  17 -1.9180 1.94671   1
   1   0  17 3.33783 2.76564  -2
  -1   0  17 3.33783 2.76564   1
   0   0  17 3.28799 1.82389  -2
   0   0  17 3.28799 1.82389   1
  -1   0  17 3.11180 2.77201  -2
   1   0  17 3.11180 2.77201   1
  -2   0  18 78.3659 4.92298  -2
   2   0  17 78.3659 4.92298   1
  -3   0  18 2.26405 2.64305  -2
   3   0  17 2.26405 2.64305   1
  -4   0  18 1.00798 2.66571  -2
   4   0  17 1.00798 2.66571   1
  -5   0  18 76.5729 7.60342  -2
   5   0  17 76.5729 7.60342   1
  -6   0  19 49.4611 4.23055  -2
   6   0  17 49.4611 4.23055   1
  -7   0  19 5.27819 2.55112  -2
   7   0  17 5.27819 2.55112   1
  -8   0  19 -4.8916 4.86339  -2
   8   0  17 -4.8916 4.86339   1
  -9   0  20 31.8860 5.65977  -2
   9   0  17 31.8860 5.65977   1
 -10   0  20 6.24106 4.58764  -2
  10   0  17 6.24106 4.58764   1
  11   0  17 -4.1126 2.52886   1
  13   1  13 -3.2650 1.47674  -2
 -13   1  17 -3.2650 1.47674   1
  12   1  13 66.3670 3.01616  -2
 -12   1  17 66.3670 3.01616   1
  12   1  14 58.3441 5.19793  -2
 -12   1  17 58.3441 5.19793   1
  11   1  14 0.20272 2.38834  -2
 -11   1  17 0.20272 2.38834   1
  10   1  14 15.7966 1.56665  -2
 -10   1  17 15.7966 1.56665   1
   9   1  14 181.552 4.01761  -2
  -9   1  17 181.552 4.01761   1
   8   1  15 135.655 9.73826  -2
  -8   1  17 135.655 9.73826   1
   7   1  15 4.98810 5.24998  -2
  -7   1  17 4.98810 5.24998   1
   6   1  15 25.9106 3.91015  -2
  -6   1  17 25.9106 3.91015   1
  -5   1  17 -0.5713 1.69090   1
   4   1  16 11.1621 2.86449  -2
  -4   1  17 11.1621 2.86449   1
   3   1  16 47.4423 3.46646  -2
  -3   1  17 47.4423 3.46646   1
  -2   1  17 1.77347 1.56920   1
   1   1  17 77.9721 3.64648  -2
  -1   1  17 77.9721 3.64648   1
   0   1  17 55.0808 2.32008  -2
   0   1  17 55.0808 2.32008   1
  -1   1  17 73.4861 3.15037  -2
   1   1  17 73.4861 3.15037   1
  -2   1  18 73.1682 3.12574  -2
   2   1  17 73.1682 3.12574   1
  -3   1  18 0.65803 1.71324  -2
   3   1  17 0.65803 1.71324   1
  -4   1  18 3.46612 1.88295  -2
   4   1  17 3.46612 1.88295   1
   5   1  17 36.7138 3.32000   1
  -6   1  19 323.757 7.65761  -2
   6   1  17 323.757 7.65761   1
  -7   1  19 36.2665 2.43179  -2
   7   1  17 36.2665 2.43179   1
   8   1  17 122.870 6.06984   1
  -9   1  20 11.6482 2.82064  -2
   9   1  17 11.6482 2.82064   1
 -10   1  20 19.4328 3.77506  -2
  10   1  17 19.4328 3.77506   1
  11   1  17 -2.0241 2.42029   1
 -12   1  21 -0.7852 4.28697  -2
  12   1  17 -0.7852 4.28697   1
  13   2  13 1.59771 1.81334  -2
 -13   2  17 1.59771 1.81334   1
  12   2  13 94.1736 3.49288  -2
 -12   2  17 94.1736 3.49288   1
  12   2  14 53.7651 5.00287  -2
 -12   2  17 53.7651 5.00287   1
  11   2  14 39.5515 2.16573  -2
 -11   2  17 39.5515 2.16573   1
  10   2  14 17.4789 1.58144  -2
 -10   2  17 17.4789 1.58144   1
   9   2  14 0.66084 2.21597  -2
  -9   2  17 0.66084 2.21597   1
   8   2  15 80.2303 3.63199  -2
  -8   2  17 80.2303 3.63199   1
   7   2  15 45.1228 7.29241  -2
  -7   2  17 45.1228 7.29241   1
   6   2  15 640.969 22.8720  -2
  -6   2  17 640.969 22.8720   1
  -5   2  17 13.3039 2.33550   1
   4   2  16 98.8406 5.07860  -2
  -4   2  17 98.8406 5.07860   1
   3   2  16 62.1214 3.90079  -2
  -3   2  17 62.1214 3.90079   1
  -2   2  17 9.40136 2.07868   1
   1   2  17 72.3340 3.57872  -2
  -1   2  17 72.3340 3.57872   1
   0   2  17 82.3479 3.06415  -2
   0   2  17 82.3479 3.06415   1
  -1   2  17 68.8476 3.19624  -2
   1   2  17 68.8476 3.19624   1
  -2   2  18 93.9334 3.86789  -2
   2   2  17 93.9334 3.86789   1
  -3   2  18 -0.7407 1.70644  -2
   3   2  17 -0.7407 1.70644   1
  -4   2  18 64.0732 2.83634  -2
   4   2  17 64.0732 2.83634   1
  -5   2  18 193.123 12.1497  -2
   5   2  17 193.123 12.1497   1
  -6   2  19 18.4390 2.52354  -2
   6   2  17 18.4390 2.52354   1
  -7   2  19 192.625 5.83263  -2
   7   2  17 192.625 5.83263   1
   8   2  17 23.8269 4.65760   1
  -9   2  20 16.7606 3.17273  -2
   9   2  17 16.7606 3.17273   1
 -10   2  20 4.92028 2.21963  -2
  10   2  17 4.92028 2.21963   1
  11   2  17 33.4246 3.97466   1
  12   3  13 -1.4713 2.44835  -2
 -12   3  17 -1.4713 2.44835   1
  11   3  14 1.03273 1.65879  -2
 -11   3  17 1.03273 1.65879   1
  10   3  14 49.2259 1.91968  -2
 -10   3  17 49.2259 1.91968   1
   9   3  14 54.5347 2.46906  -2
  -9   3  17 54.5347 2.46906   1
   8   3  15 163.721 5.47354  -2
  -8   3  17 163.721 5.47354   1
   7   3  15 107.428 4.78559  -2
  -7   3  17 107.428 4.78559   1
   6   3  15 87.9139 4.67387  -2
  -6   3  17 87.9139 4.67387   1
  -5   3  17 77.9769 6.30781   1
   4   3  16 191.072 11.2564  -2
  -4   3  17 191.072 11.2564   1
   3   3  16 23.2832 2.93380  -2
  -3   3  17 23.2832 2.93380   1
  -2   3  17 67.4722 3.73124   1
   1   3  17 78.8846 3.76451  -2
  -1   3  17 78.8846 3.76451   1
   0   3  17 13.2044 1.66523  -2
   0   3  17 13.2044 1.66523   1
  -1   3  17 81.8649 3.46407  -2
   1   3  17 81.8649 3.46407   1
  -2   3  18 42.8541 4.33552  -2
   2   3  17 42.8541 4.33552   1
  -3   3  18 299.559 8.30970  -2
   3   3  17 299.559 8.30970   1
  -4   3  18 23.8983 2.23892  -2
   4   3  17 23.8983 2.23892   1
  -5   3  18 48.2420 7.37206  -2
   5   3  17 48.2420 7.37206   1
  -6   3  19 13.9323 2.24692  -2
   6   3  17 13.9323 2.24692   1
  -7   3  19 77.2653 3.16073  -2
   7   3  17 77.2653 3.16073   1
  -8   3  19 36.8451 6.22359  -2
   8   3  17 36.8451 6.22359   1
  -9   3  20 3.83944 3.12483  -2
   9   3  17 3.83944 3.12483   1
 -10   3  20 -0.1632 1.69781  -2
  10   3  17 -0.1632 1.69781   1
  11   3  17 22.9538 3.41759   1
  12   4  13 47.4832 2.62749  -2
 -12   4  17 47.4832 2.62749   1
  11   4  14 8.12143 1.60219  -2
 -11   4  17 8.12143 1.60219   1
  10   4  14 19.6527 1.51444  -2
 -10   4  17 19.6527 1.51444   1
   9   4  14 65.6209 2.55065  -2
  -9   4  17 65.6209 2.55065   1
   8   4  15 105.760 4.98903  -2
  -8   4  17 105.760 4.98903   1
   7   4  15 39.4379 3.47394  -2
  -7   4  17 39.4379 3.47394   1
   6   4  15 760.472 22.5518  -2
  -6   4  17 760.472 22.5518   1
  -5   4  17 79.6982 6.59665   1
   4   4  16 62.3464 4.57759  -2
  -4   4  17 62.3464 4.57759   1
   3   4  16 24.2797 2.70385  -2
  -3   4  17 24.2797 2.70385   1
   2   4  16 335.626 18.4910  -2
  -2   4  17 335.626 18.4910   1
   1   4  17 10.5089 2.50655  -2
  -1   4  17 10.5089 2.50655   1
   0   4  17 530.082 13.5765  -2
   0   4  17 530.082 13.5765   1
  -1   4  17 8.58237 2.32362  -2
   1   4  17 8.58237 2.32362   1
  -2   4  18 79.2731 5.52215  -2
   2   4  17 79.2731 5.52215   1
  -3   4  18 11.3034 2.28097  -2
   3   4  17 11.3034 2.28097   1
  -4   4  18 17.3434 2.73774  -2
   4   4  17 17.3434 2.73774   1
  -5   4  18 169.947 10.9821  -2
   5   4  17 169.947 10.9821   1
  -6   4  19 89.1473 4.36663  -2
   6   4  17 89.1473 4.36663   1
  -7   4  19 189.276 5.27541  -2
   7   4  17 189.276 5.27541   1
   8   4  17 23.0251 4.64116   1
  -9   4  20 5.28177 2.27680  -2
   9   4  17 5.28177 2.27680   1
 -10   4  20 8.88188 2.29937  -2
  10   4  17 8.88188 2.29937   1
  11   4  17 24.1675 3.52681   1
  12   5  13 30.0955 2.34634  -2
 -12   5  17 30.0955 2.34634   1
  11   5  14 97.1218 3.13755  -2
 -11   5  17 97.1218 3.13755   1
  10   5  14 82.1017 2.53134  -2
 -10   5  17 82.1017 2.53134   1
   9   5  14 75.1165 3.02810  -2
  -9   5  17 75.1165 3.02810   1
   8   5  15 46.6716 7.23806  -2
  -8   5  17 46.6716 7.23806   1
   8   5  15 69.0001 9.03851  -2
   8   5  14 69.0001 9.03851  -2
  -8   5  17 69.0001 9.03851   1
   7   5  15 98.0201 3.55273  -2
  -7   5  17 98.0201 3.55273   1
   6   5  15 85.6366 4.77329  -2
  -6   5  17 85.6366 4.77329   1
   5   5  15 248.934 15.3981  -2
  -5   5  17 248.934 15.3981   1
   4   5  16 435.173 16.2082  -2
  -4   5  17 435.173 16.2082   1
   3   5  16 214.725 7.35263  -2
  -3   5  17 214.725 7.35263   1
   2   5  16 261.553 10.4329  -2
  -2   5  17 261.553 10.4329   1
   1   5  17 56.0169 4.12083  -2
  -1   5  17 56.0169 4.12083   1
   0   5  17 3.22983 1.54606  -2
   0   5  17 3.22983 1.54606   1
  -1   5  17 51.9789 2.94101  -2
   1   5  17 51.9789 2.94101   1
  -2   5  18 146.828 6.90611  -2
   2   5  17 146.828 6.90611   1
  -3   5  18 238.483 8.13702  -2
   3   5  17 238.483 8.13702   1
  -4   5  18 460.557 12.4352  -2
   4   5  17 460.557 12.4352   1
  -5   5  18 194.076 12.0781  -2
   5   5  17 194.076 12.0781   1
  -6   5  19 60.6287 2.81754  -2
   6   5  17 60.6287 2.81754   1
  -7   5  19 25.2478 2.54909  -2
   7   5  17 25.2478 2.54909   1
  -8   5  19 29.7103 8.24427  -2
   8   5  17 29.7103 8.24427   1
  -9   5  20 100.357 4.67533  -2
   9   5  17 100.357 4.67533   1
 -10   5  20 9.13943 2.33203  -2
  10   5  17 9.13943 2.33203   1
 -11   5  20 43.0034 3.25079  -2
  11   5  17 43.0034 3.25079   1
  12   6  13 3.63903 2.01611  -2
 -12   6  17 3.63903 2.01611   1
  11   6  14 119.483 3.42733  -2
 -11   6  17 119.483 3.42733   1
  10   6  14 12.7576 1.70397  -2
 -10   6  17 12.7576 1.70397   1
   9   6  14 74.5621 3.43814  -2
  -9   6  17 74.5621 3.43814   1
   8   6  15 37.8008 4.52742  -2
  -8   6  17 37.8008 4.52742   1
   7   6  15 59.8150 2.70396  -2
  -7   6  17 59.8150 2.70396   1
   6   6  15 83.5223 3.46351  -2
  -6   6  17 83.5223 3.46351   1
   5   6  15 209.111 14.1289  -2
  -5   6  17 209.111 14.1289   1
   4   6  16 171.033 5.73180  -2
  -4   6  17 171.033 5.73180   1
   3   6  16 11.4408 2.14553  -2
  -3   6  17 11.4408 2.14553   1
   2   6  16 108.393 4.70338  -2
  -2   6  17 108.393 4.70338   1
   1   6  17 15.5349 3.29014  -2
  -1   6  17 15.5349 3.29014   1
   0   6  17 268.112 14.8322  -2
   0   6  17 268.112 14.8322   1
  -1   6  17 25.1566 3.59458  -2
   1   6  17 25.1566 3.59458   1
  -2   6  18 24.9501 4.93774  -2
   2   6  17 24.9501 4.93774   1
  -3   6  18 73.6878 3.79196  -2
   3   6  17 73.6878 3.79196   1
  -4   6  18 0.93730 2.82933  -2
   4   6  17 0.93730 2.82933   1
  -5   6  19 26.4266 7.37743  -2
   5   6  17 26.4266 7.37743   1
  -5   6  18 49.4744 6.17195  -2
   5   6  17 49.4744 6.17195   1
  -6   6  19 101.135 4.20500  -2
   6   6  17 101.135 4.20500   1
  -7   6  19 13.0267 2.04162  -2
   7   6  17 13.0267 2.04162   1
  -8   6  19 42.9176 8.55020  -2
   8   6  17 42.9176 8.55020   1
  -9   6  20 1.10926 2.95635  -2
   9   6  17 1.10926 2.95635   1
 -10   6  20 12.5870 2.18980  -2
  10   6  17 12.5870 2.18980   1
 -11   6  20 35.3127 3.08929  -2
  11   6  17 35.3127 3.08929   1
  11   7  14 14.4298 2.16934  -2
 -11   7  17 14.4298 2.16934   1
  10   7  14 35.7221 2.54630  -2
 -10   7  17 35.7221 2.54630   1
   9   7  14 20.1209 3.80526  -2
  -9   7  17 20.1209 3.80526   1
   8   7  15 65.9272 4.72242  -2
  -8   7  17 65.9272 4.72242   1
   7   7  15 132.039 3.44371  -2
  -7   7  17 132.039 3.44371   1
   6   7  15 148.152 3.76728  -2
  -6   7  17 148.152 3.76728   1
   5   7  15 298.468 17.8393  -2
  -5   7  17 298.468 17.8393   1
   4   7  16 450.704 11.9335  -2
  -4   7  17 450.704 11.9335   1
   3   7  16 680.809 15.4004  -2
  -3   7  17 680.809 15.4004   1
   2   7  16 171.647 11.1504  -2
  -2   7  17 171.647 11.1504   1
   1   7  17 80.6933 6.85380  -2
  -1   7  17 80.6933 6.85380   1
   0   7  17 2.00123 1.88466  -2
   0   7  17 2.00123 1.88466   1
  -1   7  17 76.9596 4.86763  -2
   1   7  17 76.9596 4.86763   1
  -2   7  18 178.365 5.94312  -2
   2   7  17 178.365 5.94312   1
  -3   7  18 211.713 9.43545  -2
   3   7  17 211.713 9.43545   1
  -4   7  18 566.896 17.3671  -2
   4   7  17 566.896 17.3671   1
  -5   7  19 85.4434 8.99669  -2
   5   7  17 85.4434 8.99669   1
  -5   7  18 263.870 14.9914  -2
   5   7  17 263.870 14.9914   1
  -6   7  19 104.640 3.45237  -2
   6   7  17 104.640 3.45237   1
  -7   7  19 16.3078 2.47311  -2
   7   7  17 16.3078 2.47311   1
  -8   7  19 53.1542 8.80213  -2
   8   7  17 53.1542 8.80213   1
  -9   7  20 19.7314 3.05476  -2
   9   7  17 19.7314 3.05476   1
 -10   7  20 -0.7589 1.98433  -2
  10   7  17 -0.7589 1.98433   1
  11   8  14 2.36456 2.04703  -2
 -11   8  17 2.36456 2.04703   1
  10   8  14 23.5629 2.00520  -2
 -10   8  17 23.5629 2.00520   1
   9   8  14 62.9233 4.34613  -2
  -9   8  17 62.9233 4.34613   1
   8   8  15 82.7141 5.21840  -2
  -8   8  17 82.7141 5.21840   1
   7   8  15 26.1815 2.02409  -2
  -7   8  17 26.1815 2.02409   1
   6   8  15 214.659 5.06762  -2
  -6   8  17 214.659 5.06762   1
   5   8  15 409.288 14.8424  -2
  -5   8  17 409.288 14.8424   1
   4   8  16 271.174 5.74363  -2
  -4   8  17 271.174 5.74363   1
   3   8  16 73.9788 3.04297  -2
  -3   8  17 73.9788 3.04297   1
   2   8  16 155.582 5.51825  -2
  -2   8  17 155.582 5.51825   1
   1   8  17 22.2105 2.58671  -2
  -1   8  17 22.2105 2.58671   1
   0   8  17 129.691 3.86572  -2
   0   8  17 129.691 3.86572   1
  -1   8  17 24.2497 2.85778  -2
   1   8  17 24.2497 2.85778   1
  -2   8  18 18.1459 3.06869  -2
   2   8  17 18.1459 3.06869   1
  -3   8  18 6.38998 1.89952  -2
   3   8  17 6.38998 1.89952   1
  -4   8  18 31.5695 2.31290  -2
   4   8  17 31.5695 2.31290   1
  -6   8  19 62.2289 3.51254  -2
   6   8  17 62.2289 3.51254   1
  -7   8  19 47.0568 2.73825  -2
   7   8  17 47.0568 2.73825   1
   8   8  17 1.86265 3.17144   1
  -9   8  20 39.1232 2.27333  -2
   9   8  17 39.1232 2.27333   1
 -10   8  20 4.58431 1.73642  -2
  10   8  17 4.58431 1.73642   1
 -11   9  17 5.88517 1.38340   1
  10   9  14 8.91063 1.60304  -2
 -10   9  17 8.91063 1.60304   1
   9   9  14 6.23430 3.05131  -2
  -9   9  17 6.23430 3.05131   1
   8   9  15 11.2104 3.64528  -2
  -8   9  17 11.2104 3.64528   1
   8   9  15 23.7158 7.41759  -2
   8   9  14 23.7158 7.41759  -2
  -8   9  17 23.7158 7.41759   1
   7   9  15 26.7573 2.61580  -2
  -7   9  17 26.7573 2.61580   1
   6   9  15 223.620 5.17691  -2
  -6   9  17 223.620 5.17691   1
   5   9  15 122.401 10.4896  -2
  -5   9  17 122.401 10.4896   1
   4   9  16 135.626 3.92549  -2
  -4   9  17 135.626 3.92549   1
   3   9  16 358.140 6.32437  -2
  -3   9  17 358.140 6.32437   1
   2   9  16 387.853 7.34478  -2
  -2   9  17 387.853 7.34478   1
   1   9  17 202.292 4.40392  -2
  -1   9  17 202.292 4.40392   1
   0   9  17 57.6920 2.37134  -2
   0   9  17 57.6920 2.37134   1
  -1   9  17 200.050 5.13042  -2
   1   9  17 200.050 5.13042   1
  -2   9  18 86.4813 2.91356  -2
   2   9  17 86.4813 2.91356   1
  -3   9  18 146.279 3.33537  -2
   3   9  17 146.279 3.33537   1
  -4   9  18 107.802 3.10639  -2
   4   9  17 107.802 3.10639   1
   5   9  17 78.1816 7.42382   1
  -6   9  19 5.00594 2.65564  -2
   6   9  17 5.00594 2.65564   1
  -7   9  19 34.4109 2.71787  -2
   7   9  17 34.4109 2.71787   1
  -8   9  19 2.59172 4.15860  -2
   8   9  17 2.59172 4.15860   1
  -9   9  20 15.2680 2.03521  -2
   9   9  17 15.2680 2.03521   1
 -10   9  20 6.57933 1.62937  -2
  10   9  17 6.57933 1.62937   1
  10  10  14 5.22629 1.58382  -2
 -10  10  17 5.22629 1.58382   1
   9  10  14 12.8079 2.23005  -2
  -9  10  17 12.8079 2.23005   1
   8  10  15 51.4511 4.02374  -2
  -8  10  17 51.4511 4.02374   1
   7  10  15 16.0778 2.38771  -2
  -7  10  17 16.0778 2.38771   1
   6  10  15 308.341 7.29141  -2
  -6  10  17 308.341 7.29141   1
   4  10  16 8.41991 2.52963  -2
  -4  10  17 8.41991 2.52963   1
   3  10  16 2.41844 1.94415  -2
  -3  10  17 2.41844 1.94415   1
   2  10  16 6.17063 2.95891  -2
  -2  10  17 6.17063 2.95891   1
   1  10  17 16.3065 2.24562  -2
  -1  10  17 16.3065 2.24562   1
   0  10  17 14.4109 1.56166  -2
   0  10  17 14.4109 1.56166   1
  -1  10  17 17.0848 2.55411  -2
   1  10  17 17.0848 2.55411   1
  -2  10  18 13.1291 2.63821  -2
   2  10  17 13.1291 2.63821   1
  -3  10  18 13.0252 1.74874  -2
   3  10  17 13.0252 1.74874   1
  -4  10  18 56.0520 2.54750  -2
   4  10  17 56.0520 2.54750   1
   5  10  17 78.8766 7.21039   1
  -6  10  19 15.8551 3.01568  -2
   6  10  17 15.8551 3.01568   1
  -7  10  19 123.849 4.08408  -2
   7  10  17 123.849 4.08408   1
  -8  10  19 6.83653 3.74911  -2
   8  10  17 6.83653 3.74911   1
  -9  10  20 27.9583 1.95641  -2
   9  10  17 27.9583 1.95641   1
   9  11  14 30.3320 1.79214  -2
  -9  11  17 30.3320 1.79214   1
   8  11  15 4.12739 2.61260  -2
  -8  11  17 4.12739 2.61260   1
   7  11  15 45.1208 3.20264  -2
  -7  11  17 45.1208 3.20264   1
   6  11  15 17.7233 2.95582  -2
  -6  11  17 17.7233 2.95582   1
   4  11  16 81.2908 3.23297  -2
  -4  11  17 81.2908 3.23297   1
   3  11  16 213.175 5.00502  -2
  -3  11  17 213.175 5.00502   1
   2  11  16 22.0067 2.95325  -2
  -2  11  17 22.0067 2.95325   1
   1  11  17 81.2695 3.06896  -2
  -1  11  17 81.2695 3.06896   1
   0  11  17 123.720 3.36786  -2
   0  11  17 123.720 3.36786   1
  -1  11  17 79.0377 2.93675  -2
   1  11  17 79.0377 2.93675   1
  -2  11  18 71.4867 3.23484  -2
   2  11  17 71.4867 3.23484   1
  -3  11  18 66.8168 2.33497  -2
   3  11  17 66.8168 2.33497   1
  -4  11  18 56.7944 2.37877  -2
   4  11  17 56.7944 2.37877   1
  -6  11  19 32.3026 2.99820  -2
   6  11  17 32.3026 2.99820   1
  -7  11  19 10.1693 2.37439  -2
   7  11  17 10.1693 2.37439   1
  -8  11  19 15.1641 2.74467  -2
   8  11  17 15.1641 2.74467   1
   9  12  14 12.1701 2.45471  -2
  -9  12  17 12.1701 2.45471   1
   8  12  15 35.4455 2.68552  -2
  -8  12  17 35.4455 2.68552   1
   7  12  15 8.48597 2.54338  -2
  -7  12  17 8.48597 2.54338   1
   6  12  15 36.3787 2.99096  -2
  -6  12  17 36.3787 2.99096   1
   5  12  15 22.4444 5.58554  -2
  -5  12  17 22.4444 5.58554   1
   4  12  16 72.2651 2.94653  -2
  -4  12  17 72.2651 2.94653   1
   3  12  16 -0.0946 1.75991  -2
  -3  12  17 -0.0946 1.75991   1
   2  12  16 21.1802 3.30651  -2
  -2  12  17 21.1802 3.30651   1
   1  12  17 119.192 4.12608  -2
  -1  12  17 119.192 4.12608   1
   0  12  17 4.74971 1.39621  -2
   0  12  17 4.74971 1.39621   1
  -1  12  17 115.471 3.69433  -2
   1  12  17 115.471 3.69433   1
  -2  12  18 43.9120 2.98262  -2
   2  12  17 43.9120 2.98262   1
  -3  12  18 13.3109 1.82514  -2
   3  12  17 13.3109 1.82514   1
  -4  12  18 1.94498 1.85012  -2
   4  12  17 1.94498 1.85012   1
  -6  12  19 8.20533 2.06222  -2
   6  12  17 8.20533 2.06222   1
  -7  12  19 53.8900 2.73187  -2
   7  12  17 53.8900 2.73187   1
  -8  12  19 3.76793 2.20419  -2
   8  12  17 3.76793 2.20419   1
   7  13  15 5.20010 1.56485  -2
  -7  13  17 5.20010 1.56485   1
   6  13  15 33.0174 2.77981  -2
  -6  13  17 33.0174 2.77981   1
   5  13  16 28.0818 6.81167  -2
   5  13  15 28.0818 6.81167  -2
  -5  13  17 28.0818 6.81167   1
   4  13  16 12.3447 2.10182  -2
  -4  13  17 12.3447 2.10182   1
   3  13  16 62.8720 2.50529  -2
  -3  13  17 62.8720 2.50529   1
   2  13  16 3.40326 3.32075  -2
  -2  13  17 3.40326 3.32075   1
   1  13  17 9.18719 2.73555  -2
  -1  13  17 9.18719 2.73555   1
   0  13  17 1.75075 1.62076  -2
   0  13  17 1.75075 1.62076   1
  -1  13  17 11.0517 2.43207  -2
   1  13  17 11.0517 2.43207   1
  -2  13  18 20.3127 2.88613  -2
   2  13  17 20.3127 2.88613   1
  -3  13  18 17.1844 1.78910  -2
   3  13  17 17.1844 1.78910   1
  -4  13  18 110.800 3.30479  -2
   4  13  17 110.800 3.30479   1
   5  13  17 0.52878 2.34316   1
  -6  13  19 9.67521 1.87829  -2
   6  13  17 9.67521 1.87829   1
  -7  13  19 -0.0292 1.67930  -2
   7  13  17 -0.0292 1.67930   1
   6  14  15 6.87242 1.64205  -2
  -6  14  17 6.87242 1.64205   1
   4  14  16 71.5346 4.55759  -2
  -4  14  17 71.5346 4.55759   1
   3  14  16 19.9174 2.03372  -2
  -3  14  17 19.9174 2.03372   1
   2  14  16 1.86958 2.44137  -2
  -2  14  17 1.86958 2.44137   1
   1  14  17 12.2878 2.19373  -2
  -1  14  17 12.2878 2.19373   1
   0  14  17 2.66893 1.43706  -2
   0  14  17 2.66893 1.43706   1
  -1  14  17 9.59489 2.38151  -2
   1  14  17 9.59489 2.38151   1
  -2  14  18 13.5876 2.50289  -2
   2  14  17 13.5876 2.50289   1
  -3  14  18 24.5211 2.03425  -2
   3  14  17 24.5211 2.03425   1
  -4  14  18 3.05874 2.29984  -2
   4  14  17 3.05874 2.29984   1
  -5  14  19 4.87019 4.23714  -2
   5  14  17 4.87019 4.23714   1
   3  15  16 17.5128 1.86360  -2
  -3  15  17 17.5128 1.86360   1
   2  15  16 12.0188 3.30223  -2
  -2  15  17 12.0188 3.30223   1
   1  15  17 16.1876 2.13093  -2
  -1  15  17 16.1876 2.13093   1
   0  15  17 0.14433 1.24712  -2
   0  15  17 0.14433 1.24712   1
  -1  15  17 13.2157 2.12323  -2
   1  15  17 13.2157 2.12323   1
  -2  15  18 1.43996 2.44824  -2
   2  15  17 1.43996 2.44824   1
  -3  15  18 69.9675 3.45961  -2
   3  15  17 69.9675 3.45961   1
  -4  15  18 12.4277 3.23694  -2
   4  15  17 12.4277 3.23694   1
  -2  16  17 4.79066 2.09444   1
   1  16  17 3.95235 3.39882  -2
  -1  16  17 3.95235 3.39882   1
   0  16  17 123.664 7.13925  -2
   0  16  17 123.664 7.13925   1
  -1  16  17 -1.5887 3.27854  -2
   1  16  17 -1.5887 3.27854   1
  12   0  14 64.1692 4.20120  -2
 -12   0  18 64.1692 4.20120   1
  11   0  15 -1.7604 2.71251  -2
 -11   0  18 -1.7604 2.71251   1
  10   0  15 32.2337 2.88169  -2
 -10   0  18 32.2337 2.88169   1
   9   0  15 124.987 4.59871  -2
  -9   0  18 124.987 4.59871   1
   8   0  16 101.263 5.02239  -2
  -8   0  18 101.263 5.02239   1
   7   0  16 869.134 29.4881  -2
  -7   0  18 869.134 29.4881   1
   6   0  16 415.486 21.6712  -2
  -6   0  18 415.486 21.6712   1
  -5   0  18 1.82242 2.58860   1
   4   0  17 -0.2233 3.99991  -2
  -4   0  18 -0.2233 3.99991   1
   3   0  17 3.80578 3.39709  -2
  -3   0  18 3.80578 3.39709   1
  -2   0  18 69.6088 5.58978   1
   1   0  18 225.232 12.6297  -2
  -1   0  18 225.232 12.6297   1
   0   0  18 945.680 32.5832  -2
   0   0  18 945.680 32.5832   1
  -1   0  18 223.530 9.03073  -2
   1   0  18 223.530 9.03073   1
  -2   0  19 151.227 7.06442  -2
   2   0  18 151.227 7.06442   1
  -3   0  19 105.320 4.62975  -2
   3   0  18 105.320 4.62975   1
  -4   0  19 67.2922 4.04811  -2
   4   0  18 67.2922 4.04811   1
  -5   0  20 449.385 23.8878  -2
   5   0  18 449.385 23.8878   1
  -5   0  19 414.188 22.8529  -2
   5   0  18 414.188 22.8529   1
  -6   0  20 308.274 8.65515  -2
   6   0  18 308.274 8.65515   1
  -7   0  20 197.152 6.71380  -2
   7   0  18 197.152 6.71380   1
   8   0  18 183.973 11.2872   1
  -9   0  21 12.0670 4.86002  -2
   9   0  18 12.0670 4.86002   1
 -10   0  21 10.3899 4.61268  -2
  10   0  18 10.3899 4.61268   1
  11   0  18 13.4619 2.96806   1
  12   1  14 18.9199 2.01395  -2
 -12   1  18 18.9199 2.01395   1
  11   1  15 1.77728 2.07791  -2
 -11   1  18 1.77728 2.07791   1
  10   1  15 10.7564 1.49391  -2
 -10   1  18 10.7564 1.49391   1
   9   1  15 85.9383 2.76509  -2
  -9   1  18 85.9383 2.76509   1
   8   1  16 217.567 6.44659  -2
  -8   1  18 217.567 6.44659   1
   7   1  16 69.5027 4.14828  -2
  -7   1  18 69.5027 4.14828   1
   6   1  16 45.0092 4.64607  -2
  -6   1  18 45.0092 4.64607   1
  -5   1  18 3.25065 2.00863   1
   4   1  17 2.37790 2.84023  -2
  -4   1  18 2.37790 2.84023   1
   3   1  17 2.44443 2.47058  -2
  -3   1  18 2.44443 2.47058   1
  -2   1  18 30.4526 3.03552   1
   1   1  18 198.229 6.66636  -2
  -1   1  18 198.229 6.66636   1
   0   1  18 26.1335 1.84782  -2
   0   1  18 26.1335 1.84782   1
  -1   1  18 196.137 5.78059  -2
   1   1  18 196.137 5.78059   1
  -2   1  19 120.085 4.02795  -2
   2   1  18 120.085 4.02795   1
  -3   1  19 32.5761 2.22672  -2
   3   1  18 32.5761 2.22672   1
  -4   1  19 40.4449 2.42029  -2
   4   1  18 40.4449 2.42029   1
  -5   1  20 257.046 15.1289  -2
   5   1  18 257.046 15.1289   1
  -5   1  19 215.690 13.7976  -2
   5   1  18 215.690 13.7976   1
  -6   1  20 246.488 5.60264  -2
   6   1  18 246.488 5.60264   1
  -7   1  20 107.970 3.62929  -2
   7   1  18 107.970 3.62929   1
  -8   1  20 65.0779 6.51861  -2
   8   1  18 65.0779 6.51861   1
  -9   1  21 34.6840 4.00905  -2
   9   1  18 34.6840 4.00905   1
 -10   1  21 13.6218 3.51060  -2
  10   1  18 13.6218 3.51060   1
  11   1  18 -0.9176 2.33874   1
  12   2  14 21.3897 2.26355  -2
 -12   2  18 21.3897 2.26355   1
  11   2  15 30.7588 2.27561  -2
 -11   2  18 30.7588 2.27561   1
  10   2  15 3.33127 1.42882  -2
 -10   2  18 3.33127 1.42882   1
   9   2  15 90.8452 2.89097  -2
  -9   2  18 90.8452 2.89097   1
   8   2  16 61.7544 3.10589  -2
  -8   2  18 61.7544 3.10589   1
   8   2  15 91.9845 9.49587  -2
   8   2  16 91.9845 9.49587  -2
  -8   2  18 91.9845 9.49587   1
   7   2  16 85.5765 4.40068  -2
  -7   2  18 85.5765 4.40068   1
   6   2  16 14.3068 4.52805  -2
  -6   2  18 14.3068 4.52805   1
  -5   2  18 64.8888 4.04219   1
   4   2  17 64.2561 4.22925  -2
  -4   2  18 64.2561 4.22925   1
   3   2  17 -0.5229 2.48388  -2
  -3   2  18 -0.5229 2.48388   1
  -2   2  18 59.4948 3.66904   1
   1   2  18 1.04655 2.39454  -2
  -1   2  18 1.04655 2.39454   1
   0   2  18 66.3777 2.78261  -2
   0   2  18 66.3777 2.78261   1
  -1   2  18 3.33236 2.18381  -2
   1   2  18 3.33236 2.18381   1
  -2   2  19 18.9582 2.83868  -2
   2   2  18 18.9582 2.83868   1
  -3   2  19 38.8552 2.30562  -2
   3   2  18 38.8552 2.30562   1
  -4   2  19 0.70187 2.06704  -2
   4   2  18 0.70187 2.06704   1
  -5   2  20 11.3469 6.21695  -2
   5   2  18 11.3469 6.21695   1
  -5   2  19 19.4267 4.35906  -2
   5   2  18 19.4267 4.35906   1
  -6   2  20 52.4000 2.54071  -2
   6   2  18 52.4000 2.54071   1
  -7   2  20 6.55030 3.55986  -2
   7   2  18 6.55030 3.55986   1
   8   2  18 22.3759 4.58748   1
  -9   2  21 78.3060 4.17318  -2
   9   2  18 78.3060 4.17318   1
 -10   2  21 3.33313 3.13302  -2
  10   2  18 3.33313 3.13302   1
  11   2  18 3.44174 2.62188   1
  12   3  14 19.1790 2.18660  -2
 -12   3  18 19.1790 2.18660   1
  11   3  15 5.05571 1.58895  -2
 -11   3  18 5.05571 1.58895   1
  10   3  15 16.0527 1.41763  -2
 -10   3  18 16.0527 1.41763   1
   9   3  15 113.287 3.11845  -2
  -9   3  18 113.287 3.11845   1
   8   3  16 27.7661 3.46473  -2
  -8   3  18 27.7661 3.46473   1
   7   3  16 34.9852 2.37543  -2
  -7   3  18 34.9852 2.37543   1
   6   3  16 148.571 10.5717  -2
  -6   3  18 148.571 10.5717   1
  -5   3  18 4.91703 3.18244   1
   4   3  17 20.5647 4.58709  -2
  -4   3  18 20.5647 4.58709   1
   3   3  17 299.816 11.2065  -2
  -3   3  18 299.816 11.2065   1
  -2   3  18 3.18654 1.79883   1
   1   3  18 31.0521 3.01866  -2
  -1   3  18 31.0521 3.01866   1
   0   3  18 44.0706 2.42028  -2
   0   3  18 44.0706 2.42028   1
  -1   3  18 33.8194 2.73794  -2
   1   3  18 33.8194 2.73794   1
  -2   3  19 24.7813 5.67814  -2
   2   3  18 24.7813 5.67814   1
  -3   3  19 30.3295 2.50637  -2
   3   3  18 30.3295 2.50637   1
  -4   3  19 16.5071 2.50780  -2
   4   3  18 16.5071 2.50780   1
  -5   3  20 17.7876 8.43421  -2
   5   3  18 17.7876 8.43421   1
  -6   3  20 70.2734 2.88641  -2
   6   3  18 70.2734 2.88641   1
  -7   3  20 25.7134 3.41994  -2
   7   3  18 25.7134 3.41994   1
  -8   3  20 5.14493 5.47047  -2
   8   3  18 5.14493 5.47047   1
  -9   3  21 4.72780 3.07456  -2
   9   3  18 4.72780 3.07456   1
 -10   3  21 17.4566 2.07820  -2
  10   3  18 17.4566 2.07820   1
  11   3  18 2.02780 2.58578   1
  12   4  14 -2.3266 2.23248  -2
 -12   4  18 -2.3266 2.23248   1
  11   4  15 -1.9351 1.58276  -2
 -11   4  18 -1.9351 1.58276   1
  10   4  15 4.41595 1.26089  -2
 -10   4  18 4.41595 1.26089   1
   9   4  15 33.8585 2.35884  -2
  -9   4  18 33.8585 2.35884   1
   8   4  16 18.9107 3.93694  -2
  -8   4  18 18.9107 3.93694   1
   7   4  16 31.6334 2.41426  -2
  -7   4  18 31.6334 2.41426   1
   6   4  16 155.595 6.43113  -2
  -6   4  18 155.595 6.43113   1
   5   4  16 80.8111 9.07795  -2
  -5   4  18 80.8111 9.07795   1
   4   4  17 15.5300 4.69857  -2
  -4   4  18 15.5300 4.69857   1
   3   4  17 18.5089 3.15357  -2
  -3   4  18 18.5089 3.15357   1
  -2   4  18 75.6306 4.59030   1
   1   4  18 96.6008 4.33468  -2
  -1   4  18 96.6008 4.33468   1
   0   4  18 1.59386 1.48033  -2
   0   4  18 1.59386 1.48033   1
  -1   4  18 98.3126 3.96702  -2
   1   4  18 98.3126 3.96702   1
  -2   4  19 133.382 7.21459  -2
   2   4  18 133.382 7.21459   1
  -3   4  19 17.1485 2.55892  -2
   3   4  18 17.1485 2.55892   1
  -4   4  19 38.2161 3.35270  -2
   4   4  18 38.2161 3.35270   1
   5   4  18 4.03818 1.58546   1
  -6   4  20 46.6090 2.79596  -2
   6   4  18 46.6090 2.79596   1
  -7   4  20 105.406 3.74827  -2
   7   4  18 105.406 3.74827   1
   8   4  18 3.92731 3.54061   1
  -9   4  21 44.5147 2.59590  -2
   9   4  18 44.5147 2.59590   1
 -10   4  21 15.4087 2.21771  -2
  10   4  18 15.4087 2.21771   1
  11   4  18 -4.0282 2.34566   1
  12   5  14 46.1257 3.36725  -2
 -12   5  18 46.1257 3.36725   1
  11   5  15 83.0584 2.86240  -2
 -11   5  18 83.0584 2.86240   1
  10   5  15 1.44066 1.22214  -2
 -10   5  18 1.44066 1.22214   1
   9   5  15 46.6189 2.42517  -2
  -9   5  18 46.6189 2.42517   1
   8   5  16 20.6008 4.45596  -2
  -8   5  18 20.6008 4.45596   1
   7   5  16 94.1756 3.88472  -2
  -7   5  18 94.1756 3.88472   1
   6   5  16 26.2494 3.25362  -2
  -6   5  18 26.2494 3.25362   1
   5   5  16 147.331 11.1435  -2
  -5   5  18 147.331 11.1435   1
   4   5  17 507.930 13.3477  -2
  -4   5  18 507.930 13.3477   1
   3   5  17 234.955 9.63209  -2
  -3   5  18 234.955 9.63209   1
   2   5  17 148.413 7.07769  -2
  -2   5  18 148.413 7.07769   1
   1   5  18 67.4745 4.54954  -2
  -1   5  18 67.4745 4.54954   1
   0   5  18 53.9570 2.87050  -2
   0   5  18 53.9570 2.87050   1
  -1   5  18 72.6380 4.04305  -2
   1   5  18 72.6380 4.04305   1
  -2   5  19 270.239 10.8540  -2
   2   5  18 270.239 10.8540   1
  -3   5  19 28.7641 2.54085  -2
   3   5  18 28.7641 2.54085   1
  -4   5  19 120.732 5.40607  -2
   4   5  18 120.732 5.40607   1
  -5   5  20 198.713 11.4974  -2
   5   5  18 198.713 11.4974   1
  -5   5  19 207.880 12.7305  -2
   5   5  18 207.880 12.7305   1
  -6   5  20 246.898 6.43578  -2
   6   5  18 246.898 6.43578   1
  -7   5  20 51.5863 2.83919  -2
   7   5  18 51.5863 2.83919   1
  -8   5  20 22.5875 8.23922  -2
   8   5  18 22.5875 8.23922   1
  -9   5  21 19.3768 3.06671  -2
   9   5  18 19.3768 3.06671   1
 -10   5  21 56.4443 2.95763  -2
  10   5  18 56.4443 2.95763   1
 -11   5  21 26.0358 4.95812  -2
  11   5  18 26.0358 4.95812   1
  12   6  14 30.0561 2.51673  -2
 -12   6  18 30.0561 2.51673   1
  11   6  15 14.3890 1.89645  -2
 -11   6  18 14.3890 1.89645   1
  10   6  15 7.96233 1.53127  -2
 -10   6  18 7.96233 1.53127   1
   9   6  15 87.0013 3.59300  -2
  -9   6  18 87.0013 3.59300   1
   8   6  16 324.946 17.4125  -2
   8   6  15 324.946 17.4125  -2
  -8   6  18 324.946 17.4125   1
   8   6  16 284.933 15.4085  -2
  -8   6  18 284.933 15.4085   1
   7   6  16 323.624 6.95601  -2
  -7   6  18 323.624 6.95601   1
   6   6  16 475.375 9.05803  -2
  -6   6  18 475.375 9.05803   1
   5   6  16 175.376 12.6581  -2
  -5   6  18 175.376 12.6581   1
   4   6  17 2.35910 3.56230  -2
  -4   6  18 2.35910 3.56230   1
   3   6  17 86.0956 2.88407  -2
  -3   6  18 86.0956 2.88407   1
   2   6  17 21.2910 3.26530  -2
  -2   6  18 21.2910 3.26530   1
   1   6  18 156.131 10.2480  -2
  -1   6  18 156.131 10.2480   1
   0   6  18 22.2420 2.66968  -2
   0   6  18 22.2420 2.66968   1
  -1   6  18 158.800 7.08852  -2
   1   6  18 158.800 7.08852   1
  -2   6  19 21.6687 5.26456  -2
   2   6  18 21.6687 5.26456   1
  -3   6  19 20.8525 2.90649  -2
   3   6  18 20.8525 2.90649   1
  -4   6  19 12.8700 3.18373  -2
   4   6  18 12.8700 3.18373   1
  -5   6  20 125.022 10.4122  -2
   5   6  18 125.022 10.4122   1
  -5   6  19 59.9403 6.78773  -2
   5   6  18 59.9403 6.78773   1
  -6   6  20 433.140 10.0967  -2
   6   6  18 433.140 10.0967   1
  -7   6  20 72.2223 2.78208  -2
   7   6  18 72.2223 2.78208   1
  -8   6  20 78.8912 9.59230  -2
   8   6  18 78.8912 9.59230   1
  -9   6  21 5.43452 2.80345  -2
   9   6  18 5.43452 2.80345   1
 -10   6  21 1.71384 2.01816  -2
  10   6  18 1.71384 2.01816   1
  11   7  15 27.1975 2.24581  -2
 -11   7  18 27.1975 2.24581   1
  10   7  15 26.5940 2.21459  -2
 -10   7  18 26.5940 2.21459   1
   9   7  15 43.6006 4.13633  -2
  -9   7  18 43.6006 4.13633   1
   8   7  16 84.4475 7.80112  -2
  -8   7  18 84.4475 7.80112   1
   7   7  16 9.55416 1.95215  -2
  -7   7  18 9.55416 1.95215   1
   6   7  16 407.259 7.81375  -2
  -6   7  18 407.259 7.81375   1
   5   7  16 425.546 23.7559  -2
  -5   7  18 425.546 23.7559   1
   4   7  17 648.120 13.0344  -2
  -4   7  18 648.120 13.0344   1
   3   7  17 218.901 5.82992  -2
  -3   7  18 218.901 5.82992   1
   2   7  17 189.546 8.98169  -2
  -2   7  18 189.546 8.98169   1
   1   7  18 27.6469 3.58510  -2
  -1   7  18 27.6469 3.58510   1
   0   7  18 17.8945 2.03431  -2
   0   7  18 17.8945 2.03431   1
  -1   7  18 25.5411 3.36217  -2
   1   7  18 25.5411 3.36217   1
  -2   7  19 255.113 8.59260  -2
   2   7  18 255.113 8.59260   1
  -3   7  19 39.4243 3.23024  -2
   3   7  18 39.4243 3.23024   1
  -4   7  19 610.849 11.4484  -2
   4   7  18 610.849 11.4484   1
  -5   7  20 162.839 12.2052  -2
   5   7  18 162.839 12.2052   1
  -6   7  20 80.8218 3.02386  -2
   6   7  18 80.8218 3.02386   1
  -7   7  20 7.88480 2.39130  -2
   7   7  18 7.88480 2.39130   1
  -8   7  20 118.384 10.7732  -2
   8   7  18 118.384 10.7732   1
  -9   7  21 16.1969 2.85184  -2
   9   7  18 16.1969 2.85184   1
 -10   7  21 59.4841 2.88604  -2
  10   7  18 59.4841 2.88604   1
  11   8  15 1.48514 1.95163  -2
 -11   8  18 1.48514 1.95163   1
  10   8  15 0.52605 1.58515  -2
 -10   8  18 0.52605 1.58515   1
   9   8  15 44.5682 3.14031  -2
  -9   8  18 44.5682 3.14031   1
   8   8  16 25.3207 4.05668  -2
  -8   8  18 25.3207 4.05668   1
   8   8  15 42.6025 6.97216  -2
  -8   8  18 42.6025 6.97216   1
   7   8  16 140.037 3.46948  -2
  -7   8  18 140.037 3.46948   1
   6   8  16 53.7988 2.60774  -2
  -6   8  18 53.7988 2.60774   1
   5   8  16 212.710 14.0313  -2
  -5   8  18 212.710 14.0313   1
   4   8  17 30.2071 2.04207  -2
  -4   8  18 30.2071 2.04207   1
   3   8  17 8.90141 1.72426  -2
  -3   8  18 8.90141 1.72426   1
   2   8  17 29.2753 3.76249  -2
  -2   8  18 29.2753 3.76249   1
   1   8  18 114.045 4.07141  -2
  -1   8  18 114.045 4.07141   1
   0   8  18 311.780 7.02040  -2
   0   8  18 311.780 7.02040   1
  -1   8  18 107.109 3.88465  -2
   1   8  18 107.109 3.88465   1
  -2   8  19 71.5957 3.00395  -2
   2   8  18 71.5957 3.00395   1
  -3   8  19 250.057 5.49030  -2
   3   8  18 250.057 5.49030   1
  -4   8  19 24.7295 2.84782  -2
   4   8  18 24.7295 2.84782   1
  -6   8  20 135.420 4.71969  -2
   6   8  18 135.420 4.71969   1
  -7   8  20 18.6101 2.38064  -2
   7   8  18 18.6101 2.38064   1
  -8   8  20 32.0644 4.06516  -2
   8   8  18 32.0644 4.06516   1
  -9   8  21 48.4376 2.74466  -2
   9   8  18 48.4376 2.74466   1
 -10   8  21 7.80748 1.77421  -2
  10   8  18 7.80748 1.77421   1
  10   9  15 2.97611 1.46605  -2
 -10   9  18 2.97611 1.46605   1
   9   9  15 4.26320 2.45841  -2
  -9   9  18 4.26320 2.45841   1
   8   9  16 1.31922 3.44227  -2
  -8   9  18 1.31922 3.44227   1
   7   9  16 24.1731 2.00660  -2
  -7   9  18 24.1731 2.00660   1
   6   9  16 158.883 4.08723  -2
  -6   9  18 158.883 4.08723   1
   5   9  16 147.266 11.5758  -2
  -5   9  18 147.266 11.5758   1
   4   9  17 115.348 3.99732  -2
  -4   9  18 115.348 3.99732   1
   3   9  17 149.356 3.27542  -2
  -3   9  18 149.356 3.27542   1
   2   9  17 89.0005 3.11803  -2
  -2   9  18 89.0005 3.11803   1
   1   9  18 151.419 3.72469  -2
  -1   9  18 151.419 3.72469   1
   0   9  18 1.12510 1.34358  -2
   0   9  18 1.12510 1.34358   1
  -1   9  18 148.543 3.76883  -2
   1   9  18 148.543 3.76883   1
  -2   9  19 45.3508 2.74050  -2
   2   9  18 45.3508 2.74050   1
  -3   9  19 31.2150 1.93814  -2
   3   9  18 31.2150 1.93814   1
  -4   9  19 31.7133 2.30688  -2
   4   9  18 31.7133 2.30688   1
   5   9  18 3.70779 3.84210   1
  -6   9  20 15.3083 2.66917  -2
   6   9  18 15.3083 2.66917   1
  -7   9  20 3.14553 2.24340  -2
   7   9  18 3.14553 2.24340   1
  -8   9  20 66.5920 4.18785  -2
   8   9  18 66.5920 4.18785   1
  -9   9  21 35.7565 2.70474  -2
   9   9  18 35.7565 2.70474   1
  10  10  15 30.5419 2.18912  -2
 -10  10  18 30.5419 2.18912   1
   9  10  15 3.39685 2.03069  -2
  -9  10  18 3.39685 2.03069   1
   8  10  16 31.8075 3.49827  -2
  -8  10  18 31.8075 3.49827   1
   7  10  16 57.8813 2.90114  -2
  -7  10  18 57.8813 2.90114   1
   6  10  16 22.2792 2.05229  -2
  -6  10  18 22.2792 2.05229   1
   5  10  17 101.771 9.78214  -2
  -5  10  18 101.771 9.78214   1
   4  10  17 55.0968 3.08064  -2
  -4  10  18 55.0968 3.08064   1
   3  10  17 15.2305 2.12316  -2
  -3  10  18 15.2305 2.12316   1
   2  10  17 12.2088 2.61512  -2
  -2  10  18 12.2088 2.61512   1
   1  10  18 -3.2417 2.15002  -2
  -1  10  18 -3.2417 2.15002   1
   0  10  18 24.1432 1.91570  -2
   0  10  18 24.1432 1.91570   1
  -1  10  18 0.90867 2.29540  -2
   1  10  18 0.90867 2.29540   1
  -2  10  19 39.4650 2.64105  -2
   2  10  18 39.4650 2.64105   1
  -3  10  19 40.4361 1.96910  -2
   3  10  18 40.4361 1.96910   1
  -4  10  19 54.7543 2.78090  -2
   4  10  18 54.7543 2.78090   1
   5  10  18 -1.1070 3.29052   1
  -6  10  20 17.6284 2.91843  -2
   6  10  18 17.6284 2.91843   1
  -7  10  20 32.9638 2.39719  -2
   7  10  18 32.9638 2.39719   1
  -8  10  20 4.95000 2.87454  -2
   8  10  18 4.95000 2.87454   1
  -9  10  21 84.4610 3.32468  -2
   9  10  18 84.4610 3.32468   1
   9  11  15 25.9487 2.24880  -2
  -9  11  18 25.9487 2.24880   1
   8  11  16 9.27530 3.79004  -2
  -8  11  18 9.27530 3.79004   1
   7  11  16 2.16923 2.49973  -2
  -7  11  18 2.16923 2.49973   1
   6  11  16 133.844 5.22929  -2
  -6  11  18 133.844 5.22929   1
   5  11  16 28.2412 5.92597  -2
  -5  11  18 28.2412 5.92597   1
   4  11  17 61.0508 2.91401  -2
  -4  11  18 61.0508 2.91401   1
   3  11  17 70.3921 2.66028  -2
  -3  11  18 70.3921 2.66028   1
   2  11  17 69.8496 3.10933  -2
  -2  11  18 69.8496 3.10933   1
   1  11  18 34.9868 2.47282  -2
  -1  11  18 34.9868 2.47282   1
   0  11  18 32.2587 1.94885  -2
   0  11  18 32.2587 1.94885   1
  -1  11  18 29.1624 2.38091  -2
   1  11  18 29.1624 2.38091   1
  -2  11  19 116.128 3.62362  -2
   2  11  18 116.128 3.62362   1
  -3  11  19 21.0151 1.76351  -2
   3  11  18 21.0151 1.76351   1
  -4  11  19 46.3764 2.52805  -2
   4  11  18 46.3764 2.52805   1
  -6  11  20 118.296 4.54548  -2
   6  11  18 118.296 4.54548   1
  -7  11  20 4.26241 2.09678  -2
   7  11  18 4.26241 2.09678   1
  -8  11  20 26.1749 2.67917  -2
   8  11  18 26.1749 2.67917   1
   8  12  16 17.5418 2.85513  -2
  -8  12  18 17.5418 2.85513   1
   7  12  16 10.9639 2.43816  -2
  -7  12  18 10.9639 2.43816   1
   6  12  16 86.2415 3.89474  -2
  -6  12  18 86.2415 3.89474   1
   4  12  17 5.75578 2.10374  -2
  -4  12  18 5.75578 2.10374   1
   3  12  17 13.9107 1.81730  -2
  -3  12  18 13.9107 1.81730   1
   2  12  17 46.2022 3.44607  -2
  -2  12  18 46.2022 3.44607   1
   1  12  18 4.40574 2.62780  -2
  -1  12  18 4.40574 2.62780   1
   0  12  18 36.0862 2.37009  -2
   0  12  18 36.0862 2.37009   1
  -1  12  18 9.24167 2.02942  -2
   1  12  18 9.24167 2.02942   1
  -2  12  19 46.1046 2.96928  -2
   2  12  18 46.1046 2.96928   1
  -3  12  19 36.9810 2.05000  -2
   3  12  18 36.9810 2.05000   1
  -4  12  19 7.61740 1.88188  -2
   4  12  18 7.61740 1.88188   1
  -6  12  20 21.6806 2.03378  -2
   6  12  18 21.6806 2.03378   1
  -7  12  20 8.88819 1.87204  -2
   7  12  18 8.88819 1.87204   1
   7  13  16 4.41757 1.65658  -2
  -7  13  18 4.41757 1.65658   1
   6  13  16 3.55723 2.00005  -2
  -6  13  18 3.55723 2.00005   1
   4  13  17 108.972 3.73302  -2
  -4  13  18 108.972 3.73302   1
   3  13  17 16.3459 1.92763  -2
  -3  13  18 16.3459 1.92763   1
   2  13  17 23.1748 3.01180  -2
  -2  13  18 23.1748 3.01180   1
   1  13  18 14.5348 2.50361  -2
  -1  13  18 14.5348 2.50361   1
   0  13  18 20.3756 1.90431  -2
   0  13  18 20.3756 1.90431   1
  -1  13  18 14.8554 2.08786  -2
   1  13  18 14.8554 2.08786   1
  -2  13  19 24.3491 2.82439  -2
   2  13  18 24.3491 2.82439   1
  -3  13  19 22.3657 1.63282  -2
   3  13  18 22.3657 1.63282   1
  -4  13  19 65.2184 2.26848  -2
   4  13  18 65.2184 2.26848   1
  -5  13  20 3.44207 4.89826  -2
   5  13  18 3.44207 4.89826   1
  -6  13  20 19.8568 1.91423  -2
   6  13  18 19.8568 1.91423   1
   6  14  16 10.2071 2.19155  -2
  -6  14  18 10.2071 2.19155   1
   4  14  17 0.03301 3.04497  -2
  -4  14  18 0.03301 3.04497   1
   3  14  17 18.0991 2.01441  -2
  -3  14  18 18.0991 2.01441   1
   2  14  17 19.2032 2.40647  -2
  -2  14  18 19.2032 2.40647   1
   1  14  18 7.41356 2.08589  -2
  -1  14  18 7.41356 2.08589   1
   0  14  18 88.4614 2.76291  -2
   0  14  18 88.4614 2.76291   1
  -1  14  18 9.92394 2.35606  -2
   1  14  18 9.92394 2.35606   1
  -2  14  19 13.2118 2.35962  -2
   2  14  18 13.2118 2.35962   1
  -3  14  19 23.2022 1.95277  -2
   3  14  18 23.2022 1.95277   1
  -4  14  19 0.34207 2.42121  -2
   4  14  18 0.34207 2.42121   1
   5  14  18 26.4350 2.95746   1
   4  15  17 14.3496 4.49436  -2
  -4  15  18 14.3496 4.49436   1
   3  15  17 67.7966 3.88812  -2
  -3  15  18 67.7966 3.88812   1
   2  15  17 2.96473 3.33143  -2
  -2  15  18 2.96473 3.33143   1
   1  15  18 17.0450 3.27231  -2
  -1  15  18 17.0450 3.27231   1
   0  15  18 -2.0785 1.65905  -2
   0  15  18 -2.0785 1.65905   1
  -1  15  18 18.0769 2.40252  -2
   1  15  18 18.0769 2.40252   1
   2  15  18 0.59820 1.89655   1
  -3  15  19 26.3400 3.15410  -2
   3  15  18 26.3400 3.15410   1
  12   0  15 5.73514 2.89529  -2
 -12   0  19 5.73514 2.89529   1
  11   0  16 2.80932 2.74694  -2
 -11   0  19 2.80932 2.74694   1
  10   0  16 19.5294 2.46031  -2
 -10   0  19 19.5294 2.46031   1
   9   0  16 13.4221 2.86763  -2
  -9   0  19 13.4221 2.86763   1
   8   0  17 -2.5122 5.90048  -2
  -8   0  19 -2.5122 5.90048   1
   7   0  17 16.2245 3.21556  -2
  -7   0  19 16.2245 3.21556   1
  -5   0  19 6.58976 3.13585   1
   4   0  18 67.3485 6.41289  -2
  -4   0  19 67.3485 6.41289   1
   3   0  18 104.258 7.37522  -2
  -3   0  19 104.258 7.37522   1
  -2   0  19 1.48434 2.54098   1
   1   0  19 3.54327 4.35444  -2
  -1   0  19 3.54327 4.35444   1
   0   0  19 1.13545 2.01104  -2
   0   0  19 1.13545 2.01104   1
  -1   0  19 2.49094 3.25392  -2
   1   0  19 2.49094 3.25392   1
  -2   0  20 51.2526 6.39309  -2
   2   0  19 51.2526 6.39309   1
  -3   0  20 220.945 7.79194  -2
   3   0  19 220.945 7.79194   1
  -4   0  20 10.7340 2.70881  -2
   4   0  19 10.7340 2.70881   1
  -5   0  21 131.480 10.1397  -2
   5   0  19 131.480 10.1397   1
  -5   0  20 242.198 14.8661  -2
   5   0  19 242.198 14.8661   1
  -6   0  21 -2.9150 3.69381  -2
   6   0  19 -2.9150 3.69381   1
  -7   0  21 4.20223 5.91086  -2
   7   0  19 4.20223 5.91086   1
   8   0  19 2.11096 3.24744   1
  -9   0  22 1.57660 5.01308  -2
   9   0  19 1.57660 5.01308   1
 -10   0  22 6.89457 4.45086  -2
  10   0  19 6.89457 4.45086   1
  12   1  15 0.68968 1.82321  -2
 -12   1  19 0.68968 1.82321   1
  11   1  16 6.43980 2.24946  -2
 -11   1  19 6.43980 2.24946   1
  10   1  16 26.3072 1.68791  -2
 -10   1  19 26.3072 1.68791   1
   9   1  16 82.7136 2.70137  -2
  -9   1  19 82.7136 2.70137   1
   8   1  17 337.294 10.1004  -2
  -8   1  19 337.294 10.1004   1
   7   1  17 46.9464 2.40018  -2
  -7   1  19 46.9464 2.40018   1
   6   1  17 321.628 18.2770  -2
  -6   1  19 321.628 18.2770   1
  -5   1  19 63.4201 4.11281   1
   4   1  18 44.0687 3.90544  -2
  -4   1  19 44.0687 3.90544   1
   3   1  18 29.2228 3.14758  -2
  -3   1  19 29.2228 3.14758   1
  -2   1  19 10.6105 2.24419   1
   1   1  19 123.179 4.93273  -2
  -1   1  19 123.179 4.93273   1
   0   1  19 78.1411 3.03028  -2
   0   1  19 78.1411 3.03028   1
  -1   1  19 117.968 4.18071  -2
   1   1  19 117.968 4.18071   1
  -2   1  20 59.6035 3.12316  -2
   2   1  19 59.6035 3.12316   1
  -3   1  20 15.8663 2.06676  -2
   3   1  19 15.8663 2.06676   1
  -4   1  20 93.9441 2.90581  -2
   4   1  19 93.9441 2.90581   1
  -5   1  20 203.152 9.37412  -2
   5   1  19 203.152 9.37412   1
  -5   1  21 81.8094 7.98669  -2
   5   1  19 81.8094 7.98669   1
  -6   1  21 286.115 7.20409  -2
   6   1  19 286.115 7.20409   1
  -7   1  21 53.4771 3.61334  -2
   7   1  19 53.4771 3.61334   1
   8   1  19 121.866 6.11186   1
  -9   1  22 34.8604 3.92418  -2
   9   1  19 34.8604 3.92418   1
 -10   1  22 19.6447 3.71177  -2
  10   1  19 19.6447 3.71177   1
 -11   1  22 16.6566 2.49263  -2
  11   1  19 16.6566 2.49263   1
  12   2  15 17.2976 1.92234  -2
 -12   2  19 17.2976 1.92234   1
  11   2  16 58.0553 2.43781  -2
 -11   2  19 58.0553 2.43781   1
  10   2  16 19.8487 1.47870  -2
 -10   2  19 19.8487 1.47870   1
   9   2  16 14.3225 2.06837  -2
  -9   2  19 14.3225 2.06837   1
   8   2  17 117.430 4.14356  -2
  -8   2  19 117.430 4.14356   1
   7   2  17 190.170 4.30463  -2
  -7   2  19 190.170 4.30463   1
  -5   2  19 4.44225 2.49683   1
   4   2  18 3.78747 3.04501  -2
  -4   2  19 3.78747 3.04501   1
   3   2  18 41.0751 3.45873  -2
  -3   2  19 41.0751 3.45873   1
  -2   2  19 5.41553 1.86313   1
   1   2  19 14.7675 2.67074  -2
  -1   2  19 14.7675 2.67074   1
   0   2  19 5.25494 1.51363  -2
   0   2  19 5.25494 1.51363   1
  -1   2  19 8.92561 2.46246  -2
   1   2  19 8.92561 2.46246   1
  -2   2  20 72.1547 3.69369  -2
   2   2  19 72.1547 3.69369   1
  -3   2  20 37.0056 2.37168  -2
   3   2  19 37.0056 2.37168   1
  -4   2  20 144.627 4.17560  -2
   4   2  19 144.627 4.17560   1
  -5   2  21 98.0029 8.74214  -2
   5   2  19 98.0029 8.74214   1
  -5   2  20 73.5965 5.67238  -2
   5   2  19 73.5965 5.67238   1
  -6   2  21 222.251 5.95044  -2
   6   2  19 222.251 5.95044   1
  -7   2  21 34.2358 3.30379  -2
   7   2  19 34.2358 3.30379   1
   8   2  19 53.1986 6.07458   1
  -9   2  22 6.39436 3.87867  -2
   9   2  19 6.39436 3.87867   1
 -10   2  22 19.9527 3.38829  -2
  10   2  19 19.9527 3.38829   1
  11   2  19 1.87732 2.42244   1
  12   3  15 7.91145 1.76130  -2
 -12   3  19 7.91145 1.76130   1
  11   3  16 4.52745 1.69656  -2
 -11   3  19 4.52745 1.69656   1
  10   3  16 0.77012 1.18082  -2
 -10   3  19 0.77012 1.18082   1
   9   3  16 22.6314 2.06848  -2
  -9   3  19 22.6314 2.06848   1
   8   3  17 41.3498 4.11034  -2
  -8   3  19 41.3498 4.11034   1
   8   3  16 29.4259 9.11110  -2
   8   3  17 29.4259 9.11110  -2
  -8   3  19 29.4259 9.11110   1
   7   3  17 79.1321 3.15717  -2
  -7   3  19 79.1321 3.15717   1
   6   3  17 13.1181 6.52659  -2
  -6   3  19 13.1181 6.52659   1
   5   3  17 103.258 9.51103  -2
  -5   3  19 103.258 9.51103   1
   4   3  18 21.6125 4.95790  -2
  -4   3  19 21.6125 4.95790   1
   3   3  18 27.5470 3.25083  -2
  -3   3  19 27.5470 3.25083   1
  -2   3  19 23.4864 2.89720   1
   1   3  19 8.10333 2.77039  -2
  -1   3  19 8.10333 2.77039   1
   0   3  19 5.97290 1.55479  -2
   0   3  19 5.97290 1.55479   1
  -1   3  19 4.63920 2.42241  -2
   1   3  19 4.63920 2.42241   1
  -2   3  20 31.2152 3.48949  -2
   2   3  19 31.2152 3.48949   1
  -3   3  20 44.9402 2.79098  -2
   3   3  19 44.9402 2.79098   1
  -4   3  20 66.6945 3.58215  -2
   4   3  19 66.6945 3.58215   1
   5   3  19 27.0323 3.00316   1
  -6   3  21 244.209 6.79843  -2
   6   3  19 244.209 6.79843   1
  -7   3  21 64.5784 4.00439  -2
   7   3  19 64.5784 4.00439   1
   8   3  19 42.6112 5.50267   1
  -9   3  22 27.9906 3.16005  -2
   9   3  19 27.9906 3.16005   1
 -10   3  22 30.4959 5.04327  -2
  10   3  19 30.4959 5.04327   1
  11   3  19 3.11250 2.57427   1
  12   4  15 44.9932 3.32807  -2
 -12   4  19 44.9932 3.32807   1
  11   4  16 -0.5028 1.54426  -2
 -11   4  19 -0.5028 1.54426   1
  10   4  16 19.3481 1.48900  -2
 -10   4  19 19.3481 1.48900   1
   9   4  16 8.74936 2.06694  -2
  -9   4  19 8.74936 2.06694   1
   8   4  17 115.695 8.88120  -2
  -8   4  19 115.695 8.88120   1
   7   4  17 197.690 5.82068  -2
  -7   4  19 197.690 5.82068   1
   6   4  17 94.0292 4.14294  -2
  -6   4  19 94.0292 4.14294   1
   5   4  17 190.058 13.0835  -2
  -5   4  19 190.058 13.0835   1
   4   4  18 37.4217 4.92671  -2
  -4   4  19 37.4217 4.92671   1
   3   4  18 24.6118 4.82845  -2
  -3   4  19 24.6118 4.82845   1
  -2   4  19 98.7703 7.17166   1
   1   4  19 675.533 19.3979  -2
  -1   4  19 675.533 19.3979   1
   0   4  19 12.8178 2.00353  -2
   0   4  19 12.8178 2.00353   1
  -1   4  19 653.789 16.7985  -2
   1   4  19 653.789 16.7985   1
  -2   4  20 66.6888 5.44839  -2
   2   4  19 66.6888 5.44839   1
  -3   4  20 94.3190 3.41729  -2
   3   4  19 94.3190 3.41729   1
  -4   4  20 91.3324 4.77940  -2
   4   4  19 91.3324 4.77940   1
  -5   4  21 207.375 9.16845  -2
   5   4  19 207.375 9.16845   1
  -5   4  20 194.385 12.5236  -2
   5   4  19 194.385 12.5236   1
  -6   4  21 142.979 4.83167  -2
   6   4  19 142.979 4.83167   1
  -7   4  21 175.443 5.83402  -2
   7   4  19 175.443 5.83402   1
  -8   4  21 7.03245 7.58149  -2
   8   4  19 7.03245 7.58149   1
  -9   4  22 12.5895 2.87338  -2
   9   4  19 12.5895 2.87338   1
 -10   4  22 21.1882 4.81679  -2
  10   4  19 21.1882 4.81679   1
  12   5  15 38.8316 2.51858  -2
 -12   5  19 38.8316 2.51858   1
  11   5  16 19.8617 1.96073  -2
 -11   5  19 19.8617 1.96073   1
  10   5  16 12.4972 1.29067  -2
 -10   5  19 12.4972 1.29067   1
   9   5  16 34.2166 2.25636  -2
  -9   5  19 34.2166 2.25636   1
   8   5  17 13.1462 6.35775  -2
  -8   5  19 13.1462 6.35775   1
   7   5  17 28.3922 2.55476  -2
  -7   5  19 28.3922 2.55476   1
   6   5  17 63.4286 3.01229  -2
  -6   5  19 63.4286 3.01229   1
   5   5  17 297.172 17.8386  -2
  -5   5  19 297.172 17.8386   1
   4   5  18 141.686 7.51179  -2
  -4   5  19 141.686 7.51179   1
   3   5  18 26.8903 2.66487  -2
  -3   5  19 26.8903 2.66487   1
   2   5  18 237.163 13.9213  -2
  -2   5  19 237.163 13.9213   1
   1   5  19 18.1179 3.53723  -2
  -1   5  19 18.1179 3.53723   1
   0   5  19 78.6997 3.60774  -2
   0   5  19 78.6997 3.60774   1
  -1   5  19 20.0318 3.15941  -2
   1   5  19 20.0318 3.15941   1
  -2   5  20 184.651 8.63363  -2
   2   5  19 184.651 8.63363   1
  -3   5  20 113.663 5.11993  -2
   3   5  19 113.663 5.11993   1
  -4   5  20 461.934 14.8432  -2
   4   5  19 461.934 14.8432   1
  -5   5  21 57.7935 4.56957  -2
   5   5  19 57.7935 4.56957   1
  -6   5  21 10.8635 2.68042  -2
   6   5  19 10.8635 2.68042   1
  -7   5  21 15.6632 2.35631  -2
   7   5  19 15.6632 2.35631   1
  -8   5  21 12.2826 3.94677  -2
   8   5  19 12.2826 3.94677   1
  -9   5  22 29.9667 3.07161  -2
   9   5  19 29.9667 3.07161   1
 -10   5  22 30.7113 3.39585  -2
  10   5  19 30.7113 3.39585   1
  11   6  16 11.2228 1.80785  -2
 -11   6  19 11.2228 1.80785   1
  10   6  16 29.8899 1.80661  -2
 -10   6  19 29.8899 1.80661   1
   9   6  16 33.3614 3.12899  -2
  -9   6  19 33.3614 3.12899   1
   8   6  17 64.0524 7.31112  -2
  -8   6  19 64.0524 7.31112   1
   7   6  17 13.4830 2.13715  -2
  -7   6  19 13.4830 2.13715   1
   6   6  17 125.239 3.78242  -2
  -6   6  19 125.239 3.78242   1
   5   6  17 33.6576 8.14544  -2
  -5   6  19 33.6576 8.14544   1
   4   6  18 22.8058 2.78118  -2
  -4   6  19 22.8058 2.78118   1
   3   6  18 28.2547 2.69534  -2
  -3   6  19 28.2547 2.69534   1
   2   6  18 15.5589 3.07083  -2
  -2   6  19 15.5589 3.07083   1
   1   6  19 17.8979 3.28761  -2
  -1   6  19 17.8979 3.28761   1
   0   6  19 159.994 4.97426  -2
   0   6  19 159.994 4.97426   1
  -1   6  19 14.1813 2.87171  -2
   1   6  19 14.1813 2.87171   1
   2   6  19 3.18630 3.29780   1
  -3   6  20 189.964 7.13424  -2
   3   6  19 189.964 7.13424   1
  -4   6  20 263.674 6.05925  -2
   4   6  19 263.674 6.05925   1
  -5   6  21 236.498 10.9711  -2
   5   6  19 236.498 10.9711   1
  -6   6  21 47.5650 2.87025  -2
   6   6  19 47.5650 2.87025   1
  -7   6  21 254.681 6.39279  -2
   7   6  19 254.681 6.39279   1
  -8   6  21 16.8513 3.92041  -2
   8   6  19 16.8513 3.92041   1
  -9   6  22 34.1705 3.09222  -2
   9   6  19 34.1705 3.09222   1
 -10   6  22 110.059 3.94030  -2
  10   6  19 110.059 3.94030   1
  11   7  16 25.0861 2.43505  -2
 -11   7  19 25.0861 2.43505   1
  10   7  16 35.3772 2.33218  -2
 -10   7  19 35.3772 2.33218   1
   9   7  16 19.5946 3.52679  -2
  -9   7  19 19.5946 3.52679   1
   8   7  17 91.0813 7.81114  -2
  -8   7  19 91.0813 7.81114   1
   7   7  17 16.0010 2.14026  -2
  -7   7  19 16.0010 2.14026   1
   6   7  17 100.792 3.09013  -2
  -6   7  19 100.792 3.09013   1
   5   7  17 102.050 5.40771  -2
  -5   7  19 102.050 5.40771   1
   4   7  18 654.783 11.8189  -2
  -4   7  19 654.783 11.8189   1
   3   7  18 41.0199 2.39112  -2
  -3   7  19 41.0199 2.39112   1
   2   7  18 253.554 8.88313  -2
  -2   7  19 253.554 8.88313   1
   1   7  19 2.63189 3.21634  -2
  -1   7  19 2.63189 3.21634   1
   0   7  19 150.902 4.84648  -2
   0   7  19 150.902 4.84648   1
  -1   7  19 6.44510 2.76642  -2
   1   7  19 6.44510 2.76642   1
  -2   7  20 88.5091 4.22843  -2
   2   7  19 88.5091 4.22843   1
  -3   7  20 17.4867 2.36736  -2
   3   7  19 17.4867 2.36736   1
  -4   7  20 228.457 5.58238  -2
   4   7  19 228.457 5.58238   1
  -5   7  21 87.0380 9.18456  -2
   5   7  19 87.0380 9.18456   1
  -6   7  21 48.8256 2.90106  -2
   6   7  19 48.8256 2.90106   1
  -7   7  21 61.3971 2.88796  -2
   7   7  19 61.3971 2.88796   1
  -8   7  21 6.63664 3.07798  -2
   8   7  19 6.63664 3.07798   1
  -9   7  22 113.197 4.49526  -2
   9   7  19 113.197 4.49526   1
 -10   7  22 40.2719 4.59840  -2
  10   7  19 40.2719 4.59840   1
  10   8  16 55.4318 2.59751  -2
 -10   8  19 55.4318 2.59751   1
   9   8  16 11.2639 2.56218  -2
  -9   8  19 11.2639 2.56218   1
   8   8  16 192.878 11.6932  -2
  -8   8  19 192.878 11.6932   1
   8   8  17 185.625 7.67115  -2
  -8   8  19 185.625 7.67115   1
   7   8  17 42.8242 2.13745  -2
  -7   8  19 42.8242 2.13745   1
   6   8  17 54.6766 2.60833  -2
  -6   8  19 54.6766 2.60833   1
   5   8  17 309.642 18.3765  -2
  -5   8  19 309.642 18.3765   1
   4   8  18 18.7944 2.07864  -2
  -4   8  19 18.7944 2.07864   1
   3   8  18 256.173 4.77493  -2
  -3   8  19 256.173 4.77493   1
   2   8  18 71.2576 3.47780  -2
  -2   8  19 71.2576 3.47780   1
   1   8  19 416.810 7.73984  -2
  -1   8  19 416.810 7.73984   1
   0   8  19 180.934 3.60064  -2
   0   8  19 180.934 3.60064   1
  -1   8  19 413.387 7.69194  -2
   1   8  19 413.387 7.69194   1
  -2   8  20 253.190 5.24979  -2
   2   8  19 253.190 5.24979   1
  -3   8  20 94.4746 3.32674  -2
   3   8  19 94.4746 3.32674   1
  -4   8  20 60.7755 3.26652  -2
   4   8  19 60.7755 3.26652   1
  -5   8  21 60.4725 7.04732  -2
   5   8  19 60.4725 7.04732   1
  -6   8  21 59.9368 3.30253  -2
   6   8  19 59.9368 3.30253   1
  -7   8  21 139.789 4.06044  -2
   7   8  19 139.789 4.06044   1
  -8   8  21 26.7612 3.17560  -2
   8   8  19 26.7612 3.17560   1
  -9   8  22 34.5882 2.72532  -2
   9   8  19 34.5882 2.72532   1
  10   9  16 9.59715 1.48889  -2
 -10   9  19 9.59715 1.48889   1
   9   9  16 15.0880 2.45276  -2
  -9   9  19 15.0880 2.45276   1
   8   9  17 10.8682 3.45912  -2
  -8   9  19 10.8682 3.45912   1
   7   9  17 36.3446 2.09867  -2
  -7   9  19 36.3446 2.09867   1
   6   9  17 5.00227 2.00960  -2
  -6   9  19 5.00227 2.00960   1
   5   9  17 276.823 10.8166  -2
  -5   9  19 276.823 10.8166   1
   4   9  18 36.8213 2.91944  -2
  -4   9  19 36.8213 2.91944   1
   3   9  18 37.1149 2.12768  -2
  -3   9  19 37.1149 2.12768   1
   2   9  18 53.4923 2.95863  -2
  -2   9  19 53.4923 2.95863   1
   1   9  19 79.9491 3.05188  -2
  -1   9  19 79.9491 3.05188   1
   0   9  19 2.84653 1.46719  -2
   0   9  19 2.84653 1.46719   1
  -1   9  19 84.2962 3.22809  -2
   1   9  19 84.2962 3.22809   1
  -2   9  20 15.1119 2.47839  -2
   2   9  19 15.1119 2.47839   1
  -3   9  20 37.9289 2.11305  -2
   3   9  19 37.9289 2.11305   1
  -4   9  20 64.0675 2.68298  -2
   4   9  19 64.0675 2.68298   1
   5   9  19 26.1178 5.35774   1
  -6   9  21 26.2281 2.70986  -2
   6   9  19 26.2281 2.70986   1
  -7   9  21 24.9553 2.33321  -2
   7   9  19 24.9553 2.33321   1
  -8   9  21 95.3973 4.12626  -2
   8   9  19 95.3973 4.12626   1
  -9   9  22 5.35274 2.06277  -2
   9   9  19 5.35274 2.06277   1
   9  10  16 7.68263 1.97049  -2
  -9  10  19 7.68263 1.97049   1
   8  10  17 12.5233 3.10680  -2
  -8  10  19 12.5233 3.10680   1
   7  10  17 123.553 4.01084  -2
  -7  10  19 123.553 4.01084   1
   6  10  17 8.83922 2.15260  -2
  -6  10  19 8.83922 2.15260   1
  -5  10  19 43.7819 5.52706   1
   4  10  18 53.1024 2.99409  -2
  -4  10  19 53.1024 2.99409   1
   3  10  18 41.4734 2.41387  -2
  -3  10  19 41.4734 2.41387   1
   2  10  18 42.2738 2.85814  -2
  -2  10  19 42.2738 2.85814   1
   1  10  19 27.8103 2.38912  -2
  -1  10  19 27.8103 2.38912   1
   0  10  19 5.18962 1.53407  -2
   0  10  19 5.18962 1.53407   1
  -1  10  19 25.8663 2.56219  -2
   1  10  19 25.8663 2.56219   1
  -2  10  20 37.9045 2.57267  -2
   2  10  19 37.9045 2.57267   1
  -3  10  20 12.3870 1.69447  -2
   3  10  19 12.3870 1.69447   1
  -4  10  20 70.5356 2.94065  -2
   4  10  19 70.5356 2.94065   1
  -6  10  21 46.0189 3.23642  -2
   6  10  19 46.0189 3.23642   1
  -7  10  21 45.7551 2.46626  -2
   7  10  19 45.7551 2.46626   1
  -8  10  21 54.6983 5.31697  -2
   8  10  19 54.6983 5.31697   1
   9  11  16 2.68826 2.52818  -2
  -9  11  19 2.68826 2.52818   1
   8  11  17 13.7583 3.65159  -2
  -8  11  19 13.7583 3.65159   1
   7  11  17 11.2816 2.52318  -2
  -7  11  19 11.2816 2.52318   1
   6  11  17 33.9723 2.66946  -2
  -6  11  19 33.9723 2.66946   1
   5  11  17 65.4769 8.04199  -2
  -5  11  19 65.4769 8.04199   1
   4  11  18 46.1356 2.70069  -2
  -4  11  19 46.1356 2.70069   1
   3  11  18 20.9301 2.04142  -2
  -3  11  19 20.9301 2.04142   1
   2  11  18 119.845 3.75994  -2
  -2  11  19 119.845 3.75994   1
   1  11  19 74.9416 2.98959  -2
  -1  11  19 74.9416 2.98959   1
   0  11  19 2.37064 1.51428  -2
   0  11  19 2.37064 1.51428   1
  -1  11  19 76.0135 2.88337  -2
   1  11  19 76.0135 2.88337   1
  -2  11  20 49.4504 2.55529  -2
   2  11  19 49.4504 2.55529   1
  -3  11  20 63.5820 2.37583  -2
   3  11  19 63.5820 2.37583   1
  -4  11  20 30.3293 2.49527  -2
   4  11  19 30.3293 2.49527   1
  -6  11  21 96.7616 3.92013  -2
   6  11  19 96.7616 3.92013   1
  -7  11  21 5.20166 2.02271  -2
   7  11  19 5.20166 2.02271   1
  -8  11  21 39.3804 3.35237  -2
   8  11  19 39.3804 3.35237   1
   7  12  17 46.9120 2.87719  -2
  -7  12  19 46.9120 2.87719   1
   6  12  17 9.00172 2.42442  -2
  -6  12  19 9.00172 2.42442   1
   5  12  17 5.13196 5.60652  -2
  -5  12  19 5.13196 5.60652   1
   4  12  18 8.72153 2.06118  -2
  -4  12  19 8.72153 2.06118   1
   3  12  18 35.0612 2.04954  -2
  -3  12  19 35.0612 2.04954   1
   2  12  18 46.2687 3.40698  -2
  -2  12  19 46.2687 3.40698   1
   1  12  19 2.56079 2.52750  -2
  -1  12  19 2.56079 2.52750   1
   0  12  19 60.0963 2.70406  -2
   0  12  19 60.0963 2.70406   1
  -1  12  19 0.12467 2.26787  -2
   1  12  19 0.12467 2.26787   1
  -2  12  20 50.9488 2.98076  -2
   2  12  19 50.9488 2.98076   1
  -3  12  20 33.2014 1.93304  -2
   3  12  19 33.2014 1.93304   1
  -4  12  20 3.01515 1.75704  -2
   4  12  19 3.01515 1.75704   1
  -6  12  21 -0.4571 1.71488  -2
   6  12  19 -0.4571 1.71488   1
  -7  12  21 20.7646 1.85049  -2
   7  12  19 20.7646 1.85049   1
   7  13  17 -0.8383 1.79131  -2
  -7  13  19 -0.8383 1.79131   1
   6  13  17 8.61460 2.16446  -2
  -6  13  19 8.61460 2.16446   1
   4  13  18 61.3704 2.78764  -2
  -4  13  19 61.3704 2.78764   1
   3  13  18 22.2422 1.90442  -2
  -3  13  19 22.2422 1.90442   1
   2  13  18 21.1267 2.90756  -2
  -2  13  19 21.1267 2.90756   1
   1  13  19 17.6594 2.47499  -2
  -1  13  19 17.6594 2.47499   1
   0  13  19 8.69002 1.58441  -2
   0  13  19 8.69002 1.58441   1
  -1  13  19 12.9181 2.09977  -2
   1  13  19 12.9181 2.09977   1
  -2  13  20 7.93217 2.58816  -2
   2  13  19 7.93217 2.58816   1
  -3  13  20 3.06857 1.42832  -2
   3  13  19 3.06857 1.42832   1
  -4  13  20 55.7025 2.46369  -2
   4  13  19 55.7025 2.46369   1
  -5  13  21 17.8991 3.25413  -2
   5  13  19 17.8991 3.25413   1
   6  13  19 4.24176 1.22537   1
   4  14  18 4.05120 2.92224  -2
  -4  14  19 4.05120 2.92224   1
   3  14  18 25.9328 2.00976  -2
  -3  14  19 25.9328 2.00976   1
   2  14  18 10.7122 2.27622  -2
  -2  14  19 10.7122 2.27622   1
   1  14  19 2.71769 1.96242  -2
  -1  14  19 2.71769 1.96242   1
   0  14  19 2.15662 1.47253  -2
   0  14  19 2.15662 1.47253   1
  -1  14  19 3.60675 2.16067  -2
   1  14  19 3.60675 2.16067   1
  -2  14  20 6.10147 3.26748  -2
   2  14  19 6.10147 3.26748   1
  -3  14  20 46.1631 2.46112  -2
   3  14  19 46.1631 2.46112   1
  -4  14  20 9.00168 2.35354  -2
   4  14  19 9.00168 2.35354   1
   2  15  18 -1.1467 3.79194  -2
  -2  15  19 -1.1467 3.79194   1
   1  15  19 -7.8198 3.64591  -2
  -1  15  19 -7.8198 3.64591   1
   0  15  19 -0.4129 1.73598  -2
   0  15  19 -0.4129 1.73598   1
  -1  15  19 -0.9744 2.44533  -2
   1  15  19 -0.9744 2.44533   1
  -2  15  20 20.7326 3.57326  -2
   2  15  19 20.7326 3.57326   1
  12   0  16 123.812 4.39850  -2
 -12   0  20 123.812 4.39850   1
  11   0  17 -4.5874 2.56594  -2
 -11   0  20 -4.5874 2.56594   1
  10   0  17 23.1930 2.51343  -2
 -10   0  20 23.1930 2.51343   1
   9   0  17 59.5421 3.43971  -2
  -9   0  20 59.5421 3.43971   1
   8   0  18 239.246 13.3080  -2
  -8   0  20 239.246 13.3080   1
   7   0  18 206.531 6.06104  -2
  -7   0  20 206.531 6.06104   1
   4   0  19 8.28272 4.68434  -2
  -4   0  20 8.28272 4.68434   1
   3   0  19 212.143 12.1778  -2
  -3   0  20 212.143 12.1778   1
  -2   0  20 60.0340 6.14375   1
   1   0  20 4.01905 4.72933  -2
  -1   0  20 4.01905 4.72933   1
   0   0  20 231.328 12.8562  -2
   0   0  20 231.328 12.8562   1
  -1   0  20 13.2522 3.50821  -2
   1   0  20 13.2522 3.50821   1
  -2   0  21 14.0190 5.74423  -2
   2   0  20 14.0190 5.74423   1
  -3   0  21 44.9709 2.94550  -2
   3   0  20 44.9709 2.94550   1
  -4   0  21 -0.5949 3.18458  -2
   4   0  20 -0.5949 3.18458   1
  -5   0  22 767.709 39.1913  -2
   5   0  20 767.709 39.1913   1
  -5   0  21 526.009 28.4211  -2
   5   0  20 526.009 28.4211   1
  -6   0  22 243.646 14.5024  -2
   6   0  20 243.646 14.5024   1
  -7   0  22 58.7369 7.31550  -2
   7   0  20 58.7369 7.31550   1
   8   0  20 3.42146 3.56628   1
  -9   0  23 29.7416 5.34260  -2
   9   0  20 29.7416 5.34260   1
 -10   0  23 35.8978 3.78577  -2
  10   0  20 35.8978 3.78577   1
 -11   0  23 89.3937 7.23718  -2
  11   0  20 89.3937 7.23718   1
  12   1  16 5.41503 1.71214  -2
 -12   1  20 5.41503 1.71214   1
  11   1  17 5.77734 2.14077  -2
 -11   1  20 5.77734 2.14077   1
  10   1  17 22.6895 1.58494  -2
 -10   1  20 22.6895 1.58494   1
   9   1  17 16.5601 1.89840  -2
  -9   1  20 16.5601 1.89840   1
   8   1  18 68.6735 4.48835  -2
  -8   1  20 68.6735 4.48835   1
   7   1  18 117.167 3.27472  -2
  -7   1  20 117.167 3.27472   1
   6   1  18 280.147 11.0794  -2
  -6   1  20 280.147 11.0794   1
   4   1  19 87.8184 5.20941  -2
  -4   1  20 87.8184 5.20941   1
   3   1  19 15.2575 2.97013  -2
  -3   1  20 15.2575 2.97013   1
  -2   1  20 53.1545 4.18505   1
   1   1  20 3.07125 3.31122  -2
  -1   1  20 3.07125 3.31122   1
   0   1  20 22.8941 1.99411  -2
   0   1  20 22.8941 1.99411   1
  -1   1  20 8.76404 2.53523  -2
   1   1  20 8.76404 2.53523   1
  -2   1  21 32.7355 3.22980  -2
   2   1  20 32.7355 3.22980   1
  -3   1  21 24.4404 1.91218  -2
   3   1  20 24.4404 1.91218   1
  -4   1  21 33.2197 2.59013  -2
   4   1  20 33.2197 2.59013   1
  -5   1  21 71.0607 5.77672  -2
   5   1  20 71.0607 5.77672   1
  -5   1  22 199.792 9.15458  -2
   5   1  20 199.792 9.15458   1
  -6   1  22 117.451 6.39832  -2
   6   1  20 117.451 6.39832   1
  -7   1  22 146.798 7.32815  -2
   7   1  20 146.798 7.32815   1
   8   1  20 3.43359 2.43963   1
  -9   1  23 53.6440 4.16093  -2
   9   1  20 53.6440 4.16093   1
 -10   1  23 53.5001 4.21625  -2
  10   1  20 53.5001 4.21625   1
 -11   1  23 18.4121 5.56883  -2
  11   1  20 18.4121 5.56883   1
  12   2  16 29.1265 2.50706  -2
 -12   2  20 29.1265 2.50706   1
  11   2  17 66.3939 2.28035  -2
 -11   2  20 66.3939 2.28035   1
  10   2  17 9.64174 1.29971  -2
 -10   2  20 9.64174 1.29971   1
   9   2  17 18.4068 2.02622  -2
  -9   2  20 18.4068 2.02622   1
   8   2  18 24.4269 3.28896  -2
  -8   2  20 24.4269 3.28896   1
   7   2  18 -0.1578 1.97748  -2
  -7   2  20 -0.1578 1.97748   1
   6   2  18 78.7391 7.71544  -2
  -6   2  20 78.7391 7.71544   1
   4   2  19 140.379 5.83732  -2
  -4   2  20 140.379 5.83732   1
   3   2  19 34.3446 3.43548  -2
  -3   2  20 34.3446 3.43548   1
  -2   2  20 0.35327 1.79775   1
   1   2  20 24.2863 3.00884  -2
  -1   2  20 24.2863 3.00884   1
   0   2  20 9.91844 1.68094  -2
   0   2  20 9.91844 1.68094   1
  -1   2  20 20.4317 2.75179  -2
   1   2  20 20.4317 2.75179   1
  -2   2  21 72.2165 3.87009  -2
   2   2  20 72.2165 3.87009   1
  -3   2  21 6.76515 2.08351  -2
   3   2  20 6.76515 2.08351   1
  -4   2  21 21.1485 2.47632  -2
   4   2  20 21.1485 2.47632   1
  -5   2  21 145.999 11.0839  -2
   5   2  20 145.999 11.0839   1
  -5   2  22 176.156 8.04517  -2
   5   2  20 176.156 8.04517   1
  -6   2  22 23.6050 3.13237  -2
   6   2  20 23.6050 3.13237   1
  -7   2  22 11.0361 2.95211  -2
   7   2  20 11.0361 2.95211   1
   8   2  20 23.6237 3.04483   1
  -9   2  23 26.8660 4.22401  -2
   9   2  20 26.8660 4.22401   1
 -10   2  23 15.9145 2.33188  -2
  10   2  20 15.9145 2.33188   1
  12   3  16 12.0754 1.88991  -2
 -12   3  20 12.0754 1.88991   1
  11   3  17 32.8770 1.76056  -2
 -11   3  20 32.8770 1.76056   1
  10   3  17 3.17820 1.23394  -2
 -10   3  20 3.17820 1.23394   1
   9   3  17 8.53910 2.01853  -2
  -9   3  20 8.53910 2.01853   1
   8   3  18 5.96780 4.22624  -2
  -8   3  20 5.96780 4.22624   1
   7   3  18 33.8436 2.53545  -2
  -7   3  20 33.8436 2.53545   1
   6   3  18 76.7849 3.32198  -2
  -6   3  20 76.7849 3.32198   1
   5   3  18 17.5840 7.43488  -2
  -5   3  20 17.5840 7.43488   1
   4   3  19 65.4026 5.67985  -2
  -4   3  20 65.4026 5.67985   1
   3   3  19 43.7078 5.57568  -2
  -3   3  20 43.7078 5.57568   1
   2   3  19 31.4207 5.76129  -2
  -2   3  20 31.4207 5.76129   1
   1   3  20 30.9758 3.26872  -2
  -1   3  20 30.9758 3.26872   1
   0   3  20 17.5523 1.94724  -2
   0   3  20 17.5523 1.94724   1
  -1   3  20 32.3388 2.92668  -2
   1   3  20 32.3388 2.92668   1
  -2   3  21 20.0629 2.52321  -2
   2   3  20 20.0629 2.52321   1
  -3   3  21 8.78610 2.31611  -2
   3   3  20 8.78610 2.31611   1
  -4   3  21 349.987 9.99773  -2
   4   3  20 349.987 9.99773   1
  -5   3  22 169.849 8.36218  -2
   5   3  20 169.849 8.36218   1
  -6   3  22 233.222 7.88089  -2
   6   3  20 233.222 7.88089   1
  -7   3  22 105.277 4.84828  -2
   7   3  20 105.277 4.84828   1
   8   3  20 10.1441 3.84998   1
  -9   3  23 9.78009 3.88148  -2
   9   3  20 9.78009 3.88148   1
 -10   3  23 48.8804 5.41196  -2
  10   3  20 48.8804 5.41196   1
  12   4  16 3.59873 2.05240  -2
 -12   4  20 3.59873 2.05240   1
  11   4  17 30.9008 1.71162  -2
 -11   4  20 30.9008 1.71162   1
  10   4  17 7.39020 1.28052  -2
 -10   4  20 7.39020 1.28052   1
   9   4  17 8.40273 2.03248  -2
  -9   4  20 8.40273 2.03248   1
   8   4  18 4.60666 3.44207  -2
  -8   4  20 4.60666 3.44207   1
   7   4  18 124.770 4.38492  -2
  -7   4  20 124.770 4.38492   1
   6   4  18 54.5771 2.58151  -2
  -6   4  20 54.5771 2.58151   1
   5   4  18 21.4150 7.69094  -2
  -5   4  20 21.4150 7.69094   1
   4   4  19 100.776 6.29173  -2
  -4   4  20 100.776 6.29173   1
   3   4  19 89.1880 4.42920  -2
  -3   4  20 89.1880 4.42920   1
  -2   4  20 12.6352 3.56456   1
   1   4  20 104.602 4.08267  -2
  -1   4  20 104.602 4.08267   1
   0   4  20 56.4372 2.68897  -2
   0   4  20 56.4372 2.68897   1
  -1   4  20 106.772 4.34372  -2
   1   4  20 106.772 4.34372   1
  -2   4  21 309.651 10.6745  -2
   2   4  20 309.651 10.6745   1
  -3   4  21 49.7072 2.95660  -2
   3   4  20 49.7072 2.95660   1
  -4   4  21 86.5770 3.94046  -2
   4   4  20 86.5770 3.94046   1
  -5   4  21 215.846 13.5583  -2
   5   4  20 215.846 13.5583   1
  -5   4  22 240.082 15.3050  -2
   5   4  20 240.082 15.3050   1
  -6   4  22 148.349 4.91981  -2
   6   4  20 148.349 4.91981   1
  -7   4  22 43.3105 3.28792  -2
   7   4  20 43.3105 3.28792   1
  -8   4  22 46.7295 8.23271  -2
   8   4  20 46.7295 8.23271   1
  -9   4  23 10.0266 3.66692  -2
   9   4  20 10.0266 3.66692   1
 -10   4  23 13.2527 4.30447  -2
  10   4  20 13.2527 4.30447   1
  11   5  17 37.2969 2.06206  -2
 -11   5  20 37.2969 2.06206   1
  10   5  17 13.3957 1.33696  -2
 -10   5  20 13.3957 1.33696   1
   9   5  17 93.1442 3.08905  -2
  -9   5  20 93.1442 3.08905   1
   8   5  18 37.8018 4.56210  -2
  -8   5  20 37.8018 4.56210   1
   7   5  18 56.8183 2.86921  -2
  -7   5  20 56.8183 2.86921   1
   6   5  18 266.873 5.54970  -2
  -6   5  20 266.873 5.54970   1
   5   5  18 179.977 12.7482  -2
  -5   5  20 179.977 12.7482   1
   4   5  19 521.759 19.6537  -2
  -4   5  20 521.759 19.6537   1
   3   5  19 122.438 6.49682  -2
  -3   5  20 122.438 6.49682   1
   2   5  19 197.040 7.32465  -2
  -2   5  20 197.040 7.32465   1
   1   5  20 14.0481 3.01316  -2
  -1   5  20 14.0481 3.01316   1
   0   5  20 340.741 8.13709  -2
   0   5  20 340.741 8.13709   1
  -1   5  20 10.1356 3.21129  -2
   1   5  20 10.1356 3.21129   1
  -2   5  21 381.554 14.9132  -2
   2   5  20 381.554 14.9132   1
  -3   5  21 319.573 10.7434  -2
   3   5  20 319.573 10.7434   1
  -4   5  21 17.1076 2.39340  -2
   4   5  20 17.1076 2.39340   1
  -5   5  22 86.0948 5.17620  -2
   5   5  20 86.0948 5.17620   1
  -6   5  22 22.2040 2.62681  -2
   6   5  20 22.2040 2.62681   1
  -7   5  22 124.200 3.93999  -2
   7   5  20 124.200 3.93999   1
  -8   5  22 1.35962 7.09682  -2
   8   5  20 1.35962 7.09682   1
  -9   5  23 80.8540 5.10645  -2
   9   5  20 80.8540 5.10645   1
 -10   5  23 13.5131 2.93203  -2
  10   5  20 13.5131 2.93203   1
  11   6  17 33.0592 2.43320  -2
 -11   6  20 33.0592 2.43320   1
  10   6  17 14.9004 1.69714  -2
 -10   6  20 14.9004 1.69714   1
   9   6  17 5.42996 2.31471  -2
  -9   6  20 5.42996 2.31471   1
   8   6  18 92.7356 5.53292  -2
  -8   6  20 92.7356 5.53292   1
   7   6  18 76.0739 2.66986  -2
  -7   6  20 76.0739 2.66986   1
   6   6  18 445.645 9.14543  -2
  -6   6  20 445.645 9.14543   1
   5   6  18 145.853 12.0082  -2
  -5   6  20 145.853 12.0082   1
   4   6  19 277.914 5.74824  -2
  -4   6  20 277.914 5.74824   1
   3   6  19 208.823 5.56019  -2
  -3   6  20 208.823 5.56019   1
   2   6  19 227.667 8.29116  -2
  -2   6  20 227.667 8.29116   1
   1   6  20 61.9953 4.33519  -2
  -1   6  20 61.9953 4.33519   1
   0   6  20 186.636 5.64593  -2
   0   6  20 186.636 5.64593   1
  -1   6  20 69.8306 4.10890  -2
   1   6  20 69.8306 4.10890   1
  -2   6  21 196.148 12.5786  -2
   2   6  20 196.148 12.5786   1
  -3   6  21 21.0666 2.19410  -2
   3   6  20 21.0666 2.19410   1
  -4   6  21 4.07128 2.43692  -2
   4   6  20 4.07128 2.43692   1
  -5   6  22 56.0770 6.29110  -2
   5   6  20 56.0770 6.29110   1
  -6   6  22 150.080 4.13658  -2
   6   6  20 150.080 4.13658   1
  -7   6  22 334.580 7.95322  -2
   7   6  20 334.580 7.95322   1
  -8   6  22 88.7144 9.28312  -2
   8   6  20 88.7144 9.28312   1
  -9   6  23 7.37445 3.39290  -2
   9   6  20 7.37445 3.39290   1
 -10   6  23 20.2620 4.33858  -2
  10   6  20 20.2620 4.33858   1
 -11   7  20 16.7199 1.48913   1
  10   7  17 2.35723 1.71175  -2
 -10   7  20 2.35723 1.71175   1
   9   7  17 19.1693 2.12130  -2
  -9   7  20 19.1693 2.12130   1
   8   7  18 114.984 5.77944  -2
  -8   7  20 114.984 5.77944   1
   7   7  18 4.18694 2.00546  -2
  -7   7  20 4.18694 2.00546   1
   6   7  18 86.0042 2.88065  -2
  -6   7  20 86.0042 2.88065   1
   5   7  18 178.252 12.9210  -2
  -5   7  20 178.252 12.9210   1
   4   7  19 220.888 4.85217  -2
  -4   7  20 220.888 4.85217   1
   3   7  19 17.6531 2.01474  -2
  -3   7  20 17.6531 2.01474   1
   2   7  19 76.2951 3.25359  -2
  -2   7  20 76.2951 3.25359   1
   1   7  20 21.5307 2.34144  -2
  -1   7  20 21.5307 2.34144   1
   0   7  20 149.897 3.58080  -2
   0   7  20 149.897 3.58080   1
  -1   7  20 24.1069 2.63905  -2
   1   7  20 24.1069 2.63905   1
  -2   7  21 82.6211 4.00823  -2
   2   7  20 82.6211 4.00823   1
  -3   7  21 45.2968 3.09080  -2
   3   7  20 45.2968 3.09080   1
  -4   7  21 3.55461 2.43816  -2
   4   7  20 3.55461 2.43816   1
  -5   7  22 50.5610 8.27122  -2
   5   7  20 50.5610 8.27122   1
  -6   7  22 24.5115 2.81482  -2
   6   7  20 24.5115 2.81482   1
  -7   7  22 51.1041 2.66547  -2
   7   7  20 51.1041 2.66547   1
  -8   7  22 9.88944 4.34917  -2
   8   7  20 9.88944 4.34917   1
  -9   7  23 119.337 5.78613  -2
   9   7  20 119.337 5.78613   1
  10   8  17 2.85016 1.64955  -2
 -10   8  20 2.85016 1.64955   1
   9   8  17 39.7606 2.55041  -2
  -9   8  20 39.7606 2.55041   1
   8   8  18 35.0887 3.89303  -2
  -8   8  20 35.0887 3.89303   1
   7   8  18 23.1575 1.86927  -2
  -7   8  20 23.1575 1.86927   1
   6   8  18 135.434 3.77059  -2
  -6   8  20 135.434 3.77059   1
   5   8  18 47.9637 4.89463  -2
  -5   8  20 47.9637 4.89463   1
   4   8  19 61.2235 2.79665  -2
  -4   8  20 61.2235 2.79665   1
   3   8  19 94.3184 2.71564  -2
  -3   8  20 94.3184 2.71564   1
   2   8  19 249.779 5.52313  -2
  -2   8  20 249.779 5.52313   1
   1   8  20 135.549 3.53075  -2
  -1   8  20 135.549 3.53075   1
   0   8  20 167.111 3.10893  -2
   0   8  20 167.111 3.10893   1
  -1   8  20 130.208 3.31237  -2
   1   8  20 130.208 3.31237   1
  -2   8  21 113.159 3.90781  -2
   2   8  20 113.159 3.90781   1
  -3   8  21 86.1145 3.20847  -2
   3   8  20 86.1145 3.20847   1
  -4   8  21 -1.0596 2.60944  -2
   4   8  20 -1.0596 2.60944   1
  -5   8  22 118.024 8.75343  -2
   5   8  20 118.024 8.75343   1
  -6   8  22 28.8789 2.80194  -2
   6   8  20 28.8789 2.80194   1
  -7   8  22 119.242 3.96433  -2
   7   8  20 119.242 3.96433   1
  -8   8  22 19.7078 4.18312  -2
   8   8  20 19.7078 4.18312   1
  -9   8  23 8.13439 2.86121  -2
   9   8  20 8.13439 2.86121   1
  10   9  17 4.77788 1.45407  -2
 -10   9  20 4.77788 1.45407   1
   9   9  17 15.5466 2.09496  -2
  -9   9  20 15.5466 2.09496   1
   8   9  18 66.2984 4.26795  -2
  -8   9  20 66.2984 4.26795   1
   7   9  18 5.91751 1.63152  -2
  -7   9  20 5.91751 1.63152   1
   6   9  18 11.0562 2.03198  -2
  -6   9  20 11.0562 2.03198   1
   5   9  18 55.4159 8.24156  -2
  -5   9  20 55.4159 8.24156   1
   4   9  19 71.3630 3.33083  -2
  -4   9  20 71.3630 3.33083   1
   3   9  19 41.0088 2.22351  -2
  -3   9  20 41.0088 2.22351   1
   2   9  19 20.3326 2.60245  -2
  -2   9  20 20.3326 2.60245   1
   1   9  20 35.1359 2.30968  -2
  -1   9  20 35.1359 2.30968   1
   0   9  20 46.9207 2.04129  -2
   0   9  20 46.9207 2.04129   1
  -1   9  20 33.8699 2.50707  -2
   1   9  20 33.8699 2.50707   1
  -2   9  21 122.587 3.54568  -2
   2   9  20 122.587 3.54568   1
  -3   9  21 161.636 3.99843  -2
   3   9  20 161.636 3.99843   1
  -4   9  21 96.4102 3.07083  -2
   4   9  20 96.4102 3.07083   1
  -6   9  22 40.2971 2.80551  -2
   6   9  20 40.2971 2.80551   1
  -7   9  22 11.0663 2.06997  -2
   7   9  20 11.0663 2.06997   1
  -8   9  22 74.9687 4.90686  -2
   8   9  20 74.9687 4.90686   1
   9  10  17 31.4044 2.10501  -2
  -9  10  20 31.4044 2.10501   1
   8  10  18 4.16040 4.71315  -2
  -8  10  20 4.16040 4.71315   1
   7  10  18 27.9828 2.91935  -2
  -7  10  20 27.9828 2.91935   1
   6  10  18 15.1761 2.20791  -2
  -6  10  20 15.1761 2.20791   1
   5  10  18 4.50287 6.85218  -2
  -5  10  20 4.50287 6.85218   1
   4  10  19 71.4208 3.19741  -2
  -4  10  20 71.4208 3.19741   1
   3  10  19 14.0189 2.01647  -2
  -3  10  20 14.0189 2.01647   1
   2  10  19 35.9165 3.07441  -2
  -2  10  20 35.9165 3.07441   1
   1  10  20 55.5891 2.65957  -2
  -1  10  20 55.5891 2.65957   1
   0  10  20 366.695 6.76062  -2
   0  10  20 366.695 6.76062   1
  -1  10  20 55.2231 2.69281  -2
   1  10  20 55.2231 2.69281   1
  -2  10  21 65.9576 2.84664  -2
   2  10  20 65.9576 2.84664   1
  -3  10  21 18.2468 1.64744  -2
   3  10  20 18.2468 1.64744   1
  -4  10  21 126.538 3.99982  -2
   4  10  20 126.538 3.99982   1
  -6  10  22 29.8440 2.72375  -2
   6  10  20 29.8440 2.72375   1
  -7  10  22 74.6218 2.82192  -2
   7  10  20 74.6218 2.82192   1
  -8  10  22 33.1002 3.48641  -2
   8  10  20 33.1002 3.48641   1
   8  11  18 23.9273 2.75512  -2
  -8  11  20 23.9273 2.75512   1
   7  11  18 5.81358 2.32754  -2
  -7  11  20 5.81358 2.32754   1
   6  11  18 112.379 3.93462  -2
  -6  11  20 112.379 3.93462   1
   5  11  18 95.7124 8.67905  -2
  -5  11  20 95.7124 8.67905   1
   4  11  19 25.7122 2.36326  -2
  -4  11  20 25.7122 2.36326   1
   3  11  19 63.9009 2.50364  -2
  -3  11  20 63.9009 2.50364   1
   2  11  19 57.3856 2.90909  -2
  -2  11  20 57.3856 2.90909   1
   1  11  20 37.1675 2.95744  -2
  -1  11  20 37.1675 2.95744   1
   0  11  20 30.1048 1.85971  -2
   0  11  20 30.1048 1.85971   1
  -1  11  20 37.8960 2.44181  -2
   1  11  20 37.8960 2.44181   1
  -2  11  21 9.19650 2.15725  -2
   2  11  20 9.19650 2.15725   1
  -3  11  21 42.0133 2.07063  -2
   3  11  20 42.0133 2.07063   1
  -4  11  21 130.308 3.89562  -2
   4  11  20 130.308 3.89562   1
  -6  11  22 7.60616 2.79529  -2
   6  11  20 7.60616 2.79529   1
  -7  11  22 45.2695 2.41741  -2
   7  11  20 45.2695 2.41741   1
   7  12  18 3.05282 2.44868  -2
  -7  12  20 3.05282 2.44868   1
   6  12  18 21.5833 2.48975  -2
  -6  12  20 21.5833 2.48975   1
   5  12  18 73.6929 7.52576  -2
  -5  12  20 73.6929 7.52576   1
   4  12  19 -3.5604 2.27859  -2
  -4  12  20 -3.5604 2.27859   1
   3  12  19 33.9709 1.93644  -2
  -3  12  20 33.9709 1.93644   1
   2  12  19 60.4574 3.59029  -2
  -2  12  20 60.4574 3.59029   1
   1  12  20 20.9440 2.57687  -2
  -1  12  20 20.9440 2.57687   1
   0  12  20 33.0802 2.16455  -2
   0  12  20 33.0802 2.16455   1
  -1  12  20 14.6474 2.26743  -2
   1  12  20 14.6474 2.26743   1
  -2  12  21 4.46194 2.19382  -2
   2  12  20 4.46194 2.19382   1
  -3  12  21 5.69166 1.55286  -2
   3  12  20 5.69166 1.55286   1
  -4  12  21 0.74526 2.00524  -2
   4  12  20 0.74526 2.00524   1
  -5  12  22 88.6102 6.59773  -2
   5  12  20 88.6102 6.59773   1
  -6  12  22 15.9605 1.78579  -2
   6  12  20 15.9605 1.78579   1
   6  13  18 26.4215 2.77694  -2
  -6  13  20 26.4215 2.77694   1
   5  13  18 6.74126 5.11061  -2
  -5  13  20 6.74126 5.11061   1
   4  13  19 60.4788 3.33663  -2
  -4  13  20 60.4788 3.33663   1
   3  13  19 5.56722 1.64701  -2
  -3  13  20 5.56722 1.64701   1
   2  13  19 1.25570 2.70637  -2
  -2  13  20 1.25570 2.70637   1
   1  13  20 17.5046 2.37436  -2
  -1  13  20 17.5046 2.37436   1
   0  13  20 2.66121 1.52568  -2
   0  13  20 2.66121 1.52568   1
  -1  13  20 21.8776 2.57953  -2
   1  13  20 21.8776 2.57953   1
  -2  13  21 26.4190 3.07126  -2
   2  13  20 26.4190 3.07126   1
  -3  13  21 104.473 2.67931  -2
   3  13  20 104.473 2.67931   1
  -4  13  21 28.7224 1.99458  -2
   4  13  20 28.7224 1.99458   1
   5  13  20 3.30482 1.34851   1
  -5  14  20 10.4200 2.70997   1
   3  14  19 42.2349 2.53896  -2
  -3  14  20 42.2349 2.53896   1
   2  14  19 -3.1212 2.45301  -2
  -2  14  20 -3.1212 2.45301   1
   1  14  20 4.73431 2.09563  -2
  -1  14  20 4.73431 2.09563   1
   0  14  20 2.10111 1.42856  -2
   0  14  20 2.10111 1.42856   1
  -1  14  20 12.3019 2.56463  -2
   1  14  20 12.3019 2.56463   1
  -2  14  21 8.27210 4.13203  -2
   2  14  20 8.27210 4.13203   1
  -3  14  21 16.6169 1.87120  -2
   3  14  20 16.6169 1.87120   1
  -1  15  20 -1.1581 1.76599   1
   0  15  20 -0.0451 1.76725  -2
   0  15  20 -0.0451 1.76725   1
  12   0  17 -0.5745 3.43949  -2
 -12   0  21 -0.5745 3.43949   1
  11   0  18 15.4249 2.65678  -2
 -11   0  21 15.4249 2.65678   1
  10   0  18 21.9691 2.35993  -2
 -10   0  21 21.9691 2.35993   1
   9   0  18 7.81441 2.64783  -2
  -9   0  21 7.81441 2.64783   1
   8   0  19 18.9749 3.35914  -2
  -8   0  21 18.9749 3.35914   1
   7   0  19 5.99263 2.64961  -2
  -7   0  21 5.99263 2.64961   1
   6   0  19 -0.1607 3.21421  -2
  -6   0  21 -0.1607 3.21421   1
   3   0  20 43.0562 5.39373  -2
  -3   0  21 43.0562 5.39373   1
  -2   0  21 -3.5200 2.43003   1
   1   0  21 1.51368 4.83883  -2
  -1   0  21 1.51368 4.83883   1
   0   0  21 -1.5378 2.07985  -2
   0   0  21 -1.5378 2.07985   1
  -1   0  21 2.15426 3.34671  -2
   1   0  21 2.15426 3.34671   1
  -2   0  22 2.88631 3.65865  -2
   2   0  21 2.88631 3.65865   1
  -3   0  22 169.742 6.58926  -2
   3   0  21 169.742 6.58926   1
  -4   0  22 37.8044 3.84209  -2
   4   0  21 37.8044 3.84209   1
  -5   0  22 338.439 19.6686  -2
   5   0  21 338.439 19.6686   1
  -5   0  23 -1.6187 6.15545  -2
   5   0  21 -1.6187 6.15545   1
  -6   0  23 5.94356 5.43929  -2
   6   0  21 5.94356 5.43929   1
  -7   0  23 4.32609 5.85636  -2
   7   0  21 4.32609 5.85636   1
   8   0  21 -2.9919 2.80255   1
  -9   0  24 17.4440 4.72835  -2
   9   0  21 17.4440 4.72835   1
 -10   0  24 8.01032 3.10097  -2
  10   0  21 8.01032 3.10097   1
  12   1  17 -0.5545 1.70430  -2
 -12   1  21 -0.5545 1.70430   1
  11   1  18 3.31393 1.82119  -2
 -11   1  21 3.31393 1.82119   1
  10   1  18 16.6560 1.39468  -2
 -10   1  21 16.6560 1.39468   1
   9   1  18 57.8664 2.21966  -2
  -9   1  21 57.8664 2.21966   1
   8   1  19 134.818 4.92182  -2
  -8   1  21 134.818 4.92182   1
   7   1  19 58.4884 2.40836  -2
  -7   1  21 58.4884 2.40836   1
   6   1  19 305.564 6.11251  -2
  -6   1  21 305.564 6.11251   1
   4   1  20 34.7631 5.11803  -2
  -4   1  21 34.7631 5.11803   1
   3   1  20 25.7879 2.87917  -2
  -3   1  21 25.7879 2.87917   1
  -2   1  21 18.7720 2.77328   1
   1   1  21 81.8173 5.27126  -2
  -1   1  21 81.8173 5.27126   1
   0   1  21 3.57594 1.65521  -2
   0   1  21 3.57594 1.65521   1
  -1   1  21 83.9088 3.82514  -2
   1   1  21 83.9088 3.82514   1
  -2   1  22 144.836 5.39546  -2
   2   1  21 144.836 5.39546   1
  -3   1  22 32.9907 2.34488  -2
   3   1  21 32.9907 2.34488   1
  -4   1  22 100.876 3.63446  -2
   4   1  21 100.876 3.63446   1
  -5   1  23 205.881 9.41709  -2
   5   1  21 205.881 9.41709   1
  -5   1  22 301.175 12.6647  -2
   5   1  21 301.175 12.6647   1
  -6   1  23 51.0960 4.60738  -2
   6   1  21 51.0960 4.60738   1
  -7   1  23 20.4367 4.19095  -2
   7   1  21 20.4367 4.19095   1
   8   1  21 2.66819 2.25248   1
  -9   1  24 44.5327 3.79821  -2
   9   1  21 44.5327 3.79821   1
 -10   1  24 -1.4641 2.95999  -2
  10   1  21 -1.4641 2.95999   1
  12   2  17 20.8463 2.22682  -2
 -12   2  21 20.8463 2.22682   1
  11   2  18 16.0550 1.69647  -2
 -11   2  21 16.0550 1.69647   1
  10   2  18 6.46344 1.26605  -2
 -10   2  21 6.46344 1.26605   1
   9   2  18 90.6667 2.73915  -2
  -9   2  21 90.6667 2.73915   1
   8   2  19 59.2117 4.00735  -2
  -8   2  21 59.2117 4.00735   1
   7   2  19 33.5018 2.33129  -2
  -7   2  21 33.5018 2.33129   1
   6   2  19 228.375 6.39946  -2
  -6   2  21 228.375 6.39946   1
   4   2  20 34.5856 4.94249  -2
  -4   2  21 34.5856 4.94249   1
   3   2  20 0.50855 2.70865  -2
  -3   2  21 0.50855 2.70865   1
  -2   2  21 59.6679 3.99500   1
   1   2  21 29.3862 4.12897  -2
  -1   2  21 29.3862 4.12897   1
   0   2  21 99.6192 3.21526  -2
   0   2  21 99.6192 3.21526   1
  -1   2  21 36.5377 3.06247  -2
   1   2  21 36.5377 3.06247   1
  -2   2  22 9.76141 3.12827  -2
   2   2  21 9.76141 3.12827   1
  -3   2  22 121.429 4.57713  -2
   3   2  21 121.429 4.57713   1
  -4   2  22 23.5523 2.49741  -2
   4   2  21 23.5523 2.49741   1
  -5   2  23 229.606 14.1508  -2
   5   2  21 229.606 14.1508   1
  -6   2  23 108.556 5.98645  -2
   6   2  21 108.556 5.98645   1
  -7   2  23 46.4565 4.71682  -2
   7   2  21 46.4565 4.71682   1
   8   2  21 19.6143 4.17584   1
  -9   2  24 11.3538 3.87387  -2
   9   2  21 11.3538 3.87387   1
 -10   2  24 36.1482 3.02321  -2
  10   2  21 36.1482 3.02321   1
  11   3  18 8.10741 1.49761  -2
 -11   3  21 8.10741 1.49761   1
  10   3  18 16.1625 1.38630  -2
 -10   3  21 16.1625 1.38630   1
   9   3  18 11.1497 2.07900  -2
  -9   3  21 11.1497 2.07900   1
   8   3  19 43.6246 4.71746  -2
  -8   3  21 43.6246 4.71746   1
   7   3  19 66.5161 2.96845  -2
  -7   3  21 66.5161 2.96845   1
   6   3  19 275.441 6.12767  -2
  -6   3  21 275.441 6.12767   1
   5   3  19 85.1639 9.36876  -2
  -5   3  21 85.1639 9.36876   1
   4   3  20 366.257 14.5402  -2
  -4   3  21 366.257 14.5402   1
   3   3  20 17.3778 3.77108  -2
  -3   3  21 17.3778 3.77108   1
   2   3  20 29.6802 7.12869  -2
  -2   3  21 29.6802 7.12869   1
   1   3  21 17.1628 2.82963  -2
  -1   3  21 17.1628 2.82963   1
   0   3  21 3.41653 1.75638  -2
   0   3  21 3.41653 1.75638   1
  -1   3  21 15.9888 2.41942  -2
   1   3  21 15.9888 2.41942   1
  -2   3  22 292.975 8.73051  -2
   2   3  21 292.975 8.73051   1
  -3   3  22 9.04009 2.45711  -2
   3   3  21 9.04009 2.45711   1
  -4   3  22 158.163 4.57330  -2
   4   3  21 158.163 4.57330   1
  -5   3  23 48.4060 5.70782  -2
   5   3  21 48.4060 5.70782   1
  -6   3  23 69.8381 3.55037  -2
   6   3  21 69.8381 3.55037   1
  -7   3  23 40.0165 7.06487  -2
   7   3  21 40.0165 7.06487   1
   8   3  21 41.6153 5.22194   1
  -9   3  24 42.4587 4.07192  -2
   9   3  21 42.4587 4.07192   1
 -10   3  24 58.3232 5.36159  -2
  10   3  21 58.3232 5.36159   1
  11   4  18 5.62812 1.42224  -2
 -11   4  21 5.62812 1.42224   1
  10   4  18 16.9724 1.36952  -2
 -10   4  21 16.9724 1.36952   1
   9   4  18 44.0736 2.29925  -2
  -9   4  21 44.0736 2.29925   1
   8   4  19 4.35376 3.39585  -2
  -8   4  21 4.35376 3.39585   1
   7   4  19 181.579 4.76559  -2
  -7   4  21 181.579 4.76559   1
   6   4  19 153.377 4.08244  -2
  -6   4  21 153.377 4.08244   1
   5   4  19 219.236 14.7912  -2
  -5   4  21 219.236 14.7912   1
   4   4  20 87.5239 4.94619  -2
  -4   4  21 87.5239 4.94619   1
   3   4  20 43.2429 4.44003  -2
  -3   4  21 43.2429 4.44003   1
   2   4  20 318.359 10.6623  -2
  -2   4  21 318.359 10.6623   1
   1   4  21 218.130 7.63808  -2
  -1   4  21 218.130 7.63808   1
   0   4  21 263.027 7.39931  -2
   0   4  21 263.027 7.39931   1
  -1   4  21 204.014 6.68916  -2
   1   4  21 204.014 6.68916   1
  -2   4  22 14.1164 3.88358  -2
   2   4  21 14.1164 3.88358   1
  -3   4  22 25.5115 2.25186  -2
   3   4  21 25.5115 2.25186   1
  -4   4  22 109.442 3.55467  -2
   4   4  21 109.442 3.55467   1
  -5   4  23 168.932 12.8759  -2
   5   4  21 168.932 12.8759   1
  -6   4  23 172.543 5.31628  -2
   6   4  21 172.543 5.31628   1
  -7   4  23 9.26847 3.16085  -2
   7   4  21 9.26847 3.16085   1
  -8   4  23 78.5474 8.63183  -2
   8   4  21 78.5474 8.63183   1
  -9   4  24 46.9647 5.54397  -2
   9   4  21 46.9647 5.54397   1
 -10   4  24 80.6289 6.16389  -2
  10   4  21 80.6289 6.16389   1
  11   5  18 34.7778 2.13220  -2
 -11   5  21 34.7778 2.13220   1
  10   5  18 61.7055 1.89024  -2
 -10   5  21 61.7055 1.89024   1
   9   5  18 18.2931 1.94500  -2
  -9   5  21 18.2931 1.94500   1
   8   5  19 12.0618 4.14294  -2
  -8   5  21 12.0618 4.14294   1
   7   5  19 13.6013 2.52407  -2
  -7   5  21 13.6013 2.52407   1
   6   5  19 1.11427 2.01620  -2
  -6   5  21 1.11427 2.01620   1
   5   5  19 74.6798 9.27579  -2
  -5   5  21 74.6798 9.27579   1
   4   5  20 14.9703 2.63943  -2
  -4   5  21 14.9703 2.63943   1
   3   5  20 338.287 10.5902  -2
  -3   5  21 338.287 10.5902   1
   2   5  20 420.630 12.9770  -2
  -2   5  21 420.630 12.9770   1
   1   5  21 282.309 8.16041  -2
  -1   5  21 282.309 8.16041   1
   0   5  21 6.52166 2.08450  -2
   0   5  21 6.52166 2.08450   1
  -1   5  21 286.765 11.7545  -2
   1   5  21 286.765 11.7545   1
  -2   5  22 152.432 7.97771  -2
   2   5  21 152.432 7.97771   1
  -3   5  22 163.728 4.27310  -2
   3   5  21 163.728 4.27310   1
  -4   5  22 134.826 4.36410  -2
   4   5  21 134.826 4.36410   1
  -5   5  23 33.7325 4.25652  -2
   5   5  21 33.7325 4.25652   1
  -6   5  23 8.73805 2.41871  -2
   6   5  21 8.73805 2.41871   1
  -7   5  23 41.2394 2.47576  -2
   7   5  21 41.2394 2.47576   1
  -8   5  23 18.8712 7.01162  -2
   8   5  21 18.8712 7.01162   1
  -9   5  24 14.1376 3.48199  -2
   9   5  21 14.1376 3.48199   1
  11   6  18 9.90064 2.28910  -2
 -11   6  21 9.90064 2.28910   1
  10   6  18 2.13495 1.42868  -2
 -10   6  21 2.13495 1.42868   1
   9   6  18 4.98314 2.04808  -2
  -9   6  21 4.98314 2.04808   1
   8   6  19 8.81049 3.93634  -2
  -8   6  21 8.81049 3.93634   1
   7   6  19 265.962 5.81484  -2
  -7   6  21 265.962 5.81484   1
   6   6  19 53.2672 2.51561  -2
  -6   6  21 53.2672 2.51561   1
   5   6  19 249.888 8.48099  -2
  -5   6  21 249.888 8.48099   1
   4   6  20 7.43311 2.17338  -2
  -4   6  21 7.43311 2.17338   1
   3   6  20 19.4117 1.96321  -2
  -3   6  21 19.4117 1.96321   1
   2   6  20 214.369 6.04199  -2
  -2   6  21 214.369 6.04199   1
   1   6  21 13.8032 2.58006  -2
  -1   6  21 13.8032 2.58006   1
   0   6  21 4.56295 1.43234  -2
   0   6  21 4.56295 1.43234   1
  -1   6  21 10.1670 2.76327  -2
   1   6  21 10.1670 2.76327   1
  -2   6  22 182.974 6.00383  -2
   2   6  21 182.974 6.00383   1
  -3   6  22 256.305 7.15171  -2
   3   6  21 256.305 7.15171   1
  -4   6  22 9.63822 2.46716  -2
   4   6  21 9.63822 2.46716   1
  -5   6  23 61.1560 6.26344  -2
   5   6  21 61.1560 6.26344   1
  -6   6  23 4.47763 2.49124  -2
   6   6  21 4.47763 2.49124   1
  -7   6  23 32.3506 2.56745  -2
   7   6  21 32.3506 2.56745   1
  -8   6  23 14.7268 7.03995  -2
   8   6  21 14.7268 7.03995   1
  -9   6  24 55.8773 4.10178  -2
   9   6  21 55.8773 4.10178   1
  10   7  18 56.6234 2.59903  -2
 -10   7  21 56.6234 2.59903   1
   9   7  18 25.9611 2.08287  -2
  -9   7  21 25.9611 2.08287   1
   8   7  19 2.51393 3.54805  -2
  -8   7  21 2.51393 3.54805   1
   7   7  19 65.6663 2.44530  -2
  -7   7  21 65.6663 2.44530   1
   6   7  19 49.2683 2.40746  -2
  -6   7  21 49.2683 2.40746   1
   5   7  19 100.175 6.29120  -2
  -5   7  21 100.175 6.29120   1
   4   7  20 7.68057 2.15698  -2
  -4   7  21 7.68057 2.15698   1
   3   7  20 53.7282 2.58263  -2
  -3   7  21 53.7282 2.58263   1
   2   7  20 85.0080 3.43160  -2
  -2   7  21 85.0080 3.43160   1
   1   7  21 29.7858 2.17352  -2
  -1   7  21 29.7858 2.17352   1
   0   7  21 8.48331 1.24154  -2
   0   7  21 8.48331 1.24154   1
  -1   7  21 36.1288 2.28214  -2
   1   7  21 36.1288 2.28214   1
  -2   7  22 21.2947 3.16195  -2
   2   7  21 21.2947 3.16195   1
  -3   7  22 10.0119 2.64087  -2
   3   7  21 10.0119 2.64087   1
  -4   7  22 -1.9519 2.72519  -2
   4   7  21 -1.9519 2.72519   1
  -5   7  23 35.6703 4.70830  -2
   5   7  21 35.6703 4.70830   1
  -6   7  23 30.4029 2.50942  -2
   6   7  21 30.4029 2.50942   1
  -7   7  23 27.7137 2.16693  -2
   7   7  21 27.7137 2.16693   1
  -8   7  23 12.9002 4.20015  -2
   8   7  21 12.9002 4.20015   1
  -9   7  24 13.8945 4.86159  -2
   9   7  21 13.8945 4.86159   1
  10   8  18 10.2377 1.67033  -2
 -10   8  21 10.2377 1.67033   1
   9   8  18 51.4941 2.60347  -2
  -9   8  21 51.4941 2.60347   1
   8   8  19 28.5808 2.80861  -2
  -8   8  21 28.5808 2.80861   1
   7   8  19 136.589 3.31085  -2
  -7   8  21 136.589 3.31085   1
   6   8  19 51.5087 2.51533  -2
  -6   8  21 51.5087 2.51533   1
   5   8  19 75.0658 8.94478  -2
  -5   8  21 75.0658 8.94478   1
   4   8  20 1.92861 2.11912  -2
  -4   8  21 1.92861 2.11912   1
   3   8  20 81.5959 2.52007  -2
  -3   8  21 81.5959 2.52007   1
   2   8  20 113.355 3.82434  -2
  -2   8  21 113.355 3.82434   1
   1   8  21 166.043 3.92030  -2
  -1   8  21 166.043 3.92030   1
   0   8  21 25.5884 1.40725  -2
   0   8  21 25.5884 1.40725   1
  -1   8  21 162.608 3.77572  -2
   1   8  21 162.608 3.77572   1
  -2   8  22 91.9060 3.58368  -2
   2   8  21 91.9060 3.58368   1
  -3   8  22 94.1888 3.31399  -2
   3   8  21 94.1888 3.31399   1
  -4   8  22 58.9025 3.21683  -2
   4   8  21 58.9025 3.21683   1
  -5   8  23 140.184 9.28846  -2
   5   8  21 140.184 9.28846   1
  -6   8  23 52.8291 2.96541  -2
   6   8  21 52.8291 2.96541   1
  -7   8  23 12.4936 2.05312  -2
   7   8  21 12.4936 2.05312   1
  -8   8  23 9.08605 3.80769  -2
   8   8  21 9.08605 3.80769   1
   9   8  21 0.41873 1.48002   1
   9   9  18 39.1959 2.54141  -2
  -9   9  21 39.1959 2.54141   1
   8   9  19 94.5720 4.76276  -2
  -8   9  21 94.5720 4.76276   1
   7   9  19 23.3097 1.69022  -2
  -7   9  21 23.3097 1.69022   1
   6   9  19 27.7154 2.06914  -2
  -6   9  21 27.7154 2.06914   1
   5   9  19 46.4693 8.03376  -2
  -5   9  21 46.4693 8.03376   1
   4   9  20 100.669 3.75775  -2
  -4   9  21 100.669 3.75775   1
   3   9  20 172.186 4.03015  -2
  -3   9  21 172.186 4.03015   1
   2   9  20 130.365 4.00100  -2
  -2   9  21 130.365 4.00100   1
   1   9  21 90.7993 2.85600  -2
  -1   9  21 90.7993 2.85600   1
   0   9  21 11.9041 1.61773  -2
   0   9  21 11.9041 1.61773   1
  -1   9  21 86.1219 2.98287  -2
   1   9  21 86.1219 2.98287   1
  -2   9  22 358.914 6.91069  -2
   2   9  21 358.914 6.91069   1
  -3   9  22 74.5532 2.65474  -2
   3   9  21 74.5532 2.65474   1
  -4   9  22 83.0289 2.98317  -2
   4   9  21 83.0289 2.98317   1
  -5   9  23 46.2361 6.17934  -2
   5   9  21 46.2361 6.17934   1
  -6   9  23 18.7586 2.57402  -2
   6   9  21 18.7586 2.57402   1
  -7   9  23 10.7943 2.23715  -2
   7   9  21 10.7943 2.23715   1
  -8   9  23 53.8796 5.26604  -2
   8   9  21 53.8796 5.26604   1
   9  10  18 83.3087 3.47217  -2
  -9  10  21 83.3087 3.47217   1
   8  10  19 61.8906 5.90375  -2
  -8  10  21 61.8906 5.90375   1
   7  10  19 43.8197 2.98532  -2
  -7  10  21 43.8197 2.98532   1
   6  10  19 44.4034 2.46348  -2
  -6  10  21 44.4034 2.46348   1
   5  10  19 35.1616 7.10480  -2
  -5  10  21 35.1616 7.10480   1
   4  10  20 129.297 4.06597  -2
  -4  10  21 129.297 4.06597   1
   3  10  20 19.6465 2.10603  -2
  -3  10  21 19.6465 2.10603   1
   2  10  20 68.7736 3.40956  -2
  -2  10  21 68.7736 3.40956   1
   1  10  21 43.2735 2.53453  -2
  -1  10  21 43.2735 2.53453   1
   0  10  21 319.876 6.00505  -2
   0  10  21 319.876 6.00505   1
  -1  10  21 38.1828 2.37900  -2
   1  10  21 38.1828 2.37900   1
  -2  10  22 36.5502 2.48381  -2
   2  10  21 36.5502 2.48381   1
  -3  10  22 115.928 3.13060  -2
   3  10  21 115.928 3.13060   1
  -4  10  22 69.6577 3.03220  -2
   4  10  21 69.6577 3.03220   1
  -5  10  23 57.8433 6.04760  -2
   5  10  21 57.8433 6.04760   1
  -6  10  23 112.984 4.25595  -2
   6  10  21 112.984 4.25595   1
  -7  10  23 32.8537 2.29852  -2
   7  10  21 32.8537 2.29852   1
   8  11  19 34.2834 3.39315  -2
  -8  11  21 34.2834 3.39315   1
   7  11  19 3.23233 2.67440  -2
  -7  11  21 3.23233 2.67440   1
   6  11  19 100.610 3.59532  -2
  -6  11  21 100.610 3.59532   1
   5  11  19 57.4259 7.55090  -2
  -5  11  21 57.4259 7.55090   1
   4  11  20 125.643 3.76232  -2
  -4  11  21 125.643 3.76232   1
   3  11  20 48.0688 2.22846  -2
  -3  11  21 48.0688 2.22846   1
   2  11  20 4.46276 2.61144  -2
  -2  11  21 4.46276 2.61144   1
   1  11  21 35.5210 2.84965  -2
  -1  11  21 35.5210 2.84965   1
   0  11  21 67.4040 2.65216  -2
   0  11  21 67.4040 2.65216   1
  -1  11  21 38.3163 2.83969  -2
   1  11  21 38.3163 2.83969   1
  -2  11  22 4.43637 2.12129  -2
   2  11  21 4.43637 2.12129   1
  -3  11  22 19.6731 1.80296  -2
   3  11  21 19.6731 1.80296   1
  -4  11  22 149.303 4.08363  -2
   4  11  21 149.303 4.08363   1
  -5  11  23 20.2182 4.92380  -2
   5  11  21 20.2182 4.92380   1
  -6  11  23 10.4206 1.97189  -2
   6  11  21 10.4206 1.97189   1
  -7  11  23 25.4126 1.94034  -2
   7  11  21 25.4126 1.94034   1
   7  12  19 15.6460 2.41184  -2
  -7  12  21 15.6460 2.41184   1
   6  12  19 4.18360 2.15823  -2
  -6  12  21 4.18360 2.15823   1
   5  12  19 49.3149 6.46707  -2
  -5  12  21 49.3149 6.46707   1
   4  12  20 2.73860 1.84932  -2
  -4  12  21 2.73860 1.84932   1
   3  12  20 7.26008 1.85792  -2
  -3  12  21 7.26008 1.85792   1
   2  12  20 4.51662 2.89085  -2
  -2  12  21 4.51662 2.89085   1
   1  12  21 19.9565 2.47619  -2
  -1  12  21 19.9565 2.47619   1
   0  12  21 182.862 4.82406  -2
   0  12  21 182.862 4.82406   1
  -1  12  21 18.1251 2.45592  -2
   1  12  21 18.1251 2.45592   1
  -2  12  22 5.80765 2.28557  -2
   2  12  21 5.80765 2.28557   1
  -3  12  22 5.55428 1.55298  -2
   3  12  21 5.55428 1.55298   1
  -4  12  22 24.1855 2.05061  -2
   4  12  21 24.1855 2.05061   1
   5  12  21 22.5258 1.75538   1
   6  12  21 15.5093 1.39678   1
   6  13  19 12.9325 4.10197  -2
  -6  13  21 12.9325 4.10197   1
   5  13  19 11.1209 5.02673  -2
  -5  13  21 11.1209 5.02673   1
   4  13  20 38.5884 3.49612  -2
  -4  13  21 38.5884 3.49612   1
   3  13  20 103.795 3.02675  -2
  -3  13  21 103.795 3.02675   1
   2  13  20 18.1978 2.66636  -2
  -2  13  21 18.1978 2.66636   1
   1  13  21 -0.0179 2.13537  -2
  -1  13  21 -0.0179 2.13537   1
   0  13  21 3.54907 1.37173  -2
   0  13  21 3.54907 1.37173   1
  -1  13  21 6.66520 2.36935  -2
   1  13  21 6.66520 2.36935   1
  -2  13  22 22.3343 2.92766  -2
   2  13  21 22.3343 2.92766   1
  -3  13  22 148.762 4.75263  -2
   3  13  21 148.762 4.75263   1
  -4  13  22 4.84511 1.84537  -2
   4  13  21 4.84511 1.84537   1
   3  14  20 13.7005 2.67810  -2
  -3  14  21 13.7005 2.67810   1
   2  14  20 7.14322 3.68883  -2
  -2  14  21 7.14322 3.68883   1
   1  14  21 2.90626 1.75135  -2
  -1  14  21 2.90626 1.75135   1
   0  14  21 44.3524 2.37563  -2
   0  14  21 44.3524 2.37563   1
  -1  14  21 8.74172 2.72519  -2
   1  14  21 8.74172 2.72519   1
  -2  14  22 29.3519 4.09926  -2
   2  14  21 29.3519 4.09926   1
  11   0  19 20.8822 2.64247  -2
 -11   0  22 20.8822 2.64247   1
  10   0  19 3.28016 1.87568  -2
 -10   0  22 3.28016 1.87568   1
   9   0  19 5.15107 3.14728  -2
  -9   0  22 5.15107 3.14728   1
   8   0  20 29.7503 3.40664  -2
  -8   0  22 29.7503 3.40664   1
   7   0  20 61.0595 3.06302  -2
  -7   0  22 61.0595 3.06302   1
   6   0  20 257.231 7.20515  -2
  -6   0  22 257.231 7.20515   1
   3   0  21 155.165 10.4102  -2
  -3   0  22 155.165 10.4102   1
   2   0  21 4.02341 6.76736  -2
  -2   0  22 4.02341 6.76736   1
   1   0  22 0.78798 6.71258  -2
  -1   0  22 0.78798 6.71258   1
   0   0  22 29.6740 3.46534  -2
   0   0  22 29.6740 3.46534   1
  -1   0  22 6.14376 6.22310  -2
   1   0  22 6.14376 6.22310   1
  -2   0  23 8.60599 3.75105  -2
   2   0  22 8.60599 3.75105   1
  -3   0  23 47.2608 3.73893  -2
   3   0  22 47.2608 3.73893   1
  -4   0  23 312.652 12.6608  -2
   4   0  22 312.652 12.6608   1
  -5   0  24 94.9902 8.86833  -2
   5   0  22 94.9902 8.86833   1
  -6   0  24 90.1867 7.96165  -2
   6   0  22 90.1867 7.96165   1
  -7   0  24 152.367 10.4851  -2
   7   0  22 152.367 10.4851   1
   8   0  22 -1.1932 2.75643   1
  -9   0  25 5.30180 4.10978  -2
   9   0  22 5.30180 4.10978   1
 -10   0  25 14.3562 4.70150  -2
  10   0  22 14.3562 4.70150   1
  11   1  19 19.4090 1.95177  -2
 -11   1  22 19.4090 1.95177   1
  10   1  19 23.4435 1.41042  -2
 -10   1  22 23.4435 1.41042   1
   9   1  19 53.7112 2.11790  -2
  -9   1  22 53.7112 2.11790   1
   8   1  20 30.7617 2.91709  -2
  -8   1  22 30.7617 2.91709   1
   7   1  20 155.026 3.36585  -2
  -7   1  22 155.026 3.36585   1
   6   1  20 127.185 3.73439  -2
  -6   1  22 127.185 3.73439   1
   4   1  21 111.173 9.49111  -2
  -4   1  22 111.173 9.49111   1
   3   1  21 29.4909 5.54507  -2
  -3   1  22 29.4909 5.54507   1
   2   1  21 129.259 7.33235  -2
  -2   1  22 129.259 7.33235   1
   1   1  22 125.265 7.21903  -2
  -1   1  22 125.265 7.21903   1
   0   1  22 3.34143 1.66998  -2
   0   1  22 3.34143 1.66998   1
  -1   1  22 128.650 5.11274  -2
   1   1  22 128.650 5.11274   1
  -2   1  23 252.474 7.93959  -2
   2   1  22 252.474 7.93959   1
  -3   1  23 130.823 3.89237  -2
   3   1  22 130.823 3.89237   1
  -4   1  23 234.163 7.17720  -2
   4   1  22 234.163 7.17720   1
  -5   1  24 111.061 6.80189  -2
   5   1  22 111.061 6.80189   1
  -6   1  24 268.736 8.53533  -2
   6   1  22 268.736 8.53533   1
  -7   1  24 13.7455 4.09261  -2
   7   1  22 13.7455 4.09261   1
   8   1  22 51.7132 3.77593   1
  -9   1  25 11.9367 2.73509  -2
   9   1  22 11.9367 2.73509   1
 -10   1  25 38.9340 3.09543  -2
  10   1  22 38.9340 3.09543   1
  11   2  19 35.3256 1.87179  -2
 -11   2  22 35.3256 1.87179   1
  10   2  19 27.3698 1.45823  -2
 -10   2  22 27.3698 1.45823   1
   9   2  19 6.58394 1.90141  -2
  -9   2  22 6.58394 1.90141   1
   8   2  20 53.3228 2.86344  -2
  -8   2  22 53.3228 2.86344   1
   7   2  20 13.9791 2.10731  -2
  -7   2  22 13.9791 2.10731   1
   6   2  20 25.9791 2.95194  -2
  -6   2  22 25.9791 2.95194   1
  -5   2  22 37.0674 5.30830   1
   4   2  21 19.1377 3.93377  -2
  -4   2  22 19.1377 3.93377   1
   3   2  21 119.589 8.92597  -2
  -3   2  22 119.589 8.92597   1
   2   2  21 4.01000 6.95869  -2
  -2   2  22 4.01000 6.95869   1
   1   2  22 41.0765 5.21282  -2
  -1   2  22 41.0765 5.21282   1
   0   2  22 47.8246 3.24615  -2
   0   2  22 47.8246 3.24615   1
  -1   2  22 27.1669 3.28596  -2
   1   2  22 27.1669 3.28596   1
  -2   2  23 62.1686 3.96710  -2
   2   2  22 62.1686 3.96710   1
  -3   2  23 86.5545 3.38686  -2
   3   2  22 86.5545 3.38686   1
  -4   2  23 50.6849 2.84940  -2
   4   2  22 50.6849 2.84940   1
  -5   2  24 21.3904 6.52184  -2
   5   2  22 21.3904 6.52184   1
  -6   2  24 113.139 6.22769  -2
   6   2  22 113.139 6.22769   1
  -7   2  24 37.3378 4.42496  -2
   7   2  22 37.3378 4.42496   1
  -8   2  25 9.44070 5.51434  -2
   8   2  22 9.44070 5.51434   1
  -9   2  25 67.1668 4.73638  -2
   9   2  22 67.1668 4.73638   1
  11   3  19 14.0022 1.75602  -2
 -11   3  22 14.0022 1.75602   1
  10   3  19 31.0221 1.53869  -2
 -10   3  22 31.0221 1.53869   1
   9   3  19 31.1082 2.18458  -2
  -9   3  22 31.1082 2.18458   1
   8   3  20 38.6948 2.97638  -2
  -8   3  22 38.6948 2.97638   1
   7   3  20 104.163 3.52012  -2
  -7   3  22 104.163 3.52012   1
   6   3  20 242.194 6.00185  -2
  -6   3  22 242.194 6.00185   1
   5   3  20 221.872 14.7055  -2
  -5   3  22 221.872 14.7055   1
   4   3  21 175.560 5.06547  -2
  -4   3  22 175.560 5.06547   1
   3   3  21 1.14296 3.77732  -2
  -3   3  22 1.14296 3.77732   1
   2   3  21 282.030 16.6392  -2
  -2   3  22 282.030 16.6392   1
   1   3  22 82.8959 4.48084  -2
  -1   3  22 82.8959 4.48084   1
   0   3  22 2.99413 2.38462  -2
   0   3  22 2.99413 2.38462   1
  -1   3  22 76.7680 4.02716  -2
   1   3  22 76.7680 4.02716   1
  -2   3  23 59.5396 3.46203  -2
   2   3  22 59.5396 3.46203   1
  -3   3  23 65.8143 2.68526  -2
   3   3  22 65.8143 2.68526   1
  -4   3  23 432.142 9.85218  -2
   4   3  22 432.142 9.85218   1
  -5   3  24 69.3525 5.08501  -2
   5   3  22 69.3525 5.08501   1
  -6   3  24 4.15551 3.18706  -2
   6   3  22 4.15551 3.18706   1
  -7   3  24 60.8310 7.31836  -2
   7   3  22 60.8310 7.31836   1
  -8   3  24 7.07333 7.32474  -2
   8   3  22 7.07333 7.32474   1
  -9   3  25 14.0709 4.34680  -2
   9   3  22 14.0709 4.34680   1
  11   4  19 7.34868 1.59691  -2
 -11   4  22 7.34868 1.59691   1
  10   4  19 21.6691 1.38629  -2
 -10   4  22 21.6691 1.38629   1
   9   4  19 12.2374 1.95882  -2
  -9   4  22 12.2374 1.95882   1
   8   4  20 47.2164 3.36381  -2
  -8   4  22 47.2164 3.36381   1
   7   4  20 44.7307 2.84727  -2
  -7   4  22 44.7307 2.84727   1
   6   4  20 154.973 4.11402  -2
  -6   4  22 154.973 4.11402   1
   5   4  20 254.722 16.0974  -2
  -5   4  22 254.722 16.0974   1
   4   4  21 115.710 4.08136  -2
  -4   4  22 115.710 4.08136   1
   3   4  21 33.3550 3.04275  -2
  -3   4  22 33.3550 3.04275   1
   2   4  21 18.4708 5.21600  -2
  -2   4  22 18.4708 5.21600   1
   1   4  22 119.596 5.34343  -2
  -1   4  22 119.596 5.34343   1
   0   4  22 18.7503 2.43609  -2
   0   4  22 18.7503 2.43609   1
  -1   4  22 114.125 5.44535  -2
   1   4  22 114.125 5.44535   1
  -2   4  23 79.7839 4.76329  -2
   2   4  22 79.7839 4.76329   1
  -3   4  23 4.03590 1.97128  -2
   3   4  22 4.03590 1.97128   1
  -4   4  23 66.4589 3.78989  -2
   4   4  22 66.4589 3.78989   1
  -5   4  24 163.802 7.80314  -2
   5   4  22 163.802 7.80314   1
  -6   4  24 141.926 4.97445  -2
   6   4  22 141.926 4.97445   1
  -7   4  24 38.0482 3.91028  -2
   7   4  22 38.0482 3.91028   1
  -8   4  24 7.39815 4.45107  -2
   8   4  22 7.39815 4.45107   1
  -9   4  25 67.2623 6.01821  -2
   9   4  22 67.2623 6.01821   1
 -11   5  22 8.89759 1.04622   1
  10   5  19 28.5241 1.38898  -2
 -10   5  22 28.5241 1.38898   1
   9   5  19 36.8301 2.01506  -2
  -9   5  22 36.8301 2.01506   1
   8   5  20 11.8734 3.20173  -2
  -8   5  22 11.8734 3.20173   1
   7   5  20 129.956 4.31990  -2
  -7   5  22 129.956 4.31990   1
   6   5  20 24.4281 2.18818  -2
  -6   5  22 24.4281 2.18818   1
   5   5  20 86.7347 9.80013  -2
  -5   5  22 86.7347 9.80013   1
   4   5  21 140.166 4.37922  -2
  -4   5  22 140.166 4.37922   1
   3   5  21 181.121 4.17793  -2
  -3   5  22 181.121 4.17793   1
   2   5  21 184.418 6.92263  -2
  -2   5  22 184.418 6.92263   1
   1   5  22 493.614 10.2851  -2
  -1   5  22 493.614 10.2851   1
   0   5  22 1.48050 1.79055  -2
   0   5  22 1.48050 1.79055   1
  -1   5  22 467.450 13.8407  -2
   1   5  22 467.450 13.8407   1
  -2   5  23 36.4523 2.94997  -2
   2   5  22 36.4523 2.94997   1
  -3   5  23 201.276 5.39052  -2
   3   5  22 201.276 5.39052   1
  -4   5  23 256.234 7.31501  -2
   4   5  22 256.234 7.31501   1
  -5   5  24 3.78841 3.87585  -2
   5   5  22 3.78841 3.87585   1
  -6   5  24 12.0654 2.88124  -2
   6   5  22 12.0654 2.88124   1
  -7   5  24 0.38305 3.16244  -2
   7   5  22 0.38305 3.16244   1
  -8   5  24 -7.3874 6.75299  -2
   8   5  22 -7.3874 6.75299   1
  -9   5  25 6.33023 3.02440  -2
   9   5  22 6.33023 3.02440   1
  10   6  19 113.972 3.88967  -2
 -10   6  22 113.972 3.88967   1
   9   6  19 36.0687 2.27658  -2
  -9   6  22 36.0687 2.27658   1
   8   6  20 105.645 5.66839  -2
  -8   6  22 105.645 5.66839   1
   7   6  20 325.681 7.33233  -2
  -7   6  22 325.681 7.33233   1
   6   6  20 156.433 3.85152  -2
  -6   6  22 156.433 3.85152   1
   5   6  20 67.2499 5.70850  -2
  -5   6  22 67.2499 5.70850   1
   4   6  21 9.28466 2.17025  -2
  -4   6  22 9.28466 2.17025   1
   3   6  21 267.048 5.47048  -2
  -3   6  22 267.048 5.47048   1
   2   6  21 198.175 4.77582  -2
  -2   6  22 198.175 4.77582   1
   1   6  22 84.0758 2.71742  -2
  -1   6  22 84.0758 2.71742   1
   0   6  22 5.32845 1.21894  -2
   0   6  22 5.32845 1.21894   1
  -1   6  22 82.0971 3.24661  -2
   1   6  22 82.0971 3.24661   1
  -2   6  23 43.3894 3.70260  -2
   2   6  22 43.3894 3.70260   1
  -3   6  23 194.696 5.30141  -2
   3   6  22 194.696 5.30141   1
  -4   6  23 2.74196 2.60287  -2
   4   6  22 2.74196 2.60287   1
  -5   6  24 24.3958 3.99792  -2
   5   6  22 24.3958 3.99792   1
  -6   6  24 103.099 3.57807  -2
   6   6  22 103.099 3.57807   1
  -7   6  24 41.5239 3.00049  -2
   7   6  22 41.5239 3.00049   1
   8   6  22 6.55052 2.26303   1
  -9   6  25 22.4011 4.93039  -2
   9   6  22 22.4011 4.93039   1
  10   7  19 39.3520 2.50404  -2
 -10   7  22 39.3520 2.50404   1
   9   7  19 114.690 3.27670  -2
  -9   7  22 114.690 3.27670   1
   8   7  20 10.8018 3.38661  -2
  -8   7  22 10.8018 3.38661   1
   7   7  20 52.4575 2.36639  -2
  -7   7  22 52.4575 2.36639   1
   6   7  20 20.0968 2.08528  -2
  -6   7  22 20.0968 2.08528   1
   5   7  20 33.1365 4.88438  -2
  -5   7  22 33.1365 4.88438   1
   4   7  21 -0.4232 2.03439  -2
  -4   7  22 -0.4232 2.03439   1
   3   7  21 8.49964 2.13730  -2
  -3   7  22 8.49964 2.13730   1
   2   7  21 14.9158 2.99981  -2
  -2   7  22 14.9158 2.99981   1
   1   7  22 251.669 5.08274  -2
  -1   7  22 251.669 5.08274   1
   0   7  22 6.58848 1.30969  -2
   0   7  22 6.58848 1.30969   1
  -1   7  22 243.778 4.70814  -2
   1   7  22 243.778 4.70814   1
  -2   7  23 28.6113 3.15223  -2
   2   7  22 28.6113 3.15223   1
  -3   7  23 36.4733 2.89311  -2
   3   7  22 36.4733 2.89311   1
  -4   7  23 42.9444 3.00771  -2
   4   7  22 42.9444 3.00771   1
  -5   7  24 32.0292 3.49047  -2
   5   7  22 32.0292 3.49047   1
  -6   7  24 37.1943 2.73762  -2
   6   7  22 37.1943 2.73762   1
  -7   7  24 -0.3599 2.00663  -2
   7   7  22 -0.3599 2.00663   1
  -8   7  24 46.5262 5.65571  -2
   8   7  22 46.5262 5.65571   1
  -9   7  25 5.64378 4.01458  -2
   9   7  22 5.64378 4.01458   1
   9   8  19 36.9072 2.26886  -2
  -9   8  22 36.9072 2.26886   1
   8   8  20 24.9299 3.31794  -2
  -8   8  22 24.9299 3.31794   1
   7   8  20 114.736 3.11441  -2
  -7   8  22 114.736 3.11441   1
   6   8  20 34.6075 2.26898  -2
  -6   8  22 34.6075 2.26898   1
   5   8  20 129.993 10.7892  -2
  -5   8  22 129.993 10.7892   1
   4   8  21 52.3640 2.63907  -2
  -4   8  22 52.3640 2.63907   1
   3   8  21 93.8554 2.70744  -2
  -3   8  22 93.8554 2.70744   1
   2   8  21 93.3402 3.56111  -2
  -2   8  22 93.3402 3.56111   1
   1   8  22 302.466 5.90438  -2
  -1   8  22 302.466 5.90438   1
   0   8  22 36.1147 1.57726  -2
   0   8  22 36.1147 1.57726   1
  -1   8  22 293.112 5.49607  -2
   1   8  22 293.112 5.49607   1
  -2   8  23 111.640 4.22400  -2
   2   8  22 111.640 4.22400   1
  -3   8  23 56.2112 2.69236  -2
   3   8  22 56.2112 2.69236   1
  -4   8  23 25.3219 2.71790  -2
   4   8  22 25.3219 2.71790   1
  -5   8  24 32.3391 4.80369  -2
   5   8  22 32.3391 4.80369   1
  -6   8  24 80.9179 3.77930  -2
   6   8  22 80.9179 3.77930   1
  -7   8  24 44.9737 2.72818  -2
   7   8  22 44.9737 2.72818   1
   8   8  22 26.8532 2.41070   1
   9   9  19 12.0193 1.99584  -2
  -9   9  22 12.0193 1.99584   1
   8   9  20 65.9262 6.08551  -2
  -8   9  22 65.9262 6.08551   1
   7   9  20 13.0774 1.61172  -2
  -7   9  22 13.0774 1.61172   1
   6   9  20 34.8247 2.44072  -2
  -6   9  22 34.8247 2.44072   1
   5   9  20 59.9704 8.05422  -2
  -5   9  22 59.9704 8.05422   1
   4   9  21 84.8305 3.40793  -2
  -4   9  22 84.8305 3.40793   1
   3   9  21 81.4060 2.65307  -2
  -3   9  22 81.4060 2.65307   1
   2   9  21 362.060 7.80167  -2
  -2   9  22 362.060 7.80167   1
   1   9  22 127.444 3.32363  -2
  -1   9  22 127.444 3.32363   1
   0   9  22 18.8139 1.56686  -2
   0   9  22 18.8139 1.56686   1
  -1   9  22 127.912 3.64522  -2
   1   9  22 127.912 3.64522   1
  -2   9  23 21.6980 2.45769  -2
   2   9  22 21.6980 2.45769   1
  -3   9  23 99.3472 3.14330  -2
   3   9  22 99.3472 3.14330   1
  -4   9  23 87.6937 3.76082  -2
   4   9  22 87.6937 3.76082   1
  -5   9  24 73.9519 9.09064  -2
   5   9  22 73.9519 9.09064   1
  -6   9  24 36.3518 2.74437  -2
   6   9  22 36.3518 2.74437   1
  -7   9  24 51.6132 2.67425  -2
   7   9  22 51.6132 2.67425   1
   8   9  22 0.74062 1.47340   1
   7  10  20 71.6787 4.13949  -2
  -7  10  22 71.6787 4.13949   1
   6  10  20 28.0295 2.13359  -2
  -6  10  22 28.0295 2.13359   1
   5  10  20 110.852 9.41552  -2
  -5  10  22 110.852 9.41552   1
   4  10  21 73.4722 3.03902  -2
  -4  10  22 73.4722 3.03902   1
   3  10  21 122.458 3.42786  -2
  -3  10  22 122.458 3.42786   1
   2  10  21 34.6710 2.97317  -2
  -2  10  22 34.6710 2.97317   1
   1  10  22 52.3706 2.84874  -2
  -1  10  22 52.3706 2.84874   1
   0  10  22 12.5216 1.58596  -2
   0  10  22 12.5216 1.58596   1
  -1  10  22 52.0822 2.48896  -2
   1  10  22 52.0822 2.48896   1
  -2  10  23 82.2716 3.84072  -2
   2  10  22 82.2716 3.84072   1
  -3  10  23 6.81128 1.62023  -2
   3  10  22 6.81128 1.62023   1
  -4  10  23 33.7312 2.48414  -2
   4  10  22 33.7312 2.48414   1
  -5  10  24 32.3395 7.80376  -2
   5  10  22 32.3395 7.80376   1
  -6  10  24 1.97445 2.02133  -2
   6  10  22 1.97445 2.02133   1
  -7  10  24 40.9913 2.25474  -2
   7  10  22 40.9913 2.25474   1
   7  11  20 38.2075 3.78348  -2
  -7  11  22 38.2075 3.78348   1
   6  11  20 1.21400 2.31743  -2
  -6  11  22 1.21400 2.31743   1
   5  11  20 134.110 6.69996  -2
  -5  11  22 134.110 6.69996   1
   4  11  21 144.945 4.01533  -2
  -4  11  22 144.945 4.01533   1
   3  11  21 20.1642 1.82006  -2
  -3  11  22 20.1642 1.82006   1
   2  11  21 1.19049 3.07119  -2
  -2  11  22 1.19049 3.07119   1
   1  11  22 -3.5132 2.56091  -2
  -1  11  22 -3.5132 2.56091   1
   0  11  22 59.7112 2.31511  -2
   0  11  22 59.7112 2.31511   1
  -1  11  22 5.68421 2.03417  -2
   1  11  22 5.68421 2.03417   1
  -2  11  23 25.8384 2.13871  -2
   2  11  22 25.8384 2.13871   1
  -3  11  23 21.2563 2.07508  -2
   3  11  22 21.2563 2.07508   1
  -4  11  23 105.211 3.29332  -2
   4  11  22 105.211 3.29332   1
   5  11  22 14.9000 1.61061   1
  -6  11  24 64.2974 2.76736  -2
   6  11  22 64.2974 2.76736   1
   6  12  20 21.9981 3.40398  -2
  -6  12  22 21.9981 3.40398   1
   5  12  20 80.7633 7.17980  -2
  -5  12  22 80.7633 7.17980   1
   5  12  21 24.5926 4.31277  -2
  -5  12  22 24.5926 4.31277   1
   4  12  21 20.0017 1.86851  -2
  -4  12  22 20.0017 1.86851   1
   3  12  21 2.70542 1.70578  -2
  -3  12  22 2.70542 1.70578   1
   2  12  21 7.82109 3.29856  -2
  -2  12  22 7.82109 3.29856   1
   1  12  22 73.6321 2.99577  -2
  -1  12  22 73.6321 2.99577   1
   0  12  22 3.20455 1.51382  -2
   0  12  22 3.20455 1.51382   1
  -1  12  22 65.8931 2.93945  -2
   1  12  22 65.8931 2.93945   1
  -2  12  23 8.61590 2.15553  -2
   2  12  22 8.61590 2.15553   1
  -3  12  23 51.0995 2.30309  -2
   3  12  22 51.0995 2.30309   1
  -4  12  23 12.4490 1.79169  -2
   4  12  22 12.4490 1.79169   1
   5  12  22 0.01132 1.11209   1
   3  13  21 143.670 4.09007  -2
  -3  13  22 143.670 4.09007   1
   2  13  21 11.2395 2.29169  -2
  -2  13  22 11.2395 2.29169   1
   1  13  22 45.6923 2.39612  -2
  -1  13  22 45.6923 2.39612   1
   0  13  22 1.46942 1.18071  -2
   0  13  22 1.46942 1.18071   1
  -1  13  22 47.5841 3.15132  -2
   1  13  22 47.5841 3.15132   1
  -2  13  23 147.203 6.03160  -2
   2  13  22 147.203 6.03160   1
  -3  13  23 28.6723 2.10888  -2
   3  13  22 28.6723 2.10888   1
  -4  13  23 60.3110 4.77604  -2
   4  13  22 60.3110 4.77604   1
   2  14  21 9.13606 3.55421  -2
  -2  14  22 9.13606 3.55421   1
  -1  14  22 1.50149 1.97802   1
   0  14  22 23.6877 2.12084  -2
   0  14  22 23.6877 2.12084   1
  -1  14  22 3.94410 2.48850  -2
   1  14  22 3.94410 2.48850   1
  11   0  20 64.8127 3.65345  -2
 -11   0  23 64.8127 3.65345   1
  10   0  20 36.3865 2.46138  -2
 -10   0  23 36.3865 2.46138   1
   9   0  20 29.2384 2.47965  -2
  -9   0  23 29.2384 2.47965   1
   8   0  21 0.33877 3.07174  -2
  -8   0  23 0.33877 3.07174   1
   7   0  21 8.66742 2.33079  -2
  -7   0  23 8.66742 2.33079   1
   6   0  21 0.71144 2.71978  -2
  -6   0  23 0.71144 2.71978   1
   4   0  22 306.368 11.3245  -2
  -4   0  23 306.368 11.3245   1
   3   0  22 41.9857 6.09133  -2
  -3   0  23 41.9857 6.09133   1
   2   0  22 15.8417 6.79101  -2
  -2   0  23 15.8417 6.79101   1
   1   0  23 -2.3789 6.75135  -2
  -1   0  23 -2.3789 6.75135   1
   0   0  23 3.24105 2.73975  -2
   0   0  23 3.24105 2.73975   1
  -1   0  23 -4.1730 4.58392  -2
   1   0  23 -4.1730 4.58392   1
  -2   0  24 16.1802 4.78869  -2
   2   0  23 16.1802 4.78869   1
  -3   0  24 35.9344 4.21570  -2
   3   0  23 35.9344 4.21570   1
  -5   0  25 40.0793 7.55871  -2
   5   0  23 40.0793 7.55871   1
  -6   0  25 28.9434 5.57641  -2
   6   0  23 28.9434 5.57641   1
  -7   0  25 4.90076 2.98936  -2
   7   0  23 4.90076 2.98936   1
   8   0  23 1.07777 2.69212   1
  -9   0  26 4.45687 3.84302  -2
   9   0  23 4.45687 3.84302   1
 -10   0  26 106.217 7.59445  -2
  10   0  23 106.217 7.59445   1
  11   1  20 18.6353 1.77537  -2
 -11   1  23 18.6353 1.77537   1
  10   1  20 53.6192 1.72450  -2
 -10   1  23 53.6192 1.72450   1
   9   1  20 69.8186 2.19250  -2
  -9   1  23 69.8186 2.19250   1
   8   1  21 15.0776 2.19442  -2
  -8   1  23 15.0776 2.19442   1
   7   1  21 22.3046 1.88651  -2
  -7   1  23 22.3046 1.88651   1
   6   1  21 55.2160 2.96090  -2
  -6   1  23 55.2160 2.96090   1
   4   1  22 236.985 5.94075  -2
  -4   1  23 236.985 5.94075   1
   3   1  22 114.028 6.16709  -2
  -3   1  23 114.028 6.16709   1
   2   1  22 245.271 10.7686  -2
  -2   1  23 245.271 10.7686   1
   1   1  23 28.0110 5.09067  -2
  -1   1  23 28.0110 5.09067   1
   0   1  23 58.7373 3.49202  -2
   0   1  23 58.7373 3.49202   1
  -1   1  23 29.8753 3.50111  -2
   1   1  23 29.8753 3.50111   1
  -2   1  24 116.803 4.87340  -2
   2   1  23 116.803 4.87340   1
  -3   1  24 31.2831 2.37597  -2
   3   1  23 31.2831 2.37597   1
  -4   1  24 19.8880 3.53284  -2
   4   1  23 19.8880 3.53284   1
  -5   1  25 407.232 22.3450  -2
   5   1  23 407.232 22.3450   1
  -6   1  25 24.7434 3.17138  -2
   6   1  23 24.7434 3.17138   1
  -7   1  25 15.8254 4.02907  -2
   7   1  23 15.8254 4.02907   1
   8   1  23 83.8280 4.57674   1
  -9   1  26 64.6715 3.59391  -2
   9   1  23 64.6715 3.59391   1
 -10   1  26 12.2129 4.53883  -2
  10   1  23 12.2129 4.53883   1
  11   2  20 11.3195 1.66185  -2
 -11   2  23 11.3195 1.66185   1
  10   2  20 17.2544 1.31754  -2
 -10   2  23 17.2544 1.31754   1
   9   2  20 22.8758 2.06140  -2
  -9   2  23 22.8758 2.06140   1
   8   2  21 192.458 4.70385  -2
  -8   2  23 192.458 4.70385   1
   7   2  21 48.0247 2.31154  -2
  -7   2  23 48.0247 2.31154   1
   6   2  21 120.287 3.60410  -2
  -6   2  23 120.287 3.60410   1
   4   2  22 53.7285 2.71765  -2
  -4   2  23 53.7285 2.71765   1
   3   2  22 86.5408 5.43887  -2
  -3   2  23 86.5408 5.43887   1
   2   2  22 63.5058 8.43608  -2
  -2   2  23 63.5058 8.43608   1
   1   2  23 168.492 8.45729  -2
  -1   2  23 168.492 8.45729   1
   0   2  23 5.50776 1.89370  -2
   0   2  23 5.50776 1.89370   1
  -1   2  23 150.433 5.65202  -2
   1   2  23 150.433 5.65202   1
  -2   2  24 19.1665 2.88354  -2
   2   2  23 19.1665 2.88354   1
  -3   2  24 80.0657 2.90837  -2
   3   2  23 80.0657 2.90837   1
  -4   2  24 41.4404 2.97861  -2
   4   2  23 41.4404 2.97861   1
  -5   2  25 90.1103 6.21690  -2
   5   2  23 90.1103 6.21690   1
  -6   2  25 3.78267 3.59308  -2
   6   2  23 3.78267 3.59308   1
  -7   2  25 80.2051 5.31793  -2
   7   2  23 80.2051 5.31793   1
  -8   2  25 3.95679 7.79340  -2
   8   2  23 3.95679 7.79340   1
  -8   2  26 3.66808 5.24088  -2
   8   2  23 3.66808 5.24088   1
  -9   2  26 7.86884 3.04383  -2
   9   2  23 7.86884 3.04383   1
  11   3  20 22.2094 1.99163  -2
 -11   3  23 22.2094 1.99163   1
  10   3  20 52.8046 1.75782  -2
 -10   3  23 52.8046 1.75782   1
   9   3  20 18.0011 1.94346  -2
  -9   3  23 18.0011 1.94346   1
   8   3  21 48.9051 3.01155  -2
  -8   3  23 48.9051 3.01155   1
   7   3  21 45.1022 2.59387  -2
  -7   3  23 45.1022 2.59387   1
   6   3  21 77.0188 2.98827  -2
  -6   3  23 77.0188 2.98827   1
   5   3  21 77.3817 9.25593  -2
  -5   3  23 77.3817 9.25593   1
   4   3  22 445.348 8.43014  -2
  -4   3  23 445.348 8.43014   1
   3   3  22 78.1533 2.72258  -2
  -3   3  23 78.1533 2.72258   1
   2   3  22 67.2592 8.45080  -2
  -2   3  23 67.2592 8.45080   1
   1   3  23 56.2980 4.14116  -2
  -1   3  23 56.2980 4.14116   1
   0   3  23 128.418 3.96376  -2
   0   3  23 128.418 3.96376   1
  -1   3  23 60.1424 3.41953  -2
   1   3  23 60.1424 3.41953   1
  -2   3  24 263.015 6.29803  -2
   2   3  23 263.015 6.29803   1
  -3   3  24 382.690 8.83330  -2
   3   3  23 382.690 8.83330   1
  -4   3  24 174.013 4.94146  -2
   4   3  23 174.013 4.94146   1
  -5   3  25 63.2124 5.47232  -2
   5   3  23 63.2124 5.47232   1
  -6   3  25 37.5769 3.44557  -2
   6   3  23 37.5769 3.44557   1
  -7   3  25 59.1511 5.08584  -2
   7   3  23 59.1511 5.08584   1
  -8   3  25 -0.6275 6.16909  -2
   8   3  23 -0.6275 6.16909   1
  -9   3  26 30.1987 2.75864  -2
   9   3  23 30.1987 2.75864   1
 -11   4  23 1.91430 0.90725   1
  10   4  20 9.45880 1.18757  -2
 -10   4  23 9.45880 1.18757   1
   9   4  20 9.97538 1.82733  -2
  -9   4  23 9.97538 1.82733   1
   8   4  21 79.9167 3.74899  -2
  -8   4  23 79.9167 3.74899   1
   7   4  21 16.3044 2.16576  -2
  -7   4  23 16.3044 2.16576   1
   6   4  21 177.467 4.76289  -2
  -6   4  23 177.467 4.76289   1
   5   4  21 204.298 9.24332  -2
  -5   4  23 204.298 9.24332   1
   4   4  22 73.6039 3.08168  -2
  -4   4  23 73.6039 3.08168   1
   3   4  22 6.38446 1.95304  -2
  -3   4  23 6.38446 1.95304   1
   2   4  22 92.5383 3.91000  -2
  -2   4  23 92.5383 3.91000   1
   1   4  23 85.8215 3.25567  -2
  -1   4  23 85.8215 3.25567   1
   0   4  23 29.1165 1.98631  -2
   0   4  23 29.1165 1.98631   1
  -1   4  23 78.2994 3.02481  -2
   1   4  23 78.2994 3.02481   1
  -2   4  24 12.0965 2.70143  -2
   2   4  23 12.0965 2.70143   1
  -3   4  24 162.818 4.17635  -2
   3   4  23 162.818 4.17635   1
  -4   4  24 14.3053 3.01715  -2
   4   4  23 14.3053 3.01715   1
  -5   4  25 26.3046 4.22675  -2
   5   4  23 26.3046 4.22675   1
  -6   4  25 35.9082 3.85342  -2
   6   4  23 35.9082 3.85342   1
  -7   4  25 20.1049 3.45510  -2
   7   4  23 20.1049 3.45510   1
  -8   4  25 -0.7710 3.53069  -2
   8   4  23 -0.7710 3.53069   1
  -9   4  26 33.1370 4.34417  -2
   9   4  23 33.1370 4.34417   1
  10   5  20 9.39046 1.16079  -2
 -10   5  23 9.39046 1.16079   1
   9   5  20 85.1175 2.72296  -2
  -9   5  23 85.1175 2.72296   1
   8   5  21 6.74647 2.66478  -2
  -8   5  23 6.74647 2.66478   1
   7   5  21 34.7742 2.40951  -2
  -7   5  23 34.7742 2.40951   1
   6   5  21 3.17590 2.00750  -2
  -6   5  23 3.17590 2.00750   1
   5   5  21 47.3365 8.27060  -2
  -5   5  23 47.3365 8.27060   1
   4   5  22 260.552 5.94202  -2
  -4   5  23 260.552 5.94202   1
   3   5  22 207.503 4.25626  -2
  -3   5  23 207.503 4.25626   1
   2   5  22 35.5131 2.49192  -2
  -2   5  23 35.5131 2.49192   1
   1   5  23 196.254 4.58737  -2
  -1   5  23 196.254 4.58737   1
   0   5  23 2.79177 1.51584  -2
   0   5  23 2.79177 1.51584   1
  -1   5  23 184.819 4.78347  -2
   1   5  23 184.819 4.78347   1
  -2   5  24 6.68655 2.65531  -2
   2   5  23 6.68655 2.65531   1
  -3   5  24 43.8544 2.65329  -2
   3   5  23 43.8544 2.65329   1
  -4   5  24 42.8703 3.30332  -2
   4   5  23 42.8703 3.30332   1
  -5   5  25 70.7913 5.46245  -2
   5   5  23 70.7913 5.46245   1
  -6   5  25 7.83817 2.50330  -2
   6   5  23 7.83817 2.50330   1
  -7   5  25 23.7723 2.69328  -2
   7   5  23 23.7723 2.69328   1
   8   5  23 22.6863 2.72022   1
  10   6  20 17.7150 1.99470  -2
 -10   6  23 17.7150 1.99470   1
   9   6  20 5.48858 1.70402  -2
  -9   6  23 5.48858 1.70402   1
   8   6  21 5.09035 2.85740  -2
  -8   6  23 5.09035 2.85740   1
   7   6  21 29.4813 2.22495  -2
  -7   6  23 29.4813 2.22495   1
   6   6  21 7.56444 1.97676  -2
  -6   6  23 7.56444 1.97676   1
   5   6  21 71.9892 5.75166  -2
  -5   6  23 71.9892 5.75166   1
   4   6  22 5.76906 2.30072  -2
  -4   6  23 5.76906 2.30072   1
   3   6  22 200.261 4.43100  -2
  -3   6  23 200.261 4.43100   1
   2   6  22 42.3252 2.77144  -2
  -2   6  23 42.3252 2.77144   1
   1   6  23 2.09696 2.20468  -2
  -1   6  23 2.09696 2.20468   1
   0   6  23 17.3872 1.51944  -2
   0   6  23 17.3872 1.51944   1
  -1   6  23 4.22323 2.44284  -2
   1   6  23 4.22323 2.44284   1
  -2   6  24 84.8357 4.27288  -2
   2   6  23 84.8357 4.27288   1
  -3   6  24 29.2339 2.41015  -2
   3   6  23 29.2339 2.41015   1
  -4   6  24 0.33281 2.53444  -2
   4   6  23 0.33281 2.53444   1
  -5   6  25 31.0279 4.79839  -2
   5   6  23 31.0279 4.79839   1
  -6   6  25 16.5783 2.19358  -2
   6   6  23 16.5783 2.19358   1
  -7   6  25 1.55547 3.59167  -2
   7   6  23 1.55547 3.59167   1
   8   6  23 11.8282 2.13384   1
   9   6  23 3.08252 1.38717   1
   9   7  20 118.902 3.77461  -2
  -9   7  23 118.902 3.77461   1
   8   7  21 13.7057 3.32040  -2
  -8   7  23 13.7057 3.32040   1
   7   7  21 28.5582 1.98202  -2
  -7   7  23 28.5582 1.98202   1
   6   7  21 27.4683 2.04870  -2
  -6   7  23 27.4683 2.04870   1
   5   7  21 34.2634 4.79227  -2
  -5   7  23 34.2634 4.79227   1
   4   7  22 43.2734 2.37011  -2
  -4   7  23 43.2734 2.37011   1
   3   7  22 42.0600 2.45759  -2
  -3   7  23 42.0600 2.45759   1
   2   7  22 28.8051 2.83414  -2
  -2   7  23 28.8051 2.83414   1
   1   7  23 13.4941 2.23962  -2
  -1   7  23 13.4941 2.23962   1
   0   7  23 -0.4123 1.14502  -2
   0   7  23 -0.4123 1.14502   1
  -1   7  23 12.3948 2.03907  -2
   1   7  23 12.3948 2.03907   1
  -2   7  24 21.0587 3.37101  -2
   2   7  23 21.0587 3.37101   1
  -3   7  24 31.2950 2.78644  -2
   3   7  23 31.2950 2.78644   1
  -4   7  24 24.7730 2.75053  -2
   4   7  23 24.7730 2.75053   1
  -5   7  25 -1.8821 8.05450  -2
   5   7  23 -1.8821 8.05450   1
  -6   7  25 1.19531 2.11180  -2
   6   7  23 1.19531 2.11180   1
  -7   7  25 12.2187 1.99071  -2
   7   7  23 12.2187 1.99071   1
   8   7  23 12.7375 1.98218   1
   9   8  20 21.7577 2.28242  -2
  -9   8  23 21.7577 2.28242   1
   8   8  21 6.68269 3.05532  -2
  -8   8  23 6.68269 3.05532   1
   7   8  21 13.3416 1.69106  -2
  -7   8  23 13.3416 1.69106   1
   6   8  21 52.7413 2.39552  -2
  -6   8  23 52.7413 2.39552   1
   5   8  21 152.287 11.4287  -2
  -5   8  23 152.287 11.4287   1
   4   8  22 24.1755 2.21148  -2
  -4   8  23 24.1755 2.21148   1
   3   8  22 59.5292 2.25339  -2
  -3   8  23 59.5292 2.25339   1
   2   8  22 110.592 3.50202  -2
  -2   8  23 110.592 3.50202   1
   1   8  23 12.6510 2.04934  -2
  -1   8  23 12.6510 2.04934   1
   0   8  23 5.30801 1.19723  -2
   0   8  23 5.30801 1.19723   1
  -1   8  23 14.8148 2.37503  -2
   1   8  23 14.8148 2.37503   1
  -2   8  24 25.1816 3.40291  -2
   2   8  23 25.1816 3.40291   1
  -3   8  24 47.9142 2.51842  -2
   3   8  23 47.9142 2.51842   1
  -4   8  24 16.8004 2.50150  -2
   4   8  23 16.8004 2.50150   1
  -5   8  25 3.91858 7.62588  -2
   5   8  23 3.91858 7.62588   1
  -6   8  25 38.8893 2.72742  -2
   6   8  23 38.8893 2.72742   1
  -7   8  25 28.1207 2.27719  -2
   7   8  23 28.1207 2.27719   1
   8   8  23 0.43808 1.44870   1
  -8   9  23 12.2655 1.59298   1
   7   9  21 9.11685 1.69791  -2
  -7   9  23 9.11685 1.69791   1
   6   9  21 19.8331 2.19421  -2
  -6   9  23 19.8331 2.19421   1
   5   9  21 62.3605 7.94087  -2
  -5   9  23 62.3605 7.94087   1
   4   9  22 84.7171 3.33271  -2
  -4   9  23 84.7171 3.33271   1
   3   9  22 100.145 3.14617  -2
  -3   9  23 100.145 3.14617   1
   2   9  22 19.2356 2.38290  -2
  -2   9  23 19.2356 2.38290   1
   1   9  23 36.0015 2.24486  -2
  -1   9  23 36.0015 2.24486   1
   0   9  23 102.904 2.68034  -2
   0   9  23 102.904 2.68034   1
  -1   9  23 33.1770 2.31577  -2
   1   9  23 33.1770 2.31577   1
  -2   9  24 64.8488 3.81303  -2
   2   9  23 64.8488 3.81303   1
  -3   9  24 153.383 4.40630  -2
   3   9  23 153.383 4.40630   1
  -4   9  24 135.284 4.53115  -2
   4   9  23 135.284 4.53115   1
  -5   9  25 64.0403 8.76696  -2
   5   9  23 64.0403 8.76696   1
  -6   9  25 39.3745 2.62981  -2
   6   9  23 39.3745 2.62981   1
  -7   9  25 19.8818 1.97479  -2
   7   9  23 19.8818 1.97479   1
  -8  10  23 155.841 5.66623   1
   7  10  21 33.2973 3.08157  -2
  -7  10  23 33.2973 3.08157   1
   6  10  21 109.479 3.24153  -2
  -6  10  23 109.479 3.24153   1
   5  10  21 56.9736 7.41256  -2
  -5  10  23 56.9736 7.41256   1
   4  10  22 39.8166 2.44267  -2
  -4  10  23 39.8166 2.44267   1
   3  10  22 3.53894 1.77739  -2
  -3  10  23 3.53894 1.77739   1
   2  10  22 76.7914 3.83414  -2
  -2  10  23 76.7914 3.83414   1
   1  10  23 157.390 4.23947  -2
  -1  10  23 157.390 4.23947   1
   0  10  23 234.234 4.82192  -2
   0  10  23 234.234 4.82192   1
  -1  10  23 152.342 3.87285  -2
   1  10  23 152.342 3.87285   1
  -2  10  24 4.56894 2.53134  -2
   2  10  23 4.56894 2.53134   1
  -3  10  24 48.3528 2.55709  -2
   3  10  23 48.3528 2.55709   1
  -4  10  24 2.65588 2.15798  -2
   4  10  23 2.65588 2.15798   1
   5  10  23 75.8212 3.20374   1
  -6  10  25 22.7500 2.10977  -2
   6  10  23 22.7500 2.10977   1
   7  11  21 17.4167 2.99977  -2
  -7  11  23 17.4167 2.99977   1
   6  11  21 11.8255 2.31033  -2
  -6  11  23 11.8255 2.31033   1
   5  11  21 22.5316 3.41431  -2
  -5  11  23 22.5316 3.41431   1
   4  11  22 106.723 3.27143  -2
  -4  11  23 106.723 3.27143   1
   3  11  22 21.9759 1.74560  -2
  -3  11  23 21.9759 1.74560   1
   2  11  22 18.7287 3.61507  -2
  -2  11  23 18.7287 3.61507   1
   1  11  23 4.57626 2.53282  -2
  -1  11  23 4.57626 2.53282   1
   0  11  23 0.86073 1.43224  -2
   0  11  23 0.86073 1.43224   1
  -1  11  23 6.00970 1.96833  -2
   1  11  23 6.00970 1.96833   1
  -2  11  24 9.67047 2.22984  -2
   2  11  23 9.67047 2.22984   1
  -3  11  24 140.743 4.09260  -2
   3  11  23 140.743 4.09260   1
  -4  11  24 108.409 3.49234  -2
   4  11  23 108.409 3.49234   1
   5  11  23 50.3505 2.36192   1
   5  12  21 27.9053 5.11750  -2
  -5  12  23 27.9053 5.11750   1
   4  12  22 5.65170 2.28592  -2
  -4  12  23 5.65170 2.28592   1
   3  12  22 48.9267 2.17514  -2
  -3  12  23 48.9267 2.17514   1
   2  12  22 1.71763 3.17815  -2
  -2  12  23 1.71763 3.17815   1
   1  12  23 6.68290 2.05522  -2
  -1  12  23 6.68290 2.05522   1
   0  12  23 3.70608 1.46026  -2
   0  12  23 3.70608 1.46026   1
  -1  12  23 3.51758 2.12081  -2
   1  12  23 3.51758 2.12081   1
  -2  12  24 59.7796 4.19416  -2
   2  12  23 59.7796 4.19416   1
  -3  12  24 2.28378 1.53748  -2
   3  12  23 2.28378 1.53748   1
  -4  12  24 2.80311 1.88856  -2
   4  12  23 2.80311 1.88856   1
   3  13  22 21.4643 2.22621  -2
  -3  13  23 21.4643 2.22621   1
   2  13  22 145.690 6.18423  -2
  -2  13  23 145.690 6.18423   1
   1  13  23 41.5151 2.47435  -2
  -1  13  23 41.5151 2.47435   1
   0  13  23 13.3431 1.83639  -2
   0  13  23 13.3431 1.83639   1
  -1  13  23 54.3714 3.73170  -2
   1  13  23 54.3714 3.73170   1
  -2  13  24 9.73930 2.77339  -2
   2  13  23 9.73930 2.77339   1
 -11   0  24 19.3765 1.80500   1
  10   0  21 6.77917 1.55546  -2
 -10   0  24 6.77917 1.55546   1
   9   0  21 18.0622 2.25591  -2
  -9   0  24 18.0622 2.25591   1
   8   0  22 43.6982 3.39610  -2
  -8   0  24 43.6982 3.39610   1
   7   0  22 157.442 4.47694  -2
  -7   0  24 157.442 4.47694   1
   6   0  22 100.593 4.65104  -2
  -6   0  24 100.593 4.65104   1
   5   0  22 97.5974 8.89788  -2
  -5   0  24 97.5974 8.89788   1
   4   0  23 14.9826 4.21609  -2
  -4   0  24 14.9826 4.21609   1
   3   0  23 33.4111 2.89604  -2
  -3   0  24 33.4111 2.89604   1
   2   0  23 15.6341 5.08103  -2
  -2   0  24 15.6341 5.08103   1
   1   0  24 110.067 5.17357  -2
  -1   0  24 110.067 5.17357   1
   0   0  24 4.23656 1.81519  -2
   0   0  24 4.23656 1.81519   1
  -1   0  24 105.068 4.83045  -2
   1   0  24 105.068 4.83045   1
  -2   0  25 125.573 5.36701  -2
   2   0  24 125.573 5.36701   1
  -3   0  25 51.2749 4.51418  -2
   3   0  24 51.2749 4.51418   1
  -4   0  25 119.392 6.39284  -2
   4   0  24 119.392 6.39284   1
  -5   0  26 123.416 10.1664  -2
   5   0  24 123.416 10.1664   1
  -6   0  26 239.831 9.33623  -2
   6   0  24 239.831 9.33623   1
  -7   0  26 3.90015 2.92420  -2
   7   0  24 3.90015 2.92420   1
   8   0  24 54.9363 5.01278   1
  -9   0  27 62.8260 7.69930  -2
   9   0  24 62.8260 7.69930   1
 -11   1  24 43.2475 1.60391   1
  10   1  21 3.91058 1.04824  -2
 -10   1  24 3.91058 1.04824   1
   9   1  21 54.1237 2.08117  -2
  -9   1  24 54.1237 2.08117   1
   8   1  22 53.0756 2.28717  -2
  -8   1  24 53.0756 2.28717   1
   7   1  22 7.93152 1.70131  -2
  -7   1  24 7.93152 1.70131   1
   6   1  22 301.253 6.50555  -2
  -6   1  24 301.253 6.50555   1
   5   1  22 115.142 5.42551  -2
  -5   1  24 115.142 5.42551   1
   4   1  23 20.0667 2.71311  -2
  -4   1  24 20.0667 2.71311   1
   3   1  23 33.1123 2.35745  -2
  -3   1  24 33.1123 2.35745   1
   2   1  23 115.537 4.85991  -2
  -2   1  24 115.537 4.85991   1
   1   1  24 45.2364 2.77837  -2
  -1   1  24 45.2364 2.77837   1
   0   1  24 67.8231 2.40586  -2
   0   1  24 67.8231 2.40586   1
  -1   1  24 39.2788 2.66868  -2
   1   1  24 39.2788 2.66868   1
  -2   1  25 136.625 4.45021  -2
   2   1  24 136.625 4.45021   1
  -3   1  25 241.955 6.68504  -2
   3   1  24 241.955 6.68504   1
  -4   1  25 22.7223 3.55767  -2
   4   1  24 22.7223 3.55767   1
  -5   1  26 98.4407 9.11674  -2
   5   1  24 98.4407 9.11674   1
  -6   1  26 27.9279 2.96286  -2
   6   1  24 27.9279 2.96286   1
  -7   1  26 23.0696 3.92845  -2
   7   1  24 23.0696 3.92845   1
   8   1  24 40.4905 3.20256   1
  -9   1  27 11.9582 3.17856  -2
   9   1  24 11.9582 3.17856   1
  10   2  21 33.5106 1.45232  -2
 -10   2  24 33.5106 1.45232   1
   9   2  21 15.8462 1.87722  -2
  -9   2  24 15.8462 1.87722   1
   8   2  22 19.5326 2.13749  -2
  -8   2  24 19.5326 2.13749   1
   7   2  22 47.7088 2.23136  -2
  -7   2  24 47.7088 2.23136   1
   6   2  22 119.952 3.52745  -2
  -6   2  24 119.952 3.52745   1
   5   2  22 24.5788 4.02566  -2
  -5   2  24 24.5788 4.02566   1
   5   2  23 84.4939 8.98169  -2
  -5   2  24 84.4939 8.98169   1
   4   2  23 43.9294 2.71788  -2
  -4   2  24 43.9294 2.71788   1
   3   2  23 76.4004 2.87817  -2
  -3   2  24 76.4004 2.87817   1
   2   2  23 19.9996 2.97374  -2
  -2   2  24 19.9996 2.97374   1
   1   2  24 18.3935 2.34398  -2
  -1   2  24 18.3935 2.34398   1
   0   2  24 129.487 3.22752  -2
   0   2  24 129.487 3.22752   1
  -1   2  24 21.5286 2.56701  -2
   1   2  24 21.5286 2.56701   1
  -2   2  25 48.9005 3.59461  -2
   2   2  24 48.9005 3.59461   1
  -3   2  25 45.2310 2.68357  -2
   3   2  24 45.2310 2.68357   1
  -4   2  25 56.7640 3.25481  -2
   4   2  24 56.7640 3.25481   1
  -5   2  26 94.5412 6.25233  -2
   5   2  24 94.5412 6.25233   1
  -6   2  26 15.8264 3.53848  -2
   6   2  24 15.8264 3.53848   1
  -7   2  26 17.4485 3.71495  -2
   7   2  24 17.4485 3.71495   1
  -8   2  26 4.51226 3.49530  -2
   8   2  24 4.51226 3.49530   1
  -8   2  27 4.66945 5.18594  -2
   8   2  24 4.66945 5.18594   1
  -9   2  27 89.8854 6.43972  -2
   9   2  24 89.8854 6.43972   1
  10   3  21 50.4737 1.63208  -2
 -10   3  24 50.4737 1.63208   1
   9   3  21 42.5269 2.09337  -2
  -9   3  24 42.5269 2.09337   1
   8   3  22 5.87370 2.55724  -2
  -8   3  24 5.87370 2.55724   1
   7   3  22 70.5692 2.87065  -2
  -7   3  24 70.5692 2.87065   1
   6   3  22 7.08752 2.17119  -2
  -6   3  24 7.08752 2.17119   1
   5   3  22 62.5444 3.96193  -2
  -5   3  24 62.5444 3.96193   1
   5   3  23 56.2468 8.08549  -2
  -5   3  24 56.2468 8.08549   1
   4   3  23 184.457 4.35306  -2
  -4   3  24 184.457 4.35306   1
   3   3  23 377.655 7.75391  -2
  -3   3  24 377.655 7.75391   1
   2   3  23 257.923 7.24492  -2
  -2   3  24 257.923 7.24492   1
   1   3  24 12.3722 2.66319  -2
  -1   3  24 12.3722 2.66319   1
   0   3  24 41.5017 1.98367  -2
   0   3  24 41.5017 1.98367   1
  -1   3  24 9.11802 2.49082  -2
   1   3  24 9.11802 2.49082   1
  -2   3  25 73.8024 3.66504  -2
   2   3  24 73.8024 3.66504   1
  -3   3  25 238.651 6.02791  -2
   3   3  24 238.651 6.02791   1
  -4   3  25 7.72044 2.45982  -2
   4   3  24 7.72044 2.45982   1
  -5   3  26 29.8406 4.93916  -2
   5   3  24 29.8406 4.93916   1
  -6   3  26 10.1102 3.34786  -2
   6   3  24 10.1102 3.34786   1
  -7   3  26 13.4112 4.05103  -2
   7   3  24 13.4112 4.05103   1
  -8   3  26 61.1448 7.35532  -2
   8   3  24 61.1448 7.35532   1
  10   4  21 77.6674 1.95668  -2
 -10   4  24 77.6674 1.95668   1
   9   4  21 52.6157 1.98177  -2
  -9   4  24 52.6157 1.98177   1
   8   4  22 4.81955 2.66818  -2
  -8   4  24 4.81955 2.66818   1
   7   4  22 38.1545 2.34452  -2
  -7   4  24 38.1545 2.34452   1
   6   4  22 149.046 4.27675  -2
  -6   4  24 149.046 4.27675   1
   5   4  22 178.577 6.76464  -2
  -5   4  24 178.577 6.76464   1
   4   4  23 19.1462 2.47250  -2
  -4   4  24 19.1462 2.47250   1
   3   4  23 180.860 3.87542  -2
  -3   4  24 180.860 3.87542   1
   2   4  23 14.3112 2.64425  -2
  -2   4  24 14.3112 2.64425   1
   1   4  24 329.729 7.78623  -2
  -1   4  24 329.729 7.78623   1
   0   4  24 50.0327 2.27777  -2
   0   4  24 50.0327 2.27777   1
  -1   4  24 322.052 7.71665  -2
   1   4  24 322.052 7.71665   1
  -2   4  25 55.1436 3.09264  -2
   2   4  24 55.1436 3.09264   1
  -3   4  25 35.4879 2.24541  -2
   3   4  24 35.4879 2.24541   1
  -4   4  25 122.158 4.68312  -2
   4   4  24 122.158 4.68312   1
  -5   4  26 21.8772 4.06605  -2
   5   4  24 21.8772 4.06605   1
  -6   4  26 71.7092 4.32540  -2
   6   4  24 71.7092 4.32540   1
  -7   4  26 22.8493 3.16983  -2
   7   4  24 22.8493 3.16983   1
   8   4  24 0.14581 2.59855   1
  10   5  21 17.1849 1.25690  -2
 -10   5  24 17.1849 1.25690   1
   9   5  21 16.8181 1.80682  -2
  -9   5  24 16.8181 1.80682   1
   8   5  22 6.76450 2.37258  -2
  -8   5  24 6.76450 2.37258   1
   7   5  22 3.09446 1.93373  -2
  -7   5  24 3.09446 1.93373   1
   6   5  22 10.5479 1.93685  -2
  -6   5  24 10.5479 1.93685   1
   5   5  22 3.57644 3.68255  -2
  -5   5  24 3.57644 3.68255   1
   4   5  23 51.8083 2.39082  -2
  -4   5  24 51.8083 2.39082   1
   3   5  23 41.0611 2.03956  -2
  -3   5  24 41.0611 2.03956   1
   2   5  23 12.1888 2.26127  -2
  -2   5  24 12.1888 2.26127   1
   1   5  24 125.073 4.16652  -2
  -1   5  24 125.073 4.16652   1
   0   5  24 4.82946 1.78053  -2
   0   5  24 4.82946 1.78053   1
  -1   5  24 120.150 4.46665  -2
   1   5  24 120.150 4.46665   1
  -2   5  25 34.7774 3.25180  -2
   2   5  24 34.7774 3.25180   1
  -3   5  25 139.281 4.23744  -2
   3   5  24 139.281 4.23744   1
  -4   5  25 23.4087 2.73785  -2
   4   5  24 23.4087 2.73785   1
  -5   5  26 0.85704 4.25789  -2
   5   5  24 0.85704 4.25789   1
  -6   5  26 22.9640 2.45026  -2
   6   5  24 22.9640 2.45026   1
  -7   5  26 7.47116 2.55949  -2
   7   5  24 7.47116 2.55949   1
   8   5  24 15.3641 2.30850   1
   9   6  21 66.8138 2.45197  -2
  -9   6  24 66.8138 2.45197   1
   8   6  22 25.7506 2.37541  -2
  -8   6  24 25.7506 2.37541   1
   7   6  22 39.1638 2.24145  -2
  -7   6  24 39.1638 2.24145   1
   6   6  22 105.838 3.01020  -2
  -6   6  24 105.838 3.01020   1
   5   6  22 25.4597 3.81261  -2
  -5   6  24 25.4597 3.81261   1
   4   6  23 2.87286 2.46641  -2
  -4   6  24 2.87286 2.46641   1
   3   6  23 26.1841 1.87641  -2
  -3   6  24 26.1841 1.87641   1
   2   6  23 83.4007 3.15103  -2
  -2   6  24 83.4007 3.15103   1
   1   6  24 7.44168 2.21191  -2
  -1   6  24 7.44168 2.21191   1
   0   6  24 218.628 4.35374  -2
   0   6  24 218.628 4.35374   1
  -1   6  24 9.80225 2.65160  -2
   1   6  24 9.80225 2.65160   1
  -2   6  25 3.52296 3.24225  -2
   2   6  24 3.52296 3.24225   1
  -3   6  25 25.7095 2.33322  -2
   3   6  24 25.7095 2.33322   1
  -4   6  25 31.8488 2.61392  -2
   4   6  24 31.8488 2.61392   1
  -5   6  26 14.3807 5.19140  -2
   5   6  24 14.3807 5.19140   1
  -6   6  26 49.0257 2.24804  -2
   6   6  24 49.0257 2.24804   1
  -7   6  26 35.6165 4.14236  -2
   7   6  24 35.6165 4.14236   1
   8   6  24 30.0473 3.01948   1
   9   7  21 22.3439 2.28031  -2
  -9   7  24 22.3439 2.28031   1
   8   7  22 48.8699 2.84495  -2
  -8   7  24 48.8699 2.84495   1
   7   7  22 0.33397 1.71565  -2
  -7   7  24 0.33397 1.71565   1
   6   7  22 39.7660 2.10999  -2
  -6   7  24 39.7660 2.10999   1
   5   7  22 23.1721 7.52120  -2
  -5   7  24 23.1721 7.52120   1
   4   7  23 21.5616 2.39934  -2
  -4   7  24 21.5616 2.39934   1
   3   7  23 34.4687 2.29957  -2
  -3   7  24 34.4687 2.29957   1
   2   7  23 23.2947 2.72708  -2
  -2   7  24 23.2947 2.72708   1
   1   7  24 -1.0433 2.13035  -2
  -1   7  24 -1.0433 2.13035   1
   0   7  24 11.1170 1.39005  -2
   0   7  24 11.1170 1.39005   1
  -1   7  24 1.67415 2.74620  -2
   1   7  24 1.67415 2.74620   1
  -2   7  25 89.5169 4.22382  -2
   2   7  24 89.5169 4.22382   1
  -3   7  25 3.23779 2.15538  -2
   3   7  24 3.23779 2.15538   1
  -4   7  25 27.2585 2.68027  -2
   4   7  24 27.2585 2.68027   1
   5   7  24 0.39019 1.18747   1
  -6   7  26 21.1131 2.22585  -2
   6   7  24 21.1131 2.22585   1
  -7   7  26 -4.0151 2.38780  -2
   7   7  24 -4.0151 2.38780   1
   8   7  24 18.1487 2.07583   1
   8   8  22 27.1548 3.17434  -2
  -8   8  24 27.1548 3.17434   1
   7   8  22 40.9981 1.87475  -2
  -7   8  24 40.9981 1.87475   1
   6   8  22 81.3480 2.68282  -2
  -6   8  24 81.3480 2.68282   1
   5   8  22 16.5309 6.99195  -2
  -5   8  24 16.5309 6.99195   1
   4   8  23 17.6225 2.53170  -2
  -4   8  24 17.6225 2.53170   1
   3   8  23 47.2559 2.15599  -2
  -3   8  24 47.2559 2.15599   1
   2   8  23 18.8399 2.91450  -2
  -2   8  24 18.8399 2.91450   1
   1   8  24 24.6760 2.06942  -2
  -1   8  24 24.6760 2.06942   1
   0   8  24 30.1183 1.48313  -2
   0   8  24 30.1183 1.48313   1
  -1   8  24 23.4012 2.41572  -2
   1   8  24 23.4012 2.41572   1
  -2   8  25 1.63997 3.99719  -2
   2   8  24 1.63997 3.99719   1
  -3   8  25 5.81459 2.10234  -2
   3   8  24 5.81459 2.10234   1
  -4   8  25 22.3318 2.40266  -2
   4   8  24 22.3318 2.40266   1
   5   8  24 0.53938 1.27099   1
  -6   8  26 49.7013 2.77965  -2
   6   8  24 49.7013 2.77965   1
  -7   8  26 4.40177 2.58003  -2
   7   8  24 4.40177 2.58003   1
  -8   9  24 8.38657 2.27485   1
   7   9  22 48.4600 2.29171  -2
  -7   9  24 48.4600 2.29171   1
   6   9  22 44.8836 2.37228  -2
  -6   9  24 44.8836 2.37228   1
   5   9  23 27.4266 5.75523  -2
  -5   9  24 27.4266 5.75523   1
   5   9  22 64.4012 7.89765  -2
  -5   9  24 64.4012 7.89765   1
   4   9  23 133.287 4.02054  -2
  -4   9  24 133.287 4.02054   1
   3   9  23 162.617 4.06789  -2
  -3   9  24 162.617 4.06789   1
   2   9  23 61.1280 3.19145  -2
  -2   9  24 61.1280 3.19145   1
   1   9  24 19.6516 2.06155  -2
  -1   9  24 19.6516 2.06155   1
   0   9  24 17.7283 1.58437  -2
   0   9  24 17.7283 1.58437   1
  -1   9  24 16.4268 2.42673  -2
   1   9  24 16.4268 2.42673   1
  -2   9  25 49.2250 3.46636  -2
   2   9  24 49.2250 3.46636   1
  -3   9  25 124.856 4.09029  -2
   3   9  24 124.856 4.09029   1
  -4   9  25 36.8233 2.65046  -2
   4   9  24 36.8233 2.65046   1
   5   9  24 -1.2663 1.20216   1
  -6   9  26 13.6688 1.99337  -2
   6   9  24 13.6688 1.99337   1
   7  10  22 53.5850 4.37441  -2
  -7  10  24 53.5850 4.37441   1
   6  10  22 -0.5905 1.89398  -2
  -6  10  24 -0.5905 1.89398   1
   5  10  22 34.2169 4.22341  -2
  -5  10  24 34.2169 4.22341   1
   4  10  23 6.03594 2.04200  -2
  -4  10  24 6.03594 2.04200   1
   3  10  23 49.3673 2.18026  -2
  -3  10  24 49.3673 2.18026   1
   2  10  23 -0.3405 2.76175  -2
  -2  10  24 -0.3405 2.76175   1
   1  10  24 8.31895 2.25813  -2
  -1  10  24 8.31895 2.25813   1
   0  10  24 100.900 2.66522  -2
   0  10  24 100.900 2.66522   1
  -1  10  24 10.7553 2.28245  -2
   1  10  24 10.7553 2.28245   1
  -2  10  25 15.6867 2.77266  -2
   2  10  24 15.6867 2.77266   1
  -3  10  25 3.22448 1.84296  -2
   3  10  24 3.22448 1.84296   1
  -4  10  25 18.7896 2.38738  -2
   4  10  24 18.7896 2.38738   1
   5  10  24 3.42502 1.32987   1
  -6  10  26 46.3367 2.66396  -2
   6  10  24 46.3367 2.66396   1
   6  11  22 68.6817 4.76275  -2
  -6  11  24 68.6817 4.76275   1
   5  11  22 19.1755 4.01170  -2
  -5  11  24 19.1755 4.01170   1
   5  11  23 48.8035 4.64845  -2
  -5  11  24 48.8035 4.64845   1
   4  11  23 112.484 3.26950  -2
  -4  11  24 112.484 3.26950   1
   3  11  23 138.281 3.35782  -2
  -3  11  24 138.281 3.35782   1
   2  11  23 20.1985 2.89095  -2
  -2  11  24 20.1985 2.89095   1
   1  11  24 80.4317 3.28284  -2
  -1  11  24 80.4317 3.28284   1
   0  11  24 1.49867 1.19729  -2
   0  11  24 1.49867 1.19729   1
  -1  11  24 85.4821 2.84029  -2
   1  11  24 85.4821 2.84029   1
  -2  11  25 28.9162 3.77267  -2
   2  11  24 28.9162 3.77267   1
  -3  11  25 39.2830 2.12384  -2
   3  11  24 39.2830 2.12384   1
  -4  11  25 1.37610 1.74691  -2
   4  11  24 1.37610 1.74691   1
   5  11  24 17.1710 1.49560   1
   4  12  23 0.27413 2.95235  -2
  -4  12  24 0.27413 2.95235   1
   3  12  23 4.60174 1.66887  -2
  -3  12  24 4.60174 1.66887   1
   2  12  23 58.0379 3.53491  -2
  -2  12  24 58.0379 3.53491   1
   1  12  24 5.01555 2.34328  -2
  -1  12  24 5.01555 2.34328   1
   0  12  24 30.1660 1.92222  -2
   0  12  24 30.1660 1.92222   1
  -1  12  24 8.08847 2.29640  -2
   1  12  24 8.08847 2.29640   1
  -2  12  25 27.7293 3.22903  -2
   2  12  24 27.7293 3.22903   1
  -3  12  25 21.8001 1.61263  -2
   3  12  24 21.8001 1.61263   1
   2  13  23 4.88553 4.34379  -2
  -2  13  24 4.88553 4.34379   1
   1  13  24 8.82591 3.51583  -2
  -1  13  24 8.82591 3.51583   1
   0  13  24 27.4358 2.25974  -2
   0  13  24 27.4358 2.25974   1
  -1  13  24 11.1567 3.79172  -2
   1  13  24 11.1567 3.79172   1
  10   0  22 22.7693 1.94279  -2
 -10   0  25 22.7693 1.94279   1
   9   0  22 -0.3014 1.92803  -2
  -9   0  25 -0.3014 1.92803   1
   8   0  23 6.50921 2.77787  -2
  -8   0  25 6.50921 2.77787   1
   7   0  23 1.19525 2.29230  -2
  -7   0  25 1.19525 2.29230   1
   6   0  23 26.6496 3.36150  -2
  -6   0  25 26.6496 3.36150   1
  -5   0  25 5.44731 2.36112   1
   4   0  24 113.287 6.09456  -2
  -4   0  25 113.287 6.09456   1
   3   0  24 42.5546 3.01916  -2
  -3   0  25 42.5546 3.01916   1
   2   0  24 115.700 4.69530  -2
  -2   0  25 115.700 4.69530   1
   1   0  25 -1.7985 3.41513  -2
  -1   0  25 -1.7985 3.41513   1
   0   0  25 9.78913 2.10102  -2
   0   0  25 9.78913 2.10102   1
  -1   0  25 -3.3895 3.23743  -2
   1   0  25 -3.3895 3.23743   1
  -2   0  26 519.625 14.6323  -2
   2   0  25 519.625 14.6323   1
  -3   0  26 243.824 9.73230  -2
   3   0  25 243.824 9.73230   1
  -4   0  26 -2.9019 3.90993  -2
   4   0  25 -2.9019 3.90993   1
  -5   0  27 44.7745 7.37275  -2
   5   0  25 44.7745 7.37275   1
  -6   0  27 4.71594 3.20325  -2
   6   0  25 4.71594 3.20325   1
  -7   0  27 9.34416 2.87323  -2
   7   0  25 9.34416 2.87323   1
   8   0  25 4.14613 2.58524   1
  -9   0  28 86.9796 7.70271  -2
   9   0  25 86.9796 7.70271   1
  10   1  22 33.6166 1.67194  -2
 -10   1  25 33.6166 1.67194   1
   9   1  22 12.0615 1.52593  -2
  -9   1  25 12.0615 1.52593   1
   8   1  23 97.1813 2.74466  -2
  -8   1  25 97.1813 2.74466   1
   7   1  23 14.5998 1.64501  -2
  -7   1  25 14.5998 1.64501   1
   6   1  23 29.2943 2.34679  -2
  -6   1  25 29.2943 2.34679   1
   5   1  24 241.196 14.2289  -2
  -5   1  25 241.196 14.2289   1
   5   1  23 470.659 16.1415  -2
  -5   1  25 470.659 16.1415   1
   4   1  24 20.0923 2.71219  -2
  -4   1  25 20.0923 2.71219   1
   3   1  24 234.267 5.31731  -2
  -3   1  25 234.267 5.31731   1
   2   1  24 123.087 3.43403  -2
  -2   1  25 123.087 3.43403   1
   1   1  25 250.206 5.34920  -2
  -1   1  25 250.206 5.34920   1
   0   1  25 60.2213 2.43558  -2
   0   1  25 60.2213 2.43558   1
  -1   1  25 262.065 5.89028  -2
   1   1  25 262.065 5.89028   1
  -2   1  26 2.12906 2.83539  -2
   2   1  25 2.12906 2.83539   1
  -3   1  26 72.6682 2.94005  -2
   3   1  25 72.6682 2.94005   1
  -4   1  26 89.5742 3.93530  -2
   4   1  25 89.5742 3.93530   1
  -5   1  27 16.3143 4.43743  -2
   5   1  25 16.3143 4.43743   1
  -6   1  27 67.3311 3.04339  -2
   6   1  25 67.3311 3.04339   1
  -7   1  27 96.7441 4.05239  -2
   7   1  25 96.7441 4.05239   1
   8   1  25 27.0484 2.61717   1
  -9   1  28 128.674 9.04964  -2
   9   1  25 128.674 9.04964   1
  10   2  22 89.6562 2.25851  -2
 -10   2  25 89.6562 2.25851   1
   9   2  22 69.7510 2.33264  -2
  -9   2  25 69.7510 2.33264   1
   8   2  23 8.90389 1.85650  -2
  -8   2  25 8.90389 1.85650   1
   7   2  23 87.5466 2.64067  -2
  -7   2  25 87.5466 2.64067   1
   6   2  23 3.32452 2.11063  -2
  -6   2  25 3.32452 2.11063   1
   5   2  23 90.3778 6.07423  -2
  -5   2  25 90.3778 6.07423   1
   5   2  24 71.5647 8.61425  -2
  -5   2  25 71.5647 8.61425   1
   4   2  24 66.1584 2.95117  -2
  -4   2  25 66.1584 2.95117   1
   3   2  24 47.8970 2.49832  -2
  -3   2  25 47.8970 2.49832   1
   2   2  24 51.7655 3.27524  -2
  -2   2  25 51.7655 3.27524   1
   1   2  25 164.980 4.10164  -2
  -1   2  25 164.980 4.10164   1
   0   2  25 84.1299 2.54976  -2
   0   2  25 84.1299 2.54976   1
  -1   2  25 171.777 5.02855  -2
   1   2  25 171.777 5.02855   1
  -2   2  26 22.3213 2.93255  -2
   2   2  25 22.3213 2.93255   1
  -3   2  26 18.1331 2.46452  -2
   3   2  25 18.1331 2.46452   1
  -4   2  26 142.637 5.73976  -2
   4   2  25 142.637 5.73976   1
  -5   2  27 178.018 8.40359  -2
   5   2  25 178.018 8.40359   1
  -6   2  27 70.0522 4.61137  -2
   6   2  25 70.0522 4.61137   1
  -7   2  27 76.6480 3.62353  -2
   7   2  25 76.6480 3.62353   1
  -8   2  27 1.11475 3.82990  -2
   8   2  25 1.11475 3.82990   1
  10   3  22 6.27184 1.06407  -2
 -10   3  25 6.27184 1.06407   1
   9   3  22 22.3036 1.80025  -2
  -9   3  25 22.3036 1.80025   1
   8   3  23 6.83874 2.63195  -2
  -8   3  25 6.83874 2.63195   1
   7   3  23 55.0575 2.38833  -2
  -7   3  25 55.0575 2.38833   1
   6   3  23 43.9951 2.41606  -2
  -6   3  25 43.9951 2.41606   1
   5   3  23 55.4279 5.59505  -2
  -5   3  25 55.4279 5.59505   1
   5   3  24 2.72359 7.12473  -2
  -5   3  25 2.72359 7.12473   1
   4   3  24 13.4918 2.14286  -2
  -4   3  25 13.4918 2.14286   1
   3   3  24 265.177 5.84198  -2
  -3   3  25 265.177 5.84198   1
   2   3  24 71.5339 3.49287  -2
  -2   3  25 71.5339 3.49287   1
   1   3  25 201.350 4.91303  -2
  -1   3  25 201.350 4.91303   1
   0   3  25 36.8353 2.07294  -2
   0   3  25 36.8353 2.07294   1
  -1   3  25 205.911 5.10544  -2
   1   3  25 205.911 5.10544   1
  -2   3  26 20.3993 2.63552  -2
   2   3  25 20.3993 2.63552   1
  -3   3  26 25.9899 2.31852  -2
   3   3  25 25.9899 2.31852   1
  -4   3  26 7.32353 2.40755  -2
   4   3  25 7.32353 2.40755   1
  -5   3  27 91.9151 6.13307  -2
   5   3  25 91.9151 6.13307   1
  -6   3  27 56.9341 4.16139  -2
   6   3  25 56.9341 4.16139   1
  -7   3  27 27.7842 4.07498  -2
   7   3  25 27.7842 4.07498   1
  -8   3  27 7.00898 2.69211  -2
   8   3  25 7.00898 2.69211   1
  10   4  22 11.8268 1.15686  -2
 -10   4  25 11.8268 1.15686   1
   9   4  22 68.0924 2.19074  -2
  -9   4  25 68.0924 2.19074   1
   8   4  23 2.48932 2.24688  -2
  -8   4  25 2.48932 2.24688   1
   7   4  23 20.0358 2.02227  -2
  -7   4  25 20.0358 2.02227   1
   6   4  23 42.8525 2.61889  -2
  -6   4  25 42.8525 2.61889   1
   5   4  23 26.9939 4.99069  -2
  -5   4  25 26.9939 4.99069   1
   4   4  24 124.038 3.05113  -2
  -4   4  25 124.038 3.05113   1
   3   4  24 36.9487 2.03817  -2
  -3   4  25 36.9487 2.03817   1
   2   4  24 62.9235 3.34842  -2
  -2   4  25 62.9235 3.34842   1
   1   4  25 24.2970 3.20820  -2
  -1   4  25 24.2970 3.20820   1
   0   4  25 35.8740 2.19255  -2
   0   4  25 35.8740 2.19255   1
  -1   4  25 19.4598 2.55812  -2
   1   4  25 19.4598 2.55812   1
  -2   4  26 207.505 5.60824  -2
   2   4  25 207.505 5.60824   1
  -3   4  26 17.4941 2.05677  -2
   3   4  25 17.4941 2.05677   1
  -4   4  26 4.20835 2.83740  -2
   4   4  25 4.20835 2.83740   1
  -5   4  27 12.6776 6.27864  -2
   5   4  25 12.6776 6.27864   1
  -6   4  27 27.1017 3.33517  -2
   6   4  25 27.1017 3.33517   1
  -7   4  27 22.9706 3.60645  -2
   7   4  25 22.9706 3.60645   1
   8   4  25 24.3079 3.42024   1
   9   5  22 6.87949 1.78152  -2
  -9   5  25 6.87949 1.78152   1
   8   5  23 43.3972 2.93813  -2
  -8   5  25 43.3972 2.93813   1
   7   5  23 21.1621 1.99439  -2
  -7   5  25 21.1621 1.99439   1
   6   5  23 7.59595 1.83949  -2
  -6   5  25 7.59595 1.83949   1
   5   5  23 72.0753 6.04887  -2
  -5   5  25 72.0753 6.04887   1
   4   5  24 25.3308 2.13756  -2
  -4   5  25 25.3308 2.13756   1
   3   5  24 146.566 3.34775  -2
  -3   5  25 146.566 3.34775   1
   2   5  24 36.8280 3.16476  -2
  -2   5  25 36.8280 3.16476   1
   1   5  25 11.9762 2.51742  -2
  -1   5  25 11.9762 2.51742   1
   0   5  25 18.3040 2.14218  -2
   0   5  25 18.3040 2.14218   1
  -1   5  25 6.78597 2.86784  -2
   1   5  25 6.78597 2.86784   1
  -2   5  26 5.71870 3.47102  -2
   2   5  25 5.71870 3.47102   1
  -3   5  26 19.3638 2.24857  -2
   3   5  25 19.3638 2.24857   1
  -4   5  26 43.1832 2.60300  -2
   4   5  25 43.1832 2.60300   1
  -5   5  27 6.60646 6.42234  -2
   5   5  25 6.60646 6.42234   1
  -6   5  27 22.9739 3.22308  -2
   6   5  25 22.9739 3.22308   1
  -7   5  27 0.27061 3.49168  -2
   7   5  25 0.27061 3.49168   1
   8   5  25 36.2228 4.11629   1
   9   6  22 23.9059 1.79263  -2
  -9   6  25 23.9059 1.79263   1
   8   6  23 29.3115 3.04626  -2
  -8   6  25 29.3115 3.04626   1
   7   6  23 4.64152 1.76220  -2
  -7   6  25 4.64152 1.76220   1
   6   6  23 17.1753 2.02343  -2
  -6   6  25 17.1753 2.02343   1
   5   6  23 29.7042 7.52126  -2
  -5   6  25 29.7042 7.52126   1
   5   6  24 2.62772 6.57221  -2
  -5   6  25 2.62772 6.57221   1
   4   6  24 32.8638 2.26018  -2
  -4   6  25 32.8638 2.26018   1
   3   6  24 18.2536 1.96875  -2
  -3   6  25 18.2536 1.96875   1
   2   6  24 17.9533 2.67616  -2
  -2   6  25 17.9533 2.67616   1
   1   6  25 18.7201 2.35162  -2
  -1   6  25 18.7201 2.35162   1
   0   6  25 9.97343 1.43166  -2
   0   6  25 9.97343 1.43166   1
  -1   6  25 10.5207 2.61980  -2
   1   6  25 10.5207 2.61980   1
  -2   6  26 39.4669 3.78550  -2
   2   6  25 39.4669 3.78550   1
  -3   6  26 26.2299 2.27481  -2
   3   6  25 26.2299 2.27481   1
  -4   6  26 97.8442 3.36383  -2
   4   6  25 97.8442 3.36383   1
  -5   6  27 5.08474 6.15684  -2
   5   6  25 5.08474 6.15684   1
  -6   6  27 8.56819 1.97765  -2
   6   6  25 8.56819 1.97765   1
  -7   6  27 37.1368 3.95022  -2
   7   6  25 37.1368 3.95022   1
   8   6  25 5.07285 2.56932   1
   9   7  22 9.10898 2.30127  -2
  -9   7  25 9.10898 2.30127   1
   8   7  23 20.7140 3.30527  -2
  -8   7  25 20.7140 3.30527   1
   7   7  23 10.3795 1.58480  -2
  -7   7  25 10.3795 1.58480   1
   6   7  23 4.94797 1.76999  -2
  -6   7  25 4.94797 1.76999   1
   5   7  23 -3.5555 6.58575  -2
  -5   7  25 -3.5555 6.58575   1
   5   7  24 -10.315 6.10313  -2
  -5   7  25 -10.315 6.10313   1
   4   7  24 21.3860 2.33483  -2
  -4   7  25 21.3860 2.33483   1
   3   7  24 0.57720 1.74767  -2
  -3   7  25 0.57720 1.74767   1
   2   7  24 89.1066 3.39836  -2
  -2   7  25 89.1066 3.39836   1
   1   7  25 25.6591 2.24095  -2
  -1   7  25 25.6591 2.24095   1
   0   7  25 10.6737 1.29342  -2
   0   7  25 10.6737 1.29342   1
  -1   7  25 22.7385 2.86485  -2
   1   7  25 22.7385 2.86485   1
  -2   7  26 114.495 5.06317  -2
   2   7  25 114.495 5.06317   1
  -3   7  26 1.89227 2.10778  -2
   3   7  25 1.89227 2.10778   1
  -4   7  26 70.8946 3.12540  -2
   4   7  25 70.8946 3.12540   1
  -5   7  27 17.7670 4.64925  -2
   5   7  25 17.7670 4.64925   1
  -6   7  27 26.4729 2.37573  -2
   6   7  25 26.4729 2.37573   1
  -7   7  27 18.3373 2.89462  -2
   7   7  25 18.3373 2.89462   1
   8   8  23 10.1368 4.24868  -2
  -8   8  25 10.1368 4.24868   1
   7   8  23 25.1628 1.97590  -2
  -7   8  25 25.1628 1.97590   1
   6   8  23 38.8985 2.55913  -2
  -6   8  25 38.8985 2.55913   1
   5   8  23 9.13064 3.65052  -2
  -5   8  25 9.13064 3.65052   1
   5   8  24 8.29921 5.57502  -2
  -5   8  25 8.29921 5.57502   1
   4   8  24 26.8489 2.51450  -2
  -4   8  25 26.8489 2.51450   1
   3   8  24 7.80054 1.86476  -2
  -3   8  25 7.80054 1.86476   1
   2   8  24 9.67165 2.49233  -2
  -2   8  25 9.67165 2.49233   1
   1   8  25 36.2158 2.22978  -2
  -1   8  25 36.2158 2.22978   1
   0   8  25 3.33883 1.23088  -2
   0   8  25 3.33883 1.23088   1
  -1   8  25 37.7519 2.83907  -2
   1   8  25 37.7519 2.83907   1
  -2   8  26 108.022 5.07360  -2
   2   8  25 108.022 5.07360   1
  -3   8  26 26.3200 2.42133  -2
   3   8  25 26.3200 2.42133   1
  -4   8  26 54.1408 2.43799  -2
   4   8  25 54.1408 2.43799   1
   5   8  25 -0.0863 1.18595   1
  -6   8  27 49.1569 2.64727  -2
   6   8  25 49.1569 2.64727   1
  -7   8  27 1.50804 2.34066  -2
   7   8  25 1.50804 2.34066   1
   7   9  23 18.2158 1.89829  -2
  -7   9  25 18.2158 1.89829   1
   6   9  23 41.0636 2.42066  -2
  -6   9  25 41.0636 2.42066   1
   5   9  23 58.2741 4.92686  -2
  -5   9  25 58.2741 4.92686   1
   5   9  24 45.2979 6.06520  -2
  -5   9  25 45.2979 6.06520   1
   4   9  24 32.7920 2.38530  -2
  -4   9  25 32.7920 2.38530   1
   3   9  24 130.814 3.74444  -2
  -3   9  25 130.814 3.74444   1
   2   9  24 50.5624 2.94021  -2
  -2   9  25 50.5624 2.94021   1
   1   9  25 34.0517 2.33994  -2
  -1   9  25 34.0517 2.33994   1
   0   9  25 17.1483 1.53124  -2
   0   9  25 17.1483 1.53124   1
  -1   9  25 33.4441 2.46183  -2
   1   9  25 33.4441 2.46183   1
  -2   9  26 27.4780 3.28133  -2
   2   9  25 27.4780 3.28133   1
  -3   9  26 19.1564 1.91496  -2
   3   9  25 19.1564 1.91496   1
  -4   9  26 21.4070 2.50355  -2
   4   9  25 21.4070 2.50355   1
   5   9  25 -0.0978 1.20424   1
  -6   9  27 100.573 4.02392  -2
   6   9  25 100.573 4.02392   1
   6  10  23 20.2229 2.49072  -2
  -6  10  25 20.2229 2.49072   1
   5  10  23 90.2253 4.45243  -2
  -5  10  25 90.2253 4.45243   1
   4  10  24 20.8989 2.05137  -2
  -4  10  25 20.8989 2.05137   1
   3  10  24 5.00240 1.58705  -2
  -3  10  25 5.00240 1.58705   1
   2  10  24 13.8470 2.93941  -2
  -2  10  25 13.8470 2.93941   1
   1  10  25 80.5020 2.65663  -2
  -1  10  25 80.5020 2.65663   1
   0  10  25 58.5735 2.00391  -2
   0  10  25 58.5735 2.00391   1
  -1  10  25 82.5866 2.94328  -2
   1  10  25 82.5866 2.94328   1
  -2  10  26 20.6571 2.71499  -2
   2  10  25 20.6571 2.71499   1
  -3  10  26 6.72923 1.75058  -2
   3  10  25 6.72923 1.75058   1
  -4  10  26 76.0952 3.23047  -2
   4  10  25 76.0952 3.23047   1
   5  10  25 5.90372 1.29110   1
   4  11  24 1.26115 1.86389  -2
  -4  11  25 1.26115 1.86389   1
   3  11  24 37.1162 2.25058  -2
  -3  11  25 37.1162 2.25058   1
   2  11  24 23.1473 2.84608  -2
  -2  11  25 23.1473 2.84608   1
   1  11  25 105.127 3.22973  -2
  -1  11  25 105.127 3.22973   1
   0  11  25 8.86359 1.36190  -2
   0  11  25 8.86359 1.36190   1
  -1  11  25 109.191 3.65695  -2
   1  11  25 109.191 3.65695   1
  -2  11  26 9.12032 3.30916  -2
   2  11  25 9.12032 3.30916   1
  -3  11  26 108.375 3.22210  -2
   3  11  25 108.375 3.22210   1
  -4  11  26 20.0074 2.38886  -2
   4  11  25 20.0074 2.38886   1
   3  12  24 17.8096 3.04336  -2
  -3  12  25 17.8096 3.04336   1
   2  12  24 13.3686 3.38323  -2
  -2  12  25 13.3686 3.38323   1
   1  12  25 2.80397 2.91972  -2
  -1  12  25 2.80397 2.91972   1
   0  12  25 6.88722 1.10540  -2
   0  12  25 6.88722 1.10540   1
  -1  12  25 -2.3349 2.76588  -2
   1  12  25 -2.3349 2.76588   1
   2  12  25 25.6927 1.74332   1
  10   0  23 94.5311 3.29513  -2
 -10   0  26 94.5311 3.29513   1
   9   0  23 6.13727 2.03384  -2
  -9   0  26 6.13727 2.03384   1
   8   0  24 200.357 7.93183  -2
  -8   0  26 200.357 7.93183   1
   7   0  24 8.82583 2.25250  -2
  -7   0  26 8.82583 2.25250   1
   6   0  24 225.283 7.17408  -2
  -6   0  26 225.283 7.17408   1
  -5   0  26 86.2518 4.73242   1
   4   0  25 12.5613 3.93735  -2
  -4   0  26 12.5613 3.93735   1
   3   0  25 248.365 7.71788  -2
  -3   0  26 248.365 7.71788   1
   2   0  25 536.461 13.1220  -2
  -2   0  26 536.461 13.1220   1
   1   0  26 47.0790 3.42466  -2
  -1   0  26 47.0790 3.42466   1
   0   0  26 250.292 7.79623  -2
   0   0  26 250.292 7.79623   1
  -1   0  26 44.6161 3.74990  -2
   1   0  26 44.6161 3.74990   1
  -2   0  27 58.0857 5.65817  -2
   2   0  26 58.0857 5.65817   1
  -3   0  27 -0.2616 3.36821  -2
   3   0  26 -0.2616 3.36821   1
  -4   0  27 66.9821 5.01636  -2
   4   0  26 66.9821 5.01636   1
  -5   0  28 310.669 17.8403  -2
   5   0  26 310.669 17.8403   1
  -6   0  28 20.3836 3.23783  -2
   6   0  26 20.3836 3.23783   1
  -7   0  28 114.755 8.21853  -2
   7   0  26 114.755 8.21853   1
   8   0  26 10.4730 2.69435   1
  10   1  23 18.1063 1.20983  -2
 -10   1  26 18.1063 1.20983   1
   9   1  23 73.4472 2.14102  -2
  -9   1  26 73.4472 2.14102   1
   8   1  24 66.7653 2.99487  -2
  -8   1  26 66.7653 2.99487   1
   7   1  24 22.3991 1.70172  -2
  -7   1  26 22.3991 1.70172   1
   6   1  24 29.7135 2.31260  -2
  -6   1  26 29.7135 2.31260   1
  -5   1  26 58.8379 2.93293   1
   4   1  25 87.4759 3.47296  -2
  -4   1  26 87.4759 3.47296   1
   3   1  25 67.4129 2.53878  -2
  -3   1  26 67.4129 2.53878   1
   2   1  25 10.5854 2.35418  -2
  -2   1  26 10.5854 2.35418   1
   1   1  26 18.4875 2.33290  -2
  -1   1  26 18.4875 2.33290   1
   0   1  26 32.7062 1.88553  -2
   0   1  26 32.7062 1.88553   1
  -1   1  26 16.8093 2.39968  -2
   1   1  26 16.8093 2.39968   1
  -2   1  27 46.0814 3.13379  -2
   2   1  26 46.0814 3.13379   1
  -3   1  27 52.6962 3.10728  -2
   3   1  26 52.6962 3.10728   1
  -4   1  27 1.02331 2.75705  -2
   4   1  26 1.02331 2.75705   1
  -5   1  28 42.8056 4.84917  -2
   5   1  26 42.8056 4.84917   1
  -6   1  28 74.2993 3.63399  -2
   6   1  26 74.2993 3.63399   1
  -7   1  28 108.243 4.21029  -2
   7   1  26 108.243 4.21029   1
  -8   1  28 11.3278 6.73798  -2
   8   1  26 11.3278 6.73798   1
  10   2  23 32.4197 1.48563  -2
 -10   2  26 32.4197 1.48563   1
   9   2  23 10.4328 1.61529  -2
  -9   2  26 10.4328 1.61529   1
   8   2  24 7.47373 2.34568  -2
  -8   2  26 7.47373 2.34568   1
   7   2  24 22.9890 1.71176  -2
  -7   2  26 22.9890 1.71176   1
   6   2  24 22.6746 2.06749  -2
  -6   2  26 22.6746 2.06749   1
  -5   2  26 21.5976 2.07071   1
   4   2  25 136.889 3.58175  -2
  -4   2  26 136.889 3.58175   1
   3   2  25 22.0461 2.13255  -2
  -3   2  26 22.0461 2.13255   1
   2   2  25 16.9425 2.73739  -2
  -2   2  26 16.9425 2.73739   1
   1   2  26 28.8686 2.42833  -2
  -1   2  26 28.8686 2.42833   1
   0   2  26 98.5022 2.74052  -2
   0   2  26 98.5022 2.74052   1
  -1   2  26 31.7796 2.67791  -2
   1   2  26 31.7796 2.67791   1
  -2   2  27 70.3708 3.49044  -2
   2   2  26 70.3708 3.49044   1
  -3   2  27 163.245 4.43620  -2
   3   2  26 163.245 4.43620   1
  -4   2  27 1.28827 2.65817  -2
   4   2  26 1.28827 2.65817   1
  -5   2  28 37.6965 6.93564  -2
   5   2  26 37.6965 6.93564   1
  -6   2  28 47.1570 3.14420  -2
   6   2  26 47.1570 3.14420   1
  -7   2  28 14.2008 2.48717  -2
   7   2  26 14.2008 2.48717   1
  -8   2  28 36.0812 6.26902  -2
   8   2  26 36.0812 6.26902   1
   9   3  23 27.6860 1.72529  -2
  -9   3  26 27.6860 1.72529   1
   8   3  24 58.9946 6.24867  -2
  -8   3  26 58.9946 6.24867   1
   7   3  24 13.2148 1.58010  -2
  -7   3  26 13.2148 1.58010   1
   6   3  24 8.74156 2.00878  -2
  -6   3  26 8.74156 2.00878   1
  -5   3  26 32.8671 2.06210   1
   4   3  25 10.6266 2.15353  -2
  -4   3  26 10.6266 2.15353   1
   3   3  25 26.9955 2.16913  -2
  -3   3  26 26.9955 2.16913   1
   2   3  25 13.6428 2.82053  -2
  -2   3  26 13.6428 2.82053   1
   1   3  26 69.4873 3.01390  -2
  -1   3  26 69.4873 3.01390   1
   0   3  26 12.3332 1.59674  -2
   0   3  26 12.3332 1.59674   1
  -1   3  26 68.4839 3.12016  -2
   1   3  26 68.4839 3.12016   1
  -2   3  27 112.134 3.67632  -2
   2   3  26 112.134 3.67632   1
  -3   3  27 15.7532 2.14352  -2
   3   3  26 15.7532 2.14352   1
  -4   3  27 38.1808 2.68993  -2
   4   3  26 38.1808 2.68993   1
  -5   3  28 68.1129 5.02021  -2
   5   3  26 68.1129 5.02021   1
  -6   3  28 59.6400 3.30674  -2
   6   3  26 59.6400 3.30674   1
  -7   3  28 39.1406 2.85024  -2
   7   3  26 39.1406 2.85024   1
  -8   3  28 35.5713 3.94258  -2
   8   3  26 35.5713 3.94258   1
   9   4  23 39.8181 2.02318  -2
  -9   4  26 39.8181 2.02318   1
   8   4  24 7.22911 3.50618  -2
  -8   4  26 7.22911 3.50618   1
   7   4  24 23.1034 1.89854  -2
  -7   4  26 23.1034 1.89854   1
   6   4  24 67.2274 2.41400  -2
  -6   4  26 67.2274 2.41400   1
   5   4  24 29.6876 7.69438  -2
  -5   4  26 29.6876 7.69438   1
   4   4  25 7.43468 1.85111  -2
  -4   4  26 7.43468 1.85111   1
   3   4  25 18.8377 1.94193  -2
  -3   4  26 18.8377 1.94193   1
   2   4  25 232.844 5.97302  -2
  -2   4  26 232.844 5.97302   1
   1   4  26 26.6400 3.19752  -2
  -1   4  26 26.6400 3.19752   1
   0   4  26 209.618 5.21956  -2
   0   4  26 209.618 5.21956   1
  -1   4  26 20.2012 2.56430  -2
   1   4  26 20.2012 2.56430   1
  -2   4  27 38.0361 2.74398  -2
   2   4  26 38.0361 2.74398   1
  -3   4  27 87.0903 3.05258  -2
   3   4  26 87.0903 3.05258   1
  -4   4  27 37.3207 3.07976  -2
   4   4  26 37.3207 3.07976   1
  -5   4  28 40.8146 6.79885  -2
   5   4  26 40.8146 6.79885   1
  -6   4  28 3.69415 2.92266  -2
   6   4  26 3.69415 2.92266   1
  -7   4  28 18.7430 2.06390  -2
   7   4  26 18.7430 2.06390   1
  -8   4  28 33.0943 4.05554  -2
   8   4  26 33.0943 4.05554   1
   9   5  23 19.2603 1.85768  -2
  -9   5  26 19.2603 1.85768   1
   8   5  24 22.6629 4.76823  -2
  -8   5  26 22.6629 4.76823   1
   7   5  24 1.34920 1.69080  -2
  -7   5  26 1.34920 1.69080   1
   6   5  24 18.3392 1.95073  -2
  -6   5  26 18.3392 1.95073   1
   5   5  24 -3.2093 7.00393  -2
  -5   5  26 -3.2093 7.00393   1
   4   5  25 45.1525 2.22500  -2
  -4   5  26 45.1525 2.22500   1
   3   5  25 21.2026 1.79580  -2
  -3   5  26 21.2026 1.79580   1
   2   5  25 4.77185 2.77866  -2
  -2   5  26 4.77185 2.77866   1
   1   5  26 -1.9964 2.40923  -2
  -1   5  26 -1.9964 2.40923   1
   0   5  26 7.19639 1.56702  -2
   0   5  26 7.19639 1.56702   1
  -1   5  26 2.55748 2.55673  -2
   1   5  26 2.55748 2.55673   1
  -2   5  27 66.3986 3.70351  -2
   2   5  26 66.3986 3.70351   1
  -3   5  27 1.29730 1.96037  -2
   3   5  26 1.29730 1.96037   1
  -4   5  27 92.9490 3.16565  -2
   4   5  26 92.9490 3.16565   1
   5   5  26 4.98288 1.21942   1
  -6   5  28 9.47975 2.71480  -2
   6   5  26 9.47975 2.71480   1
  -7   5  28 30.7207 5.17701  -2
   7   5  26 30.7207 5.17701   1
   8   6  24 91.0113 4.62967  -2
  -8   6  26 91.0113 4.62967   1
   7   6  24 36.1278 1.83698  -2
  -7   6  26 36.1278 1.83698   1
   6   6  24 49.9625 2.27053  -2
  -6   6  26 49.9625 2.27053   1
   5   6  25 17.9998 6.38279  -2
  -5   6  26 17.9998 6.38279   1
   5   6  24 12.0593 7.36308  -2
  -5   6  26 12.0593 7.36308   1
   4   6  25 103.154 2.77262  -2
  -4   6  26 103.154 2.77262   1
   3   6  25 36.2815 2.03650  -2
  -3   6  26 36.2815 2.03650   1
   2   6  25 47.1111 2.89391  -2
  -2   6  26 47.1111 2.89391   1
   1   6  26 101.376 3.18987  -2
  -1   6  26 101.376 3.18987   1
   0   6  26 58.4007 2.49786  -2
   0   6  26 58.4007 2.49786   1
  -1   6  26 102.385 3.65006  -2
   1   6  26 102.385 3.65006   1
  -2   6  27 41.6652 3.26360  -2
   2   6  26 41.6652 3.26360   1
  -3   6  27 91.4309 3.45475  -2
   3   6  26 91.4309 3.45475   1
  -4   6  27 6.23168 2.33859  -2
   4   6  26 6.23168 2.33859   1
   5   6  26 24.9209 1.50760   1
  -6   6  28 5.17776 2.43034  -2
   6   6  26 5.17776 2.43034   1
   8   7  24 35.4580 3.10834  -2
  -8   7  26 35.4580 3.10834   1
   7   7  24 2.90345 1.50368  -2
  -7   7  26 2.90345 1.50368   1
   6   7  24 24.4242 1.87986  -2
  -6   7  26 24.4242 1.87986   1
   5   7  24 27.0879 6.80467  -2
  -5   7  26 27.0879 6.80467   1
   4   7  25 73.1332 2.76233  -2
  -4   7  26 73.1332 2.76233   1
   3   7  25 5.05174 1.72508  -2
  -3   7  26 5.05174 1.72508   1
   2   7  25 116.812 3.68326  -2
  -2   7  26 116.812 3.68326   1
   1   7  26 108.688 3.19357  -2
  -1   7  26 108.688 3.19357   1
   0   7  26 170.795 4.03090  -2
   0   7  26 170.795 4.03090   1
  -1   7  26 117.764 4.42359  -2
   1   7  26 117.764 4.42359   1
  -2   7  27 90.0951 4.45573  -2
   2   7  26 90.0951 4.45573   1
  -3   7  27 10.9720 2.21588  -2
   3   7  26 10.9720 2.21588   1
  -4   7  27 20.6591 2.40382  -2
   4   7  26 20.6591 2.40382   1
   5   7  26 9.90295 1.39454   1
  -6   7  28 31.8548 4.05200  -2
   6   7  26 31.8548 4.05200   1
   7   8  24 3.17109 1.83676  -2
  -7   8  26 3.17109 1.83676   1
   6   8  24 52.8074 2.64085  -2
  -6   8  26 52.8074 2.64085   1
   5   8  24 8.05815 4.41976  -2
  -5   8  26 8.05815 4.41976   1
   4   8  25 53.2772 2.71908  -2
  -4   8  26 53.2772 2.71908   1
   3   8  25 21.2894 1.88810  -2
  -3   8  26 21.2894 1.88810   1
   2   8  25 111.073 3.45697  -2
  -2   8  26 111.073 3.45697   1
   1   8  26 37.4929 2.24715  -2
  -1   8  26 37.4929 2.24715   1
   0   8  26 55.3417 2.18659  -2
   0   8  26 55.3417 2.18659   1
  -1   8  26 31.9408 2.71344  -2
   1   8  26 31.9408 2.71344   1
  -2   8  27 88.8800 4.18926  -2
   2   8  26 88.8800 4.18926   1
  -3   8  27 44.2029 2.50812  -2
   3   8  26 44.2029 2.50812   1
  -4   8  27 -4.6645 2.24439  -2
   4   8  26 -4.6645 2.24439   1
   5   8  26 50.7786 2.15886   1
  -6   8  28 7.97637 3.29117  -2
   6   8  26 7.97637 3.29117   1
  -7   9  26 4.87838 1.58293   1
   6   9  24 13.2794 2.20001  -2
  -6   9  26 13.2794 2.20001   1
   5   9  24 6.16772 3.27003  -2
  -5   9  26 6.16772 3.27003   1
   4   9  25 24.4746 2.13972  -2
  -4   9  26 24.4746 2.13972   1
   3   9  25 17.2648 1.96045  -2
  -3   9  26 17.2648 1.96045   1
   2   9  25 28.6149 2.30519  -2
  -2   9  26 28.6149 2.30519   1
   1   9  26 25.7243 2.13816  -2
  -1   9  26 25.7243 2.13816   1
   0   9  26 10.1372 1.43414  -2
   0   9  26 10.1372 1.43414   1
  -1   9  26 24.6911 2.37809  -2
   1   9  26 24.6911 2.37809   1
  -2   9  27 91.2561 4.46955  -2
   2   9  26 91.2561 4.46955   1
  -3   9  27 10.9709 2.05548  -2
   3   9  26 10.9709 2.05548   1
  -4   9  27 32.2130 2.49282  -2
   4   9  26 32.2130 2.49282   1
   5   9  26 1.66553 0.97856   1
   6  10  24 46.3768 4.15451  -2
  -6  10  26 46.3768 4.15451   1
   5  10  24 2.96580 5.45480  -2
  -5  10  26 2.96580 5.45480   1
   4  10  25 77.6712 2.94607  -2
  -4  10  26 77.6712 2.94607   1
   3  10  25 8.33463 1.62213  -2
  -3  10  26 8.33463 1.62213   1
   2  10  25 23.0878 2.91423  -2
  -2  10  26 23.0878 2.91423   1
   1  10  26 15.5873 2.30118  -2
  -1  10  26 15.5873 2.30118   1
   0  10  26 29.7142 1.51708  -2
   0  10  26 29.7142 1.51708   1
  -1  10  26 12.5709 2.18408  -2
   1  10  26 12.5709 2.18408   1
  -2  10  27 49.7028 4.04186  -2
   2  10  26 49.7028 4.04186   1
  -3  10  27 42.7661 2.10473  -2
   3  10  26 42.7661 2.10473   1
  -4  10  27 1.47307 1.87716  -2
   4  10  26 1.47307 1.87716   1
   4  11  25 16.8281 3.36173  -2
  -4  11  26 16.8281 3.36173   1
   3  11  25 107.304 4.67125  -2
  -3  11  26 107.304 4.67125   1
   2  11  25 12.7993 2.94163  -2
  -2  11  26 12.7993 2.94163   1
   1  11  26 34.6974 2.88928  -2
  -1  11  26 34.6974 2.88928   1
   0  11  26 -0.5506 1.20791  -2
   0  11  26 -0.5506 1.20791   1
  -1  11  26 37.8722 2.58377  -2
   1  11  26 37.8722 2.58377   1
  -2  11  27 29.8889 4.75430  -2
   2  11  26 29.8889 4.75430   1
  -3  11  27 25.5994 2.14708  -2
   3  11  26 25.5994 2.14708   1
   2  12  25 30.8303 5.04560  -2
  -2  12  26 30.8303 5.04560   1
  -1  12  26 4.38356 1.03862   1
   0  12  26 92.4921 3.30145  -2
   0  12  26 92.4921 3.30145   1
   9   0  24 57.0949 2.53544  -2
  -9   0  27 57.0949 2.53544   1
   8   0  25 8.22563 4.97756  -2
  -8   0  27 8.22563 4.97756   1
   7   0  25 20.9015 2.24031  -2
  -7   0  27 20.9015 2.24031   1
   6   0  25 3.97860 2.70554  -2
  -6   0  27 3.97860 2.70554   1
  -5   0  27 3.08589 2.05459   1
   4   0  26 66.6728 4.09103  -2
  -4   0  27 66.6728 4.09103   1
   3   0  26 1.37323 2.85501  -2
  -3   0  27 1.37323 2.85501   1
   2   0  26 59.6568 3.85338  -2
  -2   0  27 59.6568 3.85338   1
   1   0  27 2.72116 2.94024  -2
  -1   0  27 2.72116 2.94024   1
   0   0  27 1.59092 1.87964  -2
   0   0  27 1.59092 1.87964   1
  -1   0  27 -1.1744 3.23230  -2
   1   0  27 -1.1744 3.23230   1
  -2   0  28 13.2985 4.67353  -2
   2   0  27 13.2985 4.67353   1
  -3   0  28 132.119 6.34644  -2
   3   0  27 132.119 6.34644   1
  -4   0  28 -3.0167 3.78514  -2
   4   0  27 -3.0167 3.78514   1
  -5   0  29 15.5906 6.26688  -2
   5   0  27 15.5906 6.26688   1
  -6   0  29 13.3046 2.84896  -2
   6   0  27 13.3046 2.84896   1
   9   1  24 15.3669 1.65370  -2
  -9   1  27 15.3669 1.65370   1
   8   1  25 37.4573 3.89679  -2
  -8   1  27 37.4573 3.89679   1
   7   1  25 107.232 2.57506  -2
  -7   1  27 107.232 2.57506   1
   6   1  25 77.2743 2.76040  -2
  -6   1  27 77.2743 2.76040   1
  -5   1  27 0.18019 1.41654   1
   4   1  26 4.33282 2.40752  -2
  -4   1  27 4.33282 2.40752   1
   3   1  26 57.9675 2.39762  -2
  -3   1  27 57.9675 2.39762   1
   2   1  26 36.7811 2.49509  -2
  -2   1  27 36.7811 2.49509   1
   1   1  27 49.6975 2.61860  -2
  -1   1  27 49.6975 2.61860   1
   0   1  27 60.3768 2.23553  -2
   0   1  27 60.3768 2.23553   1
  -1   1  27 47.4711 3.10930  -2
   1   1  27 47.4711 3.10930   1
  -2   1  28 5.38882 2.73649  -2
   2   1  27 5.38882 2.73649   1
  -3   1  28 80.1796 3.44317  -2
   3   1  27 80.1796 3.44317   1
  -4   1  28 56.4734 3.21850  -2
   4   1  27 56.4734 3.21850   1
  -5   1  29 12.0436 4.43158  -2
   5   1  27 12.0436 4.43158   1
  -6   1  29 22.0932 2.56472  -2
   6   1  27 22.0932 2.56472   1
  -7   1  29 23.2287 3.47810  -2
   7   1  27 23.2287 3.47810   1
   8   1  27 89.3925 6.85083   1
   9   2  24 100.041 2.46128  -2
  -9   2  27 100.041 2.46128   1
   8   2  25 -2.5672 3.41409  -2
  -8   2  27 -2.5672 3.41409   1
   7   2  25 78.3566 2.31884  -2
  -7   2  27 78.3566 2.31884   1
   6   2  25 75.8924 2.69711  -2
  -6   2  27 75.8924 2.69711   1
  -5   2  27 96.3103 3.07552   1
   4   2  26 4.26279 2.23964  -2
  -4   2  27 4.26279 2.23964   1
   3   2  26 170.035 3.87869  -2
  -3   2  27 170.035 3.87869   1
   2   2  26 70.2468 3.45420  -2
  -2   2  27 70.2468 3.45420   1
   1   2  27 175.378 4.21045  -2
  -1   2  27 175.378 4.21045   1
   0   2  27 234.280 4.79563  -2
   0   2  27 234.280 4.79563   1
  -1   2  27 170.567 4.50722  -2
   1   2  27 170.567 4.50722   1
  -2   2  28 48.8278 3.13042  -2
   2   2  27 48.8278 3.13042   1
  -3   2  28 72.0166 2.79271  -2
   3   2  27 72.0166 2.79271   1
  -4   2  28 20.7226 2.72898  -2
   4   2  27 20.7226 2.72898   1
  -5   2  29 12.5193 4.02159  -2
   5   2  27 12.5193 4.02159   1
  -6   2  29 56.2784 3.12625  -2
   6   2  27 56.2784 3.12625   1
  -7   2  29 11.8761 2.07516  -2
   7   2  27 11.8761 2.07516   1
   8   2  27 29.4092 2.33856   1
   9   3  24 3.99391 1.61834  -2
  -9   3  27 3.99391 1.61834   1
   8   3  25 5.71338 3.36652  -2
  -8   3  27 5.71338 3.36652   1
   7   3  25 30.8470 1.65302  -2
  -7   3  27 30.8470 1.65302   1
   6   3  25 69.6348 2.42759  -2
  -6   3  27 69.6348 2.42759   1
  -5   3  27 16.4861 1.52920   1
   4   3  26 40.6592 2.16810  -2
  -4   3  27 40.6592 2.16810   1
   3   3  26 15.2752 1.93092  -2
  -3   3  27 15.2752 1.93092   1
   2   3  26 115.342 4.48678  -2
  -2   3  27 115.342 4.48678   1
   1   3  27 71.7017 3.40313  -2
  -1   3  27 71.7017 3.40313   1
   0   3  27 155.837 3.94728  -2
   0   3  27 155.837 3.94728   1
  -1   3  27 79.2875 3.14363  -2
   1   3  27 79.2875 3.14363   1
  -2   3  28 362.292 7.65861  -2
   2   3  27 362.292 7.65861   1
  -3   3  28 21.5181 2.09617  -2
   3   3  27 21.5181 2.09617   1
  -4   3  28 33.4905 2.76730  -2
   4   3  27 33.4905 2.76730   1
  -5   3  29 22.3885 4.21414  -2
   5   3  27 22.3885 4.21414   1
  -6   3  29 37.5906 2.60456  -2
   6   3  27 37.5906 2.60456   1
  -7   3  29 17.7252 2.27312  -2
   7   3  27 17.7252 2.27312   1
   9   4  24 32.6178 1.96995  -2
  -9   4  27 32.6178 1.96995   1
   8   4  25 53.6020 5.56535  -2
  -8   4  27 53.6020 5.56535   1
   7   4  25 20.5715 1.52526  -2
  -7   4  27 20.5715 1.52526   1
   6   4  25 29.9365 1.91557  -2
  -6   4  27 29.9365 1.91557   1
   5   4  25 8.40738 7.19053  -2
  -5   4  27 8.40738 7.19053   1
   4   4  26 41.4620 2.12583  -2
  -4   4  27 41.4620 2.12583   1
   3   4  26 94.9437 2.75474  -2
  -3   4  27 94.9437 2.75474   1
   2   4  26 38.1364 2.97633  -2
  -2   4  27 38.1364 2.97633   1
   1   4  27 27.5907 3.11916  -2
  -1   4  27 27.5907 3.11916   1
   0   4  27 113.405 3.47541  -2
   0   4  27 113.405 3.47541   1
  -1   4  27 22.9995 2.72930  -2
   1   4  27 22.9995 2.72930   1
  -2   4  28 12.0928 2.73917  -2
   2   4  27 12.0928 2.73917   1
  -3   4  28 59.0681 2.32748  -2
   3   4  27 59.0681 2.32748   1
  -4   4  28 -0.3037 2.35143  -2
   4   4  27 -0.3037 2.35143   1
  -5   4  29 52.8426 4.53122  -2
   5   4  27 52.8426 4.53122   1
  -6   4  29 29.8120 2.79841  -2
   6   4  27 29.8120 2.79841   1
  -7   4  29 23.8265 3.38398  -2
   7   4  27 23.8265 3.38398   1
   8   5  25 45.1686 3.61131  -2
  -8   5  27 45.1686 3.61131   1
   7   5  25 3.44087 1.43681  -2
  -7   5  27 3.44087 1.43681   1
   6   5  25 22.7389 1.86727  -2
  -6   5  27 22.7389 1.86727   1
   5   5  25 2.82503 4.60199  -2
  -5   5  27 2.82503 4.60199   1
   4   5  26 100.554 2.87004  -2
  -4   5  27 100.554 2.87004   1
   3   5  26 4.30858 1.86021  -2
  -3   5  27 4.30858 1.86021   1
   2   5  26 70.3319 3.39661  -2
  -2   5  27 70.3319 3.39661   1
   1   5  27 22.7226 2.72852  -2
  -1   5  27 22.7226 2.72852   1
   0   5  27 16.1776 1.69152  -2
   0   5  27 16.1776 1.69152   1
  -1   5  27 20.6445 2.43071  -2
   1   5  27 20.6445 2.43071   1
  -2   5  28 105.541 3.64738  -2
   2   5  27 105.541 3.64738   1
  -3   5  28 11.4626 1.82723  -2
   3   5  27 11.4626 1.82723   1
  -4   5  28 65.1602 2.81643  -2
   4   5  27 65.1602 2.81643   1
   5   5  27 1.95551 1.05276   1
  -6   5  29 18.2265 2.86140  -2
   6   5  27 18.2265 2.86140   1
  -7   5  29 21.7102 3.28203  -2
   7   5  27 21.7102 3.28203   1
   8   6  25 21.7111 4.01409  -2
  -8   6  27 21.7111 4.01409   1
   7   6  25 44.7879 1.86952  -2
  -7   6  27 44.7879 1.86952   1
   6   6  25 13.9015 1.74928  -2
  -6   6  27 13.9015 1.74928   1
   5   6  25 -10.905 6.38709  -2
  -5   6  27 -10.905 6.38709   1
   4   6  26 10.5431 1.94260  -2
  -4   6  27 10.5431 1.94260   1
   3   6  26 88.9075 2.67350  -2
  -3   6  27 88.9075 2.67350   1
   2   6  26 42.8839 2.99978  -2
  -2   6  27 42.8839 2.99978   1
   1   6  27 21.8967 2.25157  -2
  -1   6  27 21.8967 2.25157   1
   0   6  27 36.7814 2.05586  -2
   0   6  27 36.7814 2.05586   1
  -1   6  27 19.7630 2.50151  -2
   1   6  27 19.7630 2.50151   1
  -2   6  28 27.0805 3.01523  -2
   2   6  27 27.0805 3.01523   1
  -3   6  28 32.7662 2.09369  -2
   3   6  27 32.7662 2.09369   1
  -4   6  28 14.9961 2.31996  -2
   4   6  27 14.9961 2.31996   1
  -5   6  29 13.5090 5.40673  -2
   5   6  27 13.5090 5.40673   1
  -6   6  29 22.5265 2.74018  -2
   6   6  27 22.5265 2.74018   1
   7   7  25 22.1813 1.84018  -2
  -7   7  27 22.1813 1.84018   1
   6   7  25 28.6613 2.09421  -2
  -6   7  27 28.6613 2.09421   1
   5   7  25 12.0940 4.15081  -2
  -5   7  27 12.0940 4.15081   1
   4   7  26 19.5783 1.87642  -2
  -4   7  27 19.5783 1.87642   1
   3   7  26 11.6493 1.66291  -2
  -3   7  27 11.6493 1.66291   1
   2   7  26 85.4747 3.43845  -2
  -2   7  27 85.4747 3.43845   1
   1   7  27 4.50439 2.01520  -2
  -1   7  27 4.50439 2.01520   1
   0   7  27 -0.7132 1.15275  -2
   0   7  27 -0.7132 1.15275   1
  -1   7  27 2.79299 2.72574  -2
   1   7  27 2.79299 2.72574   1
  -2   7  28 26.9969 3.93507  -2
   2   7  27 26.9969 3.93507   1
  -3   7  28 19.9363 1.92652  -2
   3   7  27 19.9363 1.92652   1
  -4   7  28 19.7933 2.01257  -2
   4   7  27 19.7933 2.01257   1
  -5   7  28 14.8536 5.09485  -2
   5   7  27 14.8536 5.09485   1
  -6   7  29 -3.0270 3.25867  -2
   6   7  27 -3.0270 3.25867   1
   7   8  25 2.11829 3.08677  -2
  -7   8  27 2.11829 3.08677   1
   6   8  25 57.3905 3.54931  -2
  -6   8  27 57.3905 3.54931   1
   5   8  25 11.3561 5.81700  -2
  -5   8  27 11.3561 5.81700   1
   4   8  26 -3.3675 2.02706  -2
  -4   8  27 -3.3675 2.02706   1
   3   8  26 48.5330 1.94460  -2
  -3   8  27 48.5330 1.94460   1
   2   8  26 93.3306 3.09437  -2
  -2   8  27 93.3306 3.09437   1
   1   8  27 31.8900 2.08302  -2
  -1   8  27 31.8900 2.08302   1
   0   8  27 2.39104 1.43734  -2
   0   8  27 2.39104 1.43734   1
  -1   8  27 22.8294 2.47084  -2
   1   8  27 22.8294 2.47084   1
  -2   8  28 18.5578 3.57953  -2
   2   8  27 18.5578 3.57953   1
  -3   8  28 39.2016 2.24296  -2
   3   8  27 39.2016 2.24296   1
  -4   8  28 39.2218 2.28509  -2
   4   8  27 39.2218 2.28509   1
   5   8  27 1.36555 0.86516   1
   6   9  25 107.813 4.37569  -2
  -6   9  27 107.813 4.37569   1
  -5   9  27 6.20627 1.71150   1
   4   9  26 26.3034 2.27805  -2
  -4   9  27 26.3034 2.27805   1
   3   9  26 8.89336 1.71265  -2
  -3   9  27 8.89336 1.71265   1
   2   9  26 86.4246 3.25040  -2
  -2   9  27 86.4246 3.25040   1
   1   9  27 32.1308 2.41165  -2
  -1   9  27 32.1308 2.41165   1
   0   9  27 64.0374 2.13755  -2
   0   9  27 64.0374 2.13755   1
  -1   9  27 28.7916 2.22441  -2
   1   9  27 28.7916 2.22441   1
  -2   9  28 116.035 6.05682  -2
   2   9  27 116.035 6.05682   1
  -3   9  28 13.5946 1.88721  -2
   3   9  27 13.5946 1.88721   1
  -4   9  28 4.26674 1.90396  -2
   4   9  27 4.26674 1.90396   1
  -5  10  27 3.00759 1.26914   1
   4  10  26 -0.7244 2.22795  -2
  -4  10  27 -0.7244 2.22795   1
   3  10  26 37.8579 2.54954  -2
  -3  10  27 37.8579 2.54954   1
   2  10  26 40.3869 3.50927  -2
  -2  10  27 40.3869 3.50927   1
   1  10  27 89.8251 3.90676  -2
  -1  10  27 89.8251 3.90676   1
   0  10  27 149.187 3.65416  -2
   0  10  27 149.187 3.65416   1
  -1  10  27 86.1052 3.21796  -2
   1  10  27 86.1052 3.21796   1
  -2  10  28 4.04761 4.91443  -2
   2  10  27 4.04761 4.91443   1
  -3  10  28 12.6584 1.71592  -2
   3  10  27 12.6584 1.71592   1
   3  11  26 25.3034 3.33840  -2
  -3  11  27 25.3034 3.33840   1
   2  11  26 30.9227 4.52542  -2
  -2  11  27 30.9227 4.52542   1
   1  11  27 14.2870 3.09592  -2
  -1  11  27 14.2870 3.09592   1
   0  11  27 24.6201 1.57419  -2
   0  11  27 24.6201 1.57419   1
  -1  11  27 14.0009 2.84323  -2
   1  11  27 14.0009 2.84323   1
   9   0  25 100.086 3.72555  -2
  -9   0  28 100.086 3.72555   1
   8   0  26 78.2559 6.33358  -2
  -8   0  28 78.2559 6.33358   1
   7   0  26 108.178 3.53527  -2
  -7   0  28 108.178 3.53527   1
   6   0  26 11.9917 2.71464  -2
  -6   0  28 11.9917 2.71464   1
  -5   0  28 32.3272 3.04737   1
   4   0  27 0.32288 2.97435  -2
  -4   0  28 0.32288 2.97435   1
   3   0  27 129.557 5.02096  -2
  -3   0  28 129.557 5.02096   1
   2   0  27 7.78476 3.18418  -2
  -2   0  28 7.78476 3.18418   1
   1   0  28 465.195 11.4560  -2
  -1   0  28 465.195 11.4560   1
   0   0  28 311.673 9.22957  -2
   0   0  28 311.673 9.22957   1
  -1   0  28 482.559 13.6500  -2
   1   0  28 482.559 13.6500   1
  -2   0  29 9.07868 4.57416  -2
   2   0  28 9.07868 4.57416   1
  -3   0  29 26.4287 3.63125  -2
   3   0  28 26.4287 3.63125   1
  -4   0  29 26.4954 3.77401  -2
   4   0  28 26.4954 3.77401   1
   5   0  28 30.4060 4.33626   1
  -6   0  30 13.6865 4.11916  -2
   6   0  28 13.6865 4.11916   1
   9   1  25 95.0611 2.48040  -2
  -9   1  28 95.0611 2.48040   1
   8   1  26 17.0717 3.32459  -2
  -8   1  28 17.0717 3.32459   1
   7   1  26 102.276 2.40635  -2
  -7   1  28 102.276 2.40635   1
   6   1  26 86.0183 2.75246  -2
  -6   1  28 86.0183 2.75246   1
  -5   1  28 7.41604 1.41953   1
   4   1  27 55.8972 2.84289  -2
  -4   1  28 55.8972 2.84289   1
   3   1  27 85.5127 2.68851  -2
  -3   1  28 85.5127 2.68851   1
   2   1  27 7.99397 2.39153  -2
  -2   1  28 7.99397 2.39153   1
   1   1  28 78.1938 2.84724  -2
  -1   1  28 78.1938 2.84724   1
   0   1  28 21.1954 1.51525  -2
   0   1  28 21.1954 1.51525   1
  -1   1  28 76.2842 3.42943  -2
   1   1  28 76.2842 3.42943   1
  -2   1  29 21.9896 3.26562  -2
   2   1  28 21.9896 3.26562   1
  -3   1  29 73.3355 3.26162  -2
   3   1  28 73.3355 3.26162   1
  -4   1  29 1.92932 2.48452  -2
   4   1  28 1.92932 2.48452   1
  -5   1  29 24.3029 5.70674  -2
   5   1  28 24.3029 5.70674   1
  -5   1  30 3.04782 5.57853  -2
   5   1  28 3.04782 5.57853   1
  -6   1  30 16.8614 2.30355  -2
   6   1  28 16.8614 2.30355   1
   9   2  25 19.1404 1.77939  -2
  -9   2  28 19.1404 1.77939   1
   8   2  26 45.6611 3.75623  -2
  -8   2  28 45.6611 3.75623   1
   7   2  26 21.7835 1.57424  -2
  -7   2  28 21.7835 1.57424   1
   6   2  26 52.7750 2.11189  -2
  -6   2  28 52.7750 2.11189   1
   5   2  27 31.1081 6.63834  -2
  -5   2  28 31.1081 6.63834   1
   4   2  27 20.7945 2.22642  -2
  -4   2  28 20.7945 2.22642   1
   3   2  27 74.9140 2.47681  -2
  -3   2  28 74.9140 2.47681   1
   2   2  27 52.4422 3.15928  -2
  -2   2  28 52.4422 3.15928   1
   1   2  28 98.4665 3.26325  -2
  -1   2  28 98.4665 3.26325   1
   0   2  28 151.152 3.79817  -2
   0   2  28 151.152 3.79817   1
  -1   2  28 100.857 3.40909  -2
   1   2  28 100.857 3.40909   1
  -2   2  29 103.362 4.36351  -2
   2   2  28 103.362 4.36351   1
  -3   2  29 10.5491 2.23754  -2
   3   2  28 10.5491 2.23754   1
  -4   2  29 25.9194 2.66859  -2
   4   2  28 25.9194 2.66859   1
  -5   2  30 18.5556 3.99636  -2
   5   2  28 18.5556 3.99636   1
  -6   2  30 6.04723 2.18833  -2
   6   2  28 6.04723 2.18833   1
  -7   2  30 12.5372 4.53984  -2
   7   2  28 12.5372 4.53984   1
   8   3  26 40.2747 4.91574  -2
  -8   3  28 40.2747 4.91574   1
   7   3  26 36.1754 1.56344  -2
  -7   3  28 36.1754 1.56344   1
   6   3  26 68.6839 2.29600  -2
  -6   3  28 68.6839 2.29600   1
  -5   3  28 18.4505 1.33809   1
   4   3  27 32.0298 2.01261  -2
  -4   3  28 32.0298 2.01261   1
   3   3  27 22.2847 1.83774  -2
  -3   3  28 22.2847 1.83774   1
   2   3  27 364.128 10.9650  -2
  -2   3  28 364.128 10.9650   1
   1   3  28 21.3268 2.75495  -2
  -1   3  28 21.3268 2.75495   1
   0   3  28 108.821 3.12064  -2
   0   3  28 108.821 3.12064   1
  -1   3  28 19.7450 2.48625  -2
   1   3  28 19.7450 2.48625   1
  -2   3  29 181.017 5.08144  -2
   2   3  28 181.017 5.08144   1
  -3   3  29 42.7242 2.20918  -2
   3   3  28 42.7242 2.20918   1
  -4   3  29 45.4634 3.60465  -2
   4   3  28 45.4634 3.60465   1
  -5   3  30 12.8448 3.80703  -2
   5   3  28 12.8448 3.80703   1
  -6   3  30 40.5183 2.39556  -2
   6   3  28 40.5183 2.39556   1
  -7   3  30 44.9094 2.76505  -2
   7   3  28 44.9094 2.76505   1
   8   4  26 31.3913 4.46155  -2
  -8   4  28 31.3913 4.46155   1
   7   4  26 16.1312 1.40029  -2
  -7   4  28 16.1312 1.40029   1
   6   4  26 6.87598 1.52653  -2
  -6   4  28 6.87598 1.52653   1
   5   4  26 42.8297 7.56256  -2
  -5   4  28 42.8297 7.56256   1
   4   4  27 1.72891 1.74139  -2
  -4   4  28 1.72891 1.74139   1
   3   4  27 65.2043 2.25905  -2
  -3   4  28 65.2043 2.25905   1
   2   4  27 15.6467 2.85449  -2
  -2   4  28 15.6467 2.85449   1
   1   4  28 93.2601 3.62707  -2
  -1   4  28 93.2601 3.62707   1
   0   4  28 38.9785 2.12091  -2
   0   4  28 38.9785 2.12091   1
  -1   4  28 81.3958 3.31649  -2
   1   4  28 81.3958 3.31649   1
  -2   4  29 35.1413 3.91960  -2
   2   4  28 35.1413 3.91960   1
  -3   4  29 29.7562 2.07446  -2
   3   4  28 29.7562 2.07446   1
  -4   4  29 13.1627 2.09706  -2
   4   4  28 13.1627 2.09706   1
  -5   4  30 40.5744 5.95717  -2
   5   4  28 40.5744 5.95717   1
  -6   4  30 9.33753 2.24521  -2
   6   4  28 9.33753 2.24521   1
  -8   5  28 14.5368 1.18924   1
   7   5  26 28.7097 1.64777  -2
  -7   5  28 28.7097 1.64777   1
   6   5  26 9.23252 1.70584  -2
  -6   5  28 9.23252 1.70584   1
   5   5  26 17.2981 6.88005  -2
  -5   5  28 17.2981 6.88005   1
   4   5  27 74.8518 2.44135  -2
  -4   5  28 74.8518 2.44135   1
   3   5  27 12.9500 1.86118  -2
  -3   5  28 12.9500 1.86118   1
   2   5  27 106.118 3.78956  -2
  -2   5  28 106.118 3.78956   1
   1   5  28 64.3081 3.07553  -2
  -1   5  28 64.3081 3.07553   1
   0   5  28 12.2790 1.49650  -2
   0   5  28 12.2790 1.49650   1
  -1   5  28 59.4095 2.72110  -2
   1   5  28 59.4095 2.72110   1
  -2   5  29 12.2069 4.16591  -2
   2   5  28 12.2069 4.16591   1
  -3   5  29 20.0950 1.90211  -2
   3   5  28 20.0950 1.90211   1
  -4   5  29 42.4516 2.10073  -2
   4   5  28 42.4516 2.10073   1
  -5   5  29 -0.4687 5.08843  -2
   5   5  28 -0.4687 5.08843   1
  -6   5  30 32.5439 3.78558  -2
   6   5  28 32.5439 3.78558   1
   7   6  26 83.4991 2.42900  -2
  -7   6  28 83.4991 2.42900   1
   6   6  26 4.92787 1.74001  -2
  -6   6  28 4.92787 1.74001   1
   5   6  26 36.2193 6.37787  -2
  -5   6  28 36.2193 6.37787   1
   4   6  27 13.6733 1.93747  -2
  -4   6  28 13.6733 1.93747   1
   3   6  27 32.2305 1.97192  -2
  -3   6  28 32.2305 1.97192   1
   2   6  27 19.6713 2.68565  -2
  -2   6  28 19.6713 2.68565   1
   1   6  28 128.016 3.63647  -2
  -1   6  28 128.016 3.63647   1
   0   6  28 32.1806 1.82460  -2
   0   6  28 32.1806 1.82460   1
  -1   6  28 124.258 3.78061  -2
   1   6  28 124.258 3.78061   1
  -2   6  29 18.7463 4.26789  -2
   2   6  28 18.7463 4.26789   1
  -3   6  29 25.9411 1.89792  -2
   3   6  28 25.9411 1.89792   1
  -4   6  29 4.99934 1.86485  -2
   4   6  28 4.99934 1.86485   1
   5   6  28 10.1546 1.46703   1
   6   6  28 1.51557 1.34851   1
   7   7  26 41.5780 3.97494  -2
  -7   7  28 41.5780 3.97494   1
   6   7  26 21.1550 2.42842  -2
  -6   7  28 21.1550 2.42842   1
   5   7  26 11.9949 5.82143  -2
  -5   7  28 11.9949 5.82143   1
   4   7  27 17.0965 1.82019  -2
  -4   7  28 17.0965 1.82019   1
   3   7  27 18.3131 1.63899  -2
  -3   7  28 18.3131 1.63899   1
   2   7  27 22.9614 2.85247  -2
  -2   7  28 22.9614 2.85247   1
   1   7  28 210.530 5.20099  -2
  -1   7  28 210.530 5.20099   1
   0   7  28 3.69532 1.13038  -2
   0   7  28 3.69532 1.13038   1
  -1   7  28 216.780 6.07341  -2
   1   7  28 216.780 6.07341   1
  -2   7  29 16.2492 4.00916  -2
   2   7  28 16.2492 4.00916   1
  -3   7  29 29.4561 1.89743  -2
   3   7  28 29.4561 1.89743   1
  -4   7  29 22.7015 1.81118  -2
   4   7  28 22.7015 1.81118   1
   5   7  28 1.03034 0.91376   1
   6   8  26 10.6360 2.04020  -2
  -6   8  28 10.6360 2.04020   1
  -5   8  28 34.8595 2.62300   1
   4   8  27 36.0257 2.75436  -2
  -4   8  28 36.0257 2.75436   1
   3   8  27 42.4751 1.74869  -2
  -3   8  28 42.4751 1.74869   1
   2   8  27 15.6512 2.65911  -2
  -2   8  28 15.6512 2.65911   1
   1   8  28 87.9324 3.17117  -2
  -1   8  28 87.9324 3.17117   1
   0   8  28 82.4075 2.64682  -2
   0   8  28 82.4075 2.64682   1
  -1   8  28 93.7623 3.62198  -2
   1   8  28 93.7623 3.62198   1
  -2   8  29 89.1825 7.47786  -2
   2   8  28 89.1825 7.47786   1
  -3   8  29 36.5401 1.66782  -2
   3   8  28 36.5401 1.66782   1
  -4   8  29 8.76664 1.76221  -2
   4   8  28 8.76664 1.76221   1
  -5   9  28 0.40987 1.76345   1
   4   9  27 3.08351 2.34600  -2
  -4   9  28 3.08351 2.34600   1
   3   9  27 13.7373 1.61760  -2
  -3   9  28 13.7373 1.61760   1
   2   9  27 142.182 4.63980  -2
  -2   9  28 142.182 4.63980   1
   1   9  28 76.6338 3.06063  -2
  -1   9  28 76.6338 3.06063   1
   0   9  28 2.22271 1.23239  -2
   0   9  28 2.22271 1.23239   1
  -1   9  28 81.1707 3.61190  -2
   1   9  28 81.1707 3.61190   1
   2   9  28 0.56670 0.98339   1
  -3   9  29 34.5159 2.04335  -2
   3   9  28 34.5159 2.04335   1
   3  10  27 10.8554 3.26997  -2
  -3  10  28 10.8554 3.26997   1
   2  10  27 6.59014 4.49194  -2
  -2  10  28 6.59014 4.49194   1
   1  10  28 23.7329 2.71794  -2
  -1  10  28 23.7329 2.71794   1
   0  10  28 40.2245 1.68555  -2
   0  10  28 40.2245 1.68555   1
  -1  10  28 28.8042 2.51557  -2
   1  10  28 28.8042 2.51557   1
   2  10  28 1.65293 1.07920   1
   8   0  27 29.0899 4.46993  -2
  -8   0  29 29.0899 4.46993   1
   7   0  27 14.9275 1.91405  -2
  -7   0  29 14.9275 1.91405   1
   6   0  27 13.5794 2.52129  -2
  -6   0  29 13.5794 2.52129   1
  -5   0  29 0.98737 1.81143   1
   4   0  28 26.8215 3.09397  -2
  -4   0  29 26.8215 3.09397   1
   3   0  28 25.0756 2.90678  -2
  -3   0  29 25.0756 2.90678   1
   2   0  28 13.7403 3.77782  -2
  -2   0  29 13.7403 3.77782   1
   1   0  29 -0.1892 2.74856  -2
  -1   0  29 -0.1892 2.74856   1
   0   0  29 0.09187 1.68725  -2
   0   0  29 0.09187 1.68725   1
  -1   0  29 6.73448 4.22967  -2
   1   0  29 6.73448 4.22967   1
  -2   0  30 88.7407 5.64259  -2
   2   0  29 88.7407 5.64259   1
  -3   0  30 3.10721 2.94172  -2
   3   0  29 3.10721 2.94172   1
  -4   0  30 0.01042 3.22917  -2
   4   0  29 0.01042 3.22917   1
  -5   0  30 0.35007 4.56558  -2
   5   0  29 0.35007 4.56558   1
  -6   0  31 -3.0507 3.39278  -2
   6   0  29 -3.0507 3.39278   1
   8   1  27 74.9941 5.69079  -2
  -8   1  29 74.9941 5.69079   1
   7   1  27 28.8287 1.56518  -2
  -7   1  29 28.8287 1.56518   1
   6   1  27 27.2315 1.75802  -2
  -6   1  29 27.2315 1.75802   1
  -5   1  29 18.6118 1.60069   1
   4   1  28 1.94542 1.95122  -2
  -4   1  29 1.94542 1.95122   1
   3   1  28 72.4040 2.43790  -2
  -3   1  29 72.4040 2.43790   1
   2   1  28 18.2935 3.25838  -2
  -2   1  29 18.2935 3.25838   1
   1   1  29 41.6036 2.35986  -2
  -1   1  29 41.6036 2.35986   1
   0   1  29 45.4840 1.88277  -2
   0   1  29 45.4840 1.88277   1
  -1   1  29 51.7270 2.91949  -2
   1   1  29 51.7270 2.91949   1
  -2   1  30 9.48374 2.96766  -2
   2   1  29 9.48374 2.96766   1
  -3   1  30 45.5560 2.57168  -2
   3   1  29 45.5560 2.57168   1
  -4   1  30 60.5331 2.96667  -2
   4   1  29 60.5331 2.96667   1
  -5   1  31 9.01074 3.55177  -2
   5   1  29 9.01074 3.55177   1
  -6   1  31 6.74746 2.29324  -2
   6   1  29 6.74746 2.29324   1
   8   2  27 38.8676 4.63667  -2
  -8   2  29 38.8676 4.63667   1
   7   2  27 7.76007 1.44059  -2
  -7   2  29 7.76007 1.44059   1
   6   2  27 64.0500 2.01311  -2
  -6   2  29 64.0500 2.01311   1
  -5   2  29 1.61456 0.98695   1
   4   2  28 33.0038 2.17922  -2
  -4   2  29 33.0038 2.17922   1
   3   2  28 16.4275 1.90118  -2
  -3   2  29 16.4275 1.90118   1
   2   2  28 99.3483 4.98518  -2
  -2   2  29 99.3483 4.98518   1
   1   2  29 53.5244 2.56654  -2
  -1   2  29 53.5244 2.56654   1
   0   2  29 101.875 2.95059  -2
   0   2  29 101.875 2.95059   1
  -1   2  29 51.6797 2.70195  -2
   1   2  29 51.6797 2.70195   1
  -2   2  30 6.03153 2.91603  -2
   2   2  29 6.03153 2.91603   1
  -3   2  30 15.1918 2.13852  -2
   3   2  29 15.1918 2.13852   1
  -4   2  30 85.2558 3.36034  -2
   4   2  29 85.2558 3.36034   1
  -5   2  31 11.3056 3.60170  -2
   5   2  29 11.3056 3.60170   1
  -6   2  31 9.77019 2.77547  -2
   6   2  29 9.77019 2.77547   1
  -8   3  29 11.6271 1.02988   1
   7   3  27 16.7551 1.34483  -2
  -7   3  29 16.7551 1.34483   1
   6   3  27 49.1482 1.92643  -2
  -6   3  29 49.1482 1.92643   1
  -5   3  29 21.4999 1.31221   1
   4   3  28 45.3331 1.99561  -2
  -4   3  29 45.3331 1.99561   1
   3   3  28 49.0353 2.02871  -2
  -3   3  29 49.0353 2.02871   1
   2   3  28 174.036 8.00577  -2
  -2   3  29 174.036 8.00577   1
   1   3  29 112.714 3.75721  -2
  -1   3  29 112.714 3.75721   1
   0   3  29 21.7646 1.78307  -2
   0   3  29 21.7646 1.78307   1
  -1   3  29 101.233 3.29495  -2
   1   3  29 101.233 3.29495   1
  -2   3  30 100.438 4.17664  -2
   2   3  29 100.438 4.17664   1
  -3   3  30 69.1528 2.48608  -2
   3   3  29 69.1528 2.48608   1
  -4   3  30 63.4098 3.60259  -2
   4   3  29 63.4098 3.60259   1
   5   3  29 10.2118 1.36318   1
  -6   3  31 24.9110 2.87161  -2
   6   3  29 24.9110 2.87161   1
   7   4  27 23.9390 1.50833  -2
  -7   4  29 23.9390 1.50833   1
   6   4  27 32.0268 1.70612  -2
  -6   4  29 32.0268 1.70612   1
   5   4  28 8.88687 5.94048  -2
  -5   4  29 8.88687 5.94048   1
   5   4  27 50.2890 6.40989  -2
  -5   4  29 50.2890 6.40989   1
   4   4  28 14.4580 1.68645  -2
  -4   4  29 14.4580 1.68645   1
   3   4  28 28.9413 1.74832  -2
  -3   4  29 28.9413 1.74832   1
   2   4  28 46.3201 4.77485  -2
  -2   4  29 46.3201 4.77485   1
   1   4  29 125.482 4.40700  -2
  -1   4  29 125.482 4.40700   1
   0   4  29 24.0968 1.59549  -2
   0   4  29 24.0968 1.59549   1
  -1   4  29 119.851 3.75659  -2
   1   4  29 119.851 3.75659   1
  -2   4  30 7.01278 3.10330  -2
   2   4  29 7.01278 3.10330   1
  -3   4  30 36.0363 1.88798  -2
   3   4  29 36.0363 1.88798   1
  -4   4  30 9.21008 2.08499  -2
   4   4  29 9.21008 2.08499   1
  -5   4  30 86.1312 6.51128  -2
   5   4  29 86.1312 6.51128   1
  -6   4  31 8.58758 3.17265  -2
   6   4  29 8.58758 3.17265   1
   7   5  27 25.0996 1.43266  -2
  -7   5  29 25.0996 1.43266   1
   6   5  27 21.1010 1.70072  -2
  -6   5  29 21.1010 1.70072   1
   5   5  27 1.43284 3.90313  -2
  -5   5  29 1.43284 3.90313   1
   4   5  28 42.5167 2.23151  -2
  -4   5  29 42.5167 2.23151   1
   3   5  28 22.6918 1.82001  -2
  -3   5  29 22.6918 1.82001   1
   2   5  28 14.6655 4.17929  -2
  -2   5  29 14.6655 4.17929   1
   1   5  29 22.5136 2.67705  -2
  -1   5  29 22.5136 2.67705   1
   0   5  29 10.2695 1.28044  -2
   0   5  29 10.2695 1.28044   1
  -1   5  29 19.3980 2.31271  -2
   1   5  29 19.3980 2.31271   1
  -2   5  30 20.6716 6.20837  -2
   2   5  29 20.6716 6.20837   1
  -3   5  30 28.7544 1.86042  -2
   3   5  29 28.7544 1.86042   1
  -4   5  30 66.4267 2.54739  -2
   4   5  29 66.4267 2.54739   1
   5   5  29 4.34200 0.97188   1
   6   6  27 25.9811 2.11467  -2
  -6   6  29 25.9811 2.11467   1
   5   6  27 -4.2350 5.85007  -2
  -5   6  29 -4.2350 5.85007   1
   4   6  28 4.17610 1.75060  -2
  -4   6  29 4.17610 1.75060   1
   3   6  28 31.2233 1.85331  -2
  -3   6  29 31.2233 1.85331   1
   2   6  28 11.8695 3.32061  -2
  -2   6  29 11.8695 3.32061   1
   1   6  29 7.08491 2.20617  -2
  -1   6  29 7.08491 2.20617   1
   0   6  29 15.3698 1.50566  -2
   0   6  29 15.3698 1.50566   1
  -1   6  29 12.1097 2.59981  -2
   1   6  29 12.1097 2.59981   1
  -2   6  30 17.4848 4.12767  -2
   2   6  29 17.4848 4.12767   1
  -3   6  30 24.4357 1.63782  -2
   3   6  29 24.4357 1.63782   1
  -4   6  30 3.66321 1.62621  -2
   4   6  29 3.66321 1.62621   1
   5   6  29 19.1026 1.93816   1
   6   7  27 9.67152 1.77027  -2
  -6   7  29 9.67152 1.77027   1
  -5   7  29 3.07508 1.32860   1
   4   7  28 32.1052 2.31720  -2
  -4   7  29 32.1052 2.31720   1
   3   7  28 30.1942 1.72459  -2
  -3   7  29 30.1942 1.72459   1
   2   7  28 17.8967 2.74263  -2
  -2   7  29 17.8967 2.74263   1
   1   7  29 6.43360 2.04413  -2
  -1   7  29 6.43360 2.04413   1
   0   7  29 10.3156 1.47142  -2
   0   7  29 10.3156 1.47142   1
  -1   7  29 7.69199 2.74113  -2
   1   7  29 7.69199 2.74113   1
  -2   7  30 18.2006 3.83663  -2
   2   7  29 18.2006 3.83663   1
  -3   7  30 5.93507 1.50478  -2
   3   7  29 5.93507 1.50478   1
  -4   7  30 1.04417 1.64875  -2
   4   7  29 1.04417 1.64875   1
  -5   8  29 0.13981 1.85576   1
   4   8  28 4.26913 2.05916  -2
  -4   8  29 4.26913 2.05916   1
   3   8  28 34.1077 2.03691  -2
  -3   8  29 34.1077 2.03691   1
   2   8  28 99.2406 4.17149  -2
  -2   8  29 99.2406 4.17149   1
   1   8  29 39.3938 2.54652  -2
  -1   8  29 39.3938 2.54652   1
   0   8  29 5.88589 1.28361  -2
   0   8  29 5.88589 1.28361   1
  -1   8  29 36.5034 2.69171  -2
   1   8  29 36.5034 2.69171   1
   2   8  29 17.1092 1.45831   1
  -3   8  30 35.6606 2.06392  -2
   3   8  29 35.6606 2.06392   1
   3   9  28 38.7387 2.76512  -2
  -3   9  29 38.7387 2.76512   1
   2   9  28 7.93985 4.73284  -2
  -2   9  29 7.93985 4.73284   1
   1   9  29 55.9673 3.64508  -2
  -1   9  29 55.9673 3.64508   1
   0   9  29 65.0063 2.27155  -2
   0   9  29 65.0063 2.27155   1
  -1   9  29 54.3244 3.66923  -2
   1   9  29 54.3244 3.66923   1
   2   9  29 11.8407 1.29314   1
   7   0  28 14.6871 1.75907  -2
  -7   0  30 14.6871 1.75907   1
   6   0  28 10.9348 2.26357  -2
  -6   0  30 10.9348 2.26357   1
  -5   0  30 3.53194 1.34990   1
   4   0  29 4.24547 2.61114  -2
  -4   0  30 4.24547 2.61114   1
   3   0  29 3.36432 2.40821  -2
  -3   0  30 3.36432 2.40821   1
   2   0  29 93.5194 5.96966  -2
  -2   0  30 93.5194 5.96966   1
   1   0  30 128.270 4.41024  -2
  -1   0  30 128.270 4.41024   1
   0   0  30 149.505 5.03072  -2
   0   0  30 149.505 5.03072   1
  -1   0  30 126.253 6.41709  -2
   1   0  30 126.253 6.41709   1
  -2   0  31 12.7868 3.84847  -2
   2   0  30 12.7868 3.84847   1
  -3   0  31 26.3218 2.96154  -2
   3   0  30 26.3218 2.96154   1
  -4   0  31 20.4990 3.09258  -2
   4   0  30 20.4990 3.09258   1
   5   0  30 -0.6782 1.36309   1
   7   1  28 26.5557 1.40380  -2
  -7   1  30 26.5557 1.40380   1
   6   1  28 17.9096 1.46148  -2
  -6   1  30 17.9096 1.46148   1
  -5   1  30 2.69516 0.97033   1
   4   1  29 61.4632 2.58589  -2
  -4   1  30 61.4632 2.58589   1
   3   1  29 55.0305 2.24208  -2
  -3   1  30 55.0305 2.24208   1
   2   1  29 15.5985 4.60196  -2
  -2   1  30 15.5985 4.60196   1
   1   1  30 48.5972 2.28868  -2
  -1   1  30 48.5972 2.28868   1
   0   1  30 157.724 3.76768  -2
   0   1  30 157.724 3.76768   1
  -1   1  30 56.2364 2.81478  -2
   1   1  30 56.2364 2.81478   1
  -2   1  31 97.7566 3.98834  -2
   2   1  30 97.7566 3.98834   1
  -3   1  31 19.5892 2.06303  -2
   3   1  30 19.5892 2.06303   1
  -4   1  31 21.6645 2.25716  -2
   4   1  30 21.6645 2.25716   1
   5   1  30 35.5609 2.11424   1
   7   2  28 9.85286 1.31963  -2
  -7   2  30 9.85286 1.31963   1
   6   2  28 6.98856 1.51087  -2
  -6   2  30 6.98856 1.51087   1
  -5   2  30 6.17811 0.98984   1
   4   2  29 84.7805 2.65884  -2
  -4   2  30 84.7805 2.65884   1
   3   2  29 15.8411 1.78633  -2
  -3   2  30 15.8411 1.78633   1
   2   2  29 4.36986 4.49512  -2
  -2   2  30 4.36986 4.49512   1
   1   2  30 35.3673 2.64791  -2
  -1   2  30 35.3673 2.64791   1
   0   2  30 363.065 7.34362  -2
   0   2  30 363.065 7.34362   1
  -1   2  30 39.2819 2.39507  -2
   1   2  30 39.2819 2.39507   1
  -2   2  31 23.6470 2.95278  -2
   2   2  30 23.6470 2.95278   1
  -3   2  31 33.4392 2.24067  -2
   3   2  30 33.4392 2.24067   1
  -4   2  31 4.89804 2.60848  -2
   4   2  30 4.89804 2.60848   1
   5   2  30 5.97520 1.18970   1
   7   3  28 38.7672 1.74457  -2
  -7   3  30 38.7672 1.74457   1
   6   3  28 40.7934 1.73871  -2
  -6   3  30 40.7934 1.73871   1
  -5   3  30 7.22345 1.02328   1
   4   3  29 63.1795 2.06368  -2
  -4   3  30 63.1795 2.06368   1
   3   3  29 66.5875 2.29449  -2
  -3   3  30 66.5875 2.29449   1
   2   3  29 102.955 6.17897  -2
  -2   3  30 102.955 6.17897   1
   1   3  30 27.1317 2.44784  -2
  -1   3  30 27.1317 2.44784   1
   0   3  30 2.65576 1.27526  -2
   0   3  30 2.65576 1.27526   1
  -1   3  30 28.6697 2.26807  -2
   1   3  30 28.6697 2.26807   1
  -2   3  31 23.7598 2.81353  -2
   2   3  30 23.7598 2.81353   1
  -3   3  31 94.6396 3.19379  -2
   3   3  30 94.6396 3.19379   1
  -4   3  31 6.88098 2.29159  -2
   4   3  30 6.88098 2.29159   1
   5   3  30 2.21509 1.18684   1
  -7   4  30 15.2123 1.41290   1
   6   4  28 9.47022 1.38843  -2
  -6   4  30 9.47022 1.38843   1
  -5   4  30 39.9080 1.60388   1
   4   4  29 7.80543 1.51759  -2
  -4   4  30 7.80543 1.51759   1
   3   4  29 42.5900 2.01995  -2
  -3   4  30 42.5900 2.01995   1
   2   4  29 14.5383 3.99801  -2
  -2   4  30 14.5383 3.99801   1
   1   4  30 25.7955 2.36983  -2
  -1   4  30 25.7955 2.36983   1
   0   4  30 7.45597 1.29911  -2
   0   4  30 7.45597 1.29911   1
  -1   4  30 23.0114 2.33642  -2
   1   4  30 23.0114 2.33642   1
  -2   4  31 19.4995 2.97272  -2
   2   4  30 19.4995 2.97272   1
  -3   4  31 63.1367 2.43827  -2
   3   4  30 63.1367 2.43827   1
  -4   4  31 30.1988 2.19456  -2
   4   4  30 30.1988 2.19456   1
   5   4  30 31.1272 1.70037   1
   6   5  28 29.8409 1.85952  -2
  -6   5  30 29.8409 1.85952   1
  -5   5  30 26.2669 1.49868   1
   4   5  29 66.6014 2.56918  -2
  -4   5  30 66.6014 2.56918   1
   3   5  29 26.5386 1.76848  -2
  -3   5  30 26.5386 1.76848   1
   2   5  29 31.1905 3.46719  -2
  -2   5  30 31.1905 3.46719   1
   1   5  30 33.8183 2.58934  -2
  -1   5  30 33.8183 2.58934   1
   0   5  30 30.9151 1.57626  -2
   0   5  30 30.9151 1.57626   1
  -1   5  30 34.6631 2.30378  -2
   1   5  30 34.6631 2.30378   1
  -2   5  31 64.4702 4.71634  -2
   2   5  30 64.4702 4.71634   1
  -3   5  31 11.9482 1.51102  -2
   3   5  30 11.9482 1.51102   1
  -4   5  31 30.3703 2.24391  -2
   4   5  30 30.3703 2.24391   1
   6   6  28 2.54445 3.45183  -2
  -6   6  30 2.54445 3.45183   1
  -5   6  30 0.15002 1.22641   1
   4   6  29 0.62598 1.69936  -2
  -4   6  30 0.62598 1.69936   1
   3   6  29 22.8672 1.81249  -2
  -3   6  30 22.8672 1.81249   1
   2   6  29 20.4990 3.22533  -2
  -2   6  30 20.4990 3.22533   1
   1   6  30 5.98136 2.22078  -2
  -1   6  30 5.98136 2.22078   1
   0   6  30 95.5986 2.72748  -2
   0   6  30 95.5986 2.72748   1
  -1   6  30 9.82526 2.31040  -2
   1   6  30 9.82526 2.31040   1
  -2   6  31 27.2304 3.87703  -2
   2   6  30 27.2304 3.87703   1
  -3   6  31 34.2505 1.79351  -2
   3   6  30 34.2505 1.79351   1
  -4   6  31 -1.7855 1.70860  -2
   4   6  30 -1.7855 1.70860   1
  -5   7  30 3.02580 1.15250   1
   4   7  29 2.03324 2.02260  -2
  -4   7  30 2.03324 2.02260   1
   3   7  29 7.08801 1.49900  -2
  -3   7  30 7.08801 1.49900   1
   2   7  29 24.8319 2.96088  -2
  -2   7  30 24.8319 2.96088   1
   1   7  30 14.6052 1.89208  -2
  -1   7  30 14.6052 1.89208   1
   0   7  30 54.1468 2.10428  -2
   0   7  30 54.1468 2.10428   1
  -1   7  30 14.7317 2.52892  -2
   1   7  30 14.7317 2.52892   1
   2   7  30 13.9228 1.37764   1
  -3   7  31 13.0273 1.35408  -2
   3   7  30 13.0273 1.35408   1
   3   8  29 40.9732 2.79227  -2
  -3   8  30 40.9732 2.79227   1
  -2   8  30 15.0569 1.16697   1
   1   8  30 24.2023 2.93627  -2
  -1   8  30 24.2023 2.93627   1
   0   8  30 36.7397 1.76507  -2
   0   8  30 36.7397 1.76507   1
  -1   8  30 -1.2130 5.88574  -2
   1   8  30 -1.2130 5.88574   1
   2   8  30 0.12176 0.84893   1
   6   0  29 4.37419 2.03104  -2
  -6   0  31 4.37419 2.03104   1
  -5   0  31 -0.9682 1.11737   1
   4   0  30 14.9169 2.49243  -2
  -4   0  31 14.9169 2.49243   1
   3   0  30 22.8832 2.48081  -2
  -3   0  31 22.8832 2.48081   1
  -2   0  31 0.98037 1.69540   1
   1   0  31 2.72608 3.18268  -2
  -1   0  31 2.72608 3.18268   1
   0   0  31 8.26979 2.39392  -2
   0   0  31 8.26979 2.39392   1
  -1   0  31 -3.7110 3.69819  -2
   1   0  31 -3.7110 3.69819   1
  -2   0  32 174.070 7.31501  -2
   2   0  31 174.070 7.31501   1
  -3   0  32 1.82329 2.43026  -2
   3   0  31 1.82329 2.43026   1
  -4   0  32 12.8409 2.77808  -2
   4   0  31 12.8409 2.77808   1
   6   1  29 5.33988 1.43737  -2
  -6   1  31 5.33988 1.43737   1
  -5   1  31 0.42699 0.91123   1
   4   1  30 24.5840 1.93659  -2
  -4   1  31 24.5840 1.93659   1
   3   1  30 17.4281 1.70900  -2
  -3   1  31 17.4281 1.70900   1
   2   1  30 97.4778 4.77046  -2
  -2   1  31 97.4778 4.77046   1
   1   1  31 70.4178 2.96877  -2
  -1   1  31 70.4178 2.96877   1
   0   1  31 6.20786 1.27935  -2
   0   1  31 6.20786 1.27935   1
  -1   1  31 63.1371 3.34408  -2
   1   1  31 63.1371 3.34408   1
  -2   1  32 8.05178 2.92476  -2
   2   1  31 8.05178 2.92476   1
  -3   1  32 33.5986 2.05203  -2
   3   1  31 33.5986 2.05203   1
  -4   1  32 2.84699 1.93598  -2
   4   1  31 2.84699 1.93598   1
   5   1  31 3.22916 2.26923   1
   6   2  29 12.4094 1.37494  -2
  -6   2  31 12.4094 1.37494   1
   5   2  29 20.0947 5.70684  -2
  -5   2  31 20.0947 5.70684   1
   4   2  30 0.64994 1.72258  -2
  -4   2  31 0.64994 1.72258   1
   3   2  30 37.0224 1.73928  -2
  -3   2  31 37.0224 1.73928   1
   2   2  30 23.4253 3.59892  -2
  -2   2  31 23.4253 3.59892   1
   1   2  31 147.891 4.13094  -2
  -1   2  31 147.891 4.13094   1
   0   2  31 31.0768 1.60465  -2
   0   2  31 31.0768 1.60465   1
  -1   2  31 144.355 4.17900  -2
   1   2  31 144.355 4.17900   1
  -2   2  32 9.66116 2.86585  -2
   2   2  31 9.66116 2.86585   1
  -3   2  32 4.69638 1.67648  -2
   3   2  31 4.69638 1.67648   1
  -4   2  32 11.2491 2.37165  -2
   4   2  31 11.2491 2.37165   1
   5   2  31 11.9621 2.25177   1
   6   3  29 26.6123 1.44310  -2
  -6   3  31 26.6123 1.44310   1
   5   3  29 13.5097 5.46626  -2
  -5   3  31 13.5097 5.46626   1
   4   3  30 10.5354 1.76940  -2
  -4   3  31 10.5354 1.76940   1
   3   3  30 108.631 3.16731  -2
  -3   3  31 108.631 3.16731   1
   2   3  30 29.2328 3.49693  -2
  -2   3  31 29.2328 3.49693   1
   1   3  31 136.728 3.85821  -2
  -1   3  31 136.728 3.85821   1
   0   3  31 4.57666 1.19093  -2
   0   3  31 4.57666 1.19093   1
  -1   3  31 139.943 4.37018  -2
   1   3  31 139.943 4.37018   1
  -2   3  32 29.2281 3.08097  -2
   2   3  31 29.2281 3.08097   1
  -3   3  32 51.1769 2.40535  -2
   3   3  31 51.1769 2.40535   1
  -4   3  32 20.7484 2.85236  -2
   4   3  31 20.7484 2.85236   1
   6   4  29 13.9788 1.80937  -2
  -6   4  31 13.9788 1.80937   1
  -5   4  31 7.45206 1.04270   1
   4   4  30 33.6676 2.03799  -2
  -4   4  31 33.6676 2.03799   1
   3   4  30 72.1161 2.76079  -2
  -3   4  31 72.1161 2.76079   1
   2   4  30 24.6202 4.09216  -2
  -2   4  31 24.6202 4.09216   1
   1   4  31 50.1517 2.48482  -2
  -1   4  31 50.1517 2.48482   1
   0   4  31 15.8901 1.24600  -2
   0   4  31 15.8901 1.24600   1
  -1   4  31 47.5120 2.74400  -2
   1   4  31 47.5120 2.74400   1
  -2   4  32 42.3991 4.15922  -2
   2   4  31 42.3991 4.15922   1
  -3   4  32 10.2527 1.71370  -2
   3   4  31 10.2527 1.71370   1
  -4   4  32 15.0043 2.00036  -2
   4   4  31 15.0043 2.00036   1
  -5   5  31 5.04475 1.08283   1
   4   5  30 32.8760 2.07714  -2
  -4   5  31 32.8760 2.07714   1
   3   5  30 10.8748 1.64738  -2
  -3   5  31 10.8748 1.64738   1
   2   5  30 61.7177 4.61482  -2
  -2   5  31 61.7177 4.61482   1
   1   5  31 12.2271 2.16930  -2
  -1   5  31 12.2271 2.16930   1
   0   5  31 42.6547 1.65296  -2
   0   5  31 42.6547 1.65296   1
  -1   5  31 9.28317 2.83381  -2
   1   5  31 9.28317 2.83381   1
  -2   5  32 12.7804 5.07185  -2
   2   5  31 12.7804 5.07185   1
  -3   5  32 38.6484 2.13540  -2
   3   5  31 38.6484 2.13540   1
   4   6  30 3.36980 1.97422  -2
  -4   6  31 3.36980 1.97422   1
   3   6  30 38.0154 1.80104  -2
  -3   6  31 38.0154 1.80104   1
   2   6  30 23.2333 3.53074  -2
  -2   6  31 23.2333 3.53074   1
   1   6  31 27.3545 2.48137  -2
  -1   6  31 27.3545 2.48137   1
   0   6  31 40.5394 1.97459  -2
   0   6  31 40.5394 1.97459   1
  -1   6  31 29.0895 2.90010  -2
   1   6  31 29.0895 2.90010   1
   2   6  31 5.40294 1.13121   1
   3   6  31 8.89926 1.63813   1
   3   7  30 11.1632 1.83342  -2
  -3   7  31 11.1632 1.83342   1
  -2   7  31 11.0025 1.12601   1
  -1   7  31 2.13109 1.09172   1
   0   7  31 1.95594 1.31879  -2
   0   7  31 1.95594 1.31879   1
  -1   7  31 0.33283 6.12874  -2
   1   7  31 0.33283 6.12874   1
  -5   0  32 8.72956 1.15058   1
   4   0  31 14.6252 2.24795  -2
  -4   0  32 14.6252 2.24795   1
   3   0  31 0.05942 1.98630  -2
  -3   0  32 0.05942 1.98630   1
   2   0  31 197.278 11.1272  -2
  -2   0  32 197.278 11.1272   1
   1   0  32 138.640 5.16670  -2
  -1   0  32 138.640 5.16670   1
   0   0  32 9.68390 2.17334  -2
   0   0  32 9.68390 2.17334   1
  -1   0  32 146.343 6.54437  -2
   1   0  32 146.343 6.54437   1
  -2   0  33 -0.9978 3.36027  -2
   2   0  32 -0.9978 3.36027   1
  -3   0  33 11.7738 2.38187  -2
   3   0  32 11.7738 2.38187   1
  -5   1  32 17.0353 1.09148   1
   4   1  31 3.99085 1.46493  -2
  -4   1  32 3.99085 1.46493   1
   3   1  31 35.3583 1.70829  -2
  -3   1  32 35.3583 1.70829   1
   2   1  31 8.45631 3.23588  -2
  -2   1  32 8.45631 3.23588   1
   1   1  32 123.090 3.70474  -2
  -1   1  32 123.090 3.70474   1
   0   1  32 17.1757 1.35075  -2
   0   1  32 17.1757 1.35075   1
  -1   1  32 122.253 4.15450  -2
   1   1  32 122.253 4.15450   1
  -2   1  33 31.6929 3.42303  -2
   2   1  32 31.6929 3.42303   1
  -3   1  33 112.037 4.43909  -2
   3   1  32 112.037 4.43909   1
   4   1  32 10.6306 2.46212   1
  -5   2  32 0.73943 0.75109   1
   4   2  31 13.2499 1.63442  -2
  -4   2  32 13.2499 1.63442   1
   3   2  31 5.70841 1.38042  -2
  -3   2  32 5.70841 1.38042   1
   2   2  31 3.40320 3.18314  -2
  -2   2  32 3.40320 3.18314   1
   1   2  32 50.7124 2.89598  -2
  -1   2  32 50.7124 2.89598   1
   0   2  32 113.835 2.80032  -2
   0   2  32 113.835 2.80032   1
  -1   2  32 51.5723 2.57529  -2
   1   2  32 51.5723 2.57529   1
  -2   2  33 84.4330 3.68335  -2
   2   2  32 84.4330 3.68335   1
  -3   2  33 29.2086 2.65576  -2
   3   2  32 29.2086 2.65576   1
   5   3  30 11.7470 4.89028  -2
  -5   3  32 11.7470 4.89028   1
   4   3  31 20.4400 1.97727  -2
  -4   3  32 20.4400 1.97727   1
   3   3  31 44.6266 1.99124  -2
  -3   3  32 44.6266 1.99124   1
   2   3  31 30.9853 3.36192  -2
  -2   3  32 30.9853 3.36192   1
   1   3  32 19.0515 2.36450  -2
  -1   3  32 19.0515 2.36450   1
   0   3  32 20.8752 1.31505  -2
   0   3  32 20.8752 1.31505   1
  -1   3  32 15.7711 2.25051  -2
   1   3  32 15.7711 2.25051   1
  -2   3  33 8.54792 4.48943  -2
   2   3  32 8.54792 4.48943   1
  -3   3  33 25.4080 2.48609  -2
   3   3  32 25.4080 2.48609   1
   4   4  31 15.1468 1.82622  -2
  -4   4  32 15.1468 1.82622   1
   3   4  31 13.2348 1.96116  -2
  -3   4  32 13.2348 1.96116   1
   2   4  31 43.2212 4.00374  -2
  -2   4  32 43.2212 4.00374   1
   1   4  32 14.6388 2.62237  -2
  -1   4  32 14.6388 2.62237   1
   0   4  32 1.91574 0.97952  -2
   0   4  32 1.91574 0.97952   1
  -1   4  32 9.51206 2.12219  -2
   1   4  32 9.51206 2.12219   1
  -2   4  33 52.2516 5.36074  -2
   2   4  32 52.2516 5.36074   1
   3   4  32 15.8197 1.39893   1
  -4   5  32 0.93700 0.93779   1
   3   5  31 37.8346 1.94142  -2
  -3   5  32 37.8346 1.94142   1
   2   5  31 22.6754 4.54001  -2
  -2   5  32 22.6754 4.54001   1
   1   5  32 32.9640 4.16896  -2
  -1   5  32 32.9640 4.16896   1
   0   5  32 13.0087 1.11679  -2
   0   5  32 13.0087 1.11679   1
  -1   5  32 35.3516 4.75341  -2
   1   5  32 35.3516 4.75341   1
   2   5  32 12.6026 1.42421   1
  -2   6  32 21.9123 1.46756   1
  -1   6  32 31.2254 1.83430   1
   0   6  32 43.2542 2.05036  -2
   0   6  32 43.2542 2.05036   1
   4   0  32 1.50530 2.11088  -2
  -4   0  33 1.50530 2.11088   1
   3   0  32 7.82589 1.81582  -2
  -3   0  33 7.82589 1.81582   1
   2   0  32 0.07653 5.02152  -2
  -2   0  33 0.07653 5.02152   1
   1   0  33 16.7671 4.38271  -2
  -1   0  33 16.7671 4.38271   1
   0   0  33 -2.6872 1.78316  -2
   0   0  33 -2.6872 1.78316   1
  -1   0  33 0.92506 4.27083  -2
   1   0  33 0.92506 4.27083   1
   4   1  32 20.2493 2.02240  -2
  -4   1  33 20.2493 2.02240   1
   3   1  32 103.045 2.50632  -2
  -3   1  33 103.045 2.50632   1
   2   1  32 38.4735 3.85702  -2
  -2   1  33 38.4735 3.85702   1
   1   1  33 7.82298 3.06938  -2
  -1   1  33 7.82298 3.06938   1
   0   1  33 163.739 4.35812  -2
   0   1  33 163.739 4.35812   1
  -1   1  33 8.60049 2.92282  -2
   1   1  33 8.60049 2.92282   1
   2   1  33 0.15902 1.04348   1
  -4   2  33 16.6956 1.14903   1
   3   2  32 31.7559 1.71558  -2
  -3   2  33 31.7559 1.71558   1
   2   2  32 95.4942 4.82675  -2
  -2   2  33 95.4942 4.82675   1
   1   2  33 41.7906 3.37749  -2
  -1   2  33 41.7906 3.37749   1
   0   2  33 333.218 7.89472  -2
   0   2  33 333.218 7.89472   1
  -1   2  33 41.8405 3.41544  -2
   1   2  33 41.8405 3.41544   1
   2   2  33 -0.0369 1.17775   1
   3   3  32 21.9867 1.67175  -2
  -3   3  33 21.9867 1.67175   1
   2   3  32 15.2910 3.33921  -2
  -2   3  33 15.2910 3.33921   1
   1   3  33 10.2337 2.91487  -2
  -1   3  33 10.2337 2.91487   1
   0   3  33 -1.4094 0.96687  -2
   0   3  33 -1.4094 0.96687   1
  -1   3  33 11.3910 4.18028  -2
   1   3  33 11.3910 4.18028   1
   2   4  32 58.7274 5.17952  -2
  -2   4  33 58.7274 5.17952   1
  -1   4  33 21.9138 1.67703   1
   0   4  33 68.5055 2.27556  -2
   0   4  33 68.5055 2.27556   1
  -1   0  34 72.6040 3.38182   1
   0   0  34 78.2447 4.82573  -2
   0   0  34 78.2447 4.82573   1
  -1   1  34 39.7571 2.05310   1
   0   0   0    0.00    0.00   0
;
_shelx_hkl_checksum              84173
loop_
_space_group_symop_operation_xyz
'x, y, z'
'-x, y+1/2, -z+1/2'
'-x, -y, -z'
'x, -y-1/2, z-1/2'
loop_
_atom_site_label
_atom_site_type_symbol
_atom_site_fract_x
_atom_site_fract_y
_atom_site_fract_z
_atom_site_U_iso_or_equiv
_atom_site_adp_type
_atom_site_occupancy
_atom_site_site_symmetry_order
_atom_site_calc_flag
_atom_site_refinement_flags_posn
_atom_site_refinement_flags_adp
S1 S 0.69432(9) 0.67487(7) 0.57841(4) 0.0237(2) Uani 1 1 d . .
O1 O 0.7109(3) 0.7500(2) 0.55023(10) 0.0294(8) Uani 1 1 d . .
O2 O 0.6056(3) 0.6726(2) 0.60905(11) 0.0325(8) Uani 1 1 d . .
N1 N 0.9607(4) 0.4015(2) 0.56727(13) 0.0282(9) Uani 1 1 d D .
H1N H 0.916(4) 0.357(3) 0.5646(17) 0.034 Uiso 1 1 d D U
N2 N 0.8066(3) 0.6625(2) 0.61198(11) 0.0203(8) Uani 1 1 d . .
C1 C 0.9098(4) 0.6895(3) 0.59508(13) 0.0211(9) Uani 1 1 d . .
C2 C 0.9716(4) 0.7548(3) 0.61336(14) 0.0212(9) Uani 1 1 d . .
C3 C 1.0783(4) 0.7576(3) 0.58973(15) 0.0245(10) Uani 1 1 d . .
H3A H 1.1399 0.7395 0.6120 0.029 Uiso 1 1 calc R U
H3B H 1.0931 0.8167 0.5784 0.029 Uiso 1 1 calc R U
C4 C 1.0642(4) 0.6942(3) 0.54757(15) 0.0249(10) Uani 1 1 d . .
H4A H 1.0539 0.7262 0.5174 0.030 Uiso 1 1 calc R U
H4B H 1.1299 0.6569 0.5463 0.030 Uiso 1 1 calc R U
C5 C 0.9618(4) 0.6393(3) 0.55579(14) 0.0209(9) Uani 1 1 d . .
H5 H 0.9110 0.6422 0.5266 0.025 Uiso 1 1 calc R U
C6 C 0.9810(4) 0.5460(3) 0.56810(15) 0.0228(9) Uani 1 1 d . .
C7 C 0.9256(4) 0.4779(3) 0.54732(15) 0.0267(10) Uani 1 1 d . .
H7 H 0.8700 0.4828 0.5223 0.032 Uiso 1 1 calc R U
C8 C 1.0410(4) 0.4180(3) 0.60172(15) 0.0258(10) Uani 1 1 d . .
C9 C 1.0572(4) 0.5086(3) 0.60346(14) 0.0221(9) Uani 1 1 d . .
C10 C 1.1357(4) 0.5419(3) 0.63701(15) 0.0272(10) Uani 1 1 d . .
H10 H 1.1472 0.6023 0.6397 0.033 Uiso 1 1 calc R U
C11 C 1.1958(5) 0.4859(3) 0.66594(17) 0.0344(11) Uani 1 1 d . .
H11 H 1.2502 0.5080 0.6883 0.041 Uiso 1 1 calc R U
C12 C 1.1780(5) 0.3957(3) 0.66308(18) 0.0366(12) Uani 1 1 d . .
H12 H 1.2198 0.3583 0.6839 0.044 Uiso 1 1 calc R U
C13 C 1.1017(5) 0.3616(3) 0.63098(17) 0.0353(12) Uani 1 1 d . .
H13 H 1.0906 0.3011 0.6288 0.042 Uiso 1 1 calc R U
C14 C 0.9491(4) 0.8183(3) 0.64998(14) 0.0238(10) Uani 1 1 d . .
C15 C 1.0363(5) 0.8688(3) 0.66920(17) 0.0329(11) Uani 1 1 d . .
H15 H 1.1079 0.8610 0.6585 0.039 Uiso 1 1 calc R U
C16 C 1.0189(5) 0.9304(4) 0.70401(19) 0.0395(13) Uani 1 1 d . .
H16 H 1.0786 0.9645 0.7167 0.047 Uiso 1 1 calc R U
C17 C 0.9156(5) 0.9421(3) 0.72006(17) 0.0388(13) Uani 1 1 d . .
H17 H 0.9042 0.9828 0.7444 0.047 Uiso 1 1 calc R U
C18 C 0.8284(5) 0.8940(3) 0.70035(16) 0.0333(11) Uani 1 1 d . .
H18 H 0.7569 0.9028 0.7110 0.040 Uiso 1 1 calc R U
C19 C 0.8436(4) 0.8332(3) 0.66538(15) 0.0281(10) Uani 1 1 d . .
H19 H 0.7826 0.8017 0.6518 0.034 Uiso 1 1 calc R U
C20 C 0.8095(4) 0.5938(3) 0.64900(14) 0.0221(9) Uani 1 1 d . .
H20A H 0.8755 0.5576 0.6457 0.027 Uiso 1 1 calc R U
H20B H 0.7442 0.5564 0.6433 0.027 Uiso 1 1 calc R U
C21 C 0.8117(4) 0.6275(3) 0.69885(15) 0.0233(9) Uani 1 1 d . .
C22 C 0.7144(5) 0.6555(3) 0.71772(16) 0.0328(11) Uani 1 1 d . .
H22 H 0.6484 0.6574 0.6980 0.039 Uiso 1 1 calc R U
C23 C 0.7131(5) 0.6807(3) 0.76475(17) 0.0385(12) Uani 1 1 d . .
H23 H 0.6468 0.6999 0.7772 0.046 Uiso 1 1 calc R U
C24 C 0.8093(5) 0.6773(3) 0.79317(16) 0.0373(12) Uani 1 1 d . .
H24 H 0.8084 0.6924 0.8257 0.045 Uiso 1 1 calc R U
C25 C 0.9056(5) 0.6526(3) 0.77533(18) 0.0400(13) Uani 1 1 d . .
H25 H 0.9717 0.6521 0.7950 0.048 Uiso 1 1 calc R U
C26 C 0.9065(4) 0.6279(3) 0.72761(17) 0.0343(11) Uani 1 1 d . .
H26 H 0.9737 0.6113 0.7151 0.041 Uiso 1 1 calc R U
C27 C 0.6749(4) 0.5864(3) 0.53911(16) 0.0258(10) Uani 1 1 d . .
C28 C 0.6362(4) 0.5080(3) 0.55601(17) 0.0314(11) Uani 1 1 d . .
H28 H 0.6165 0.5028 0.5878 0.038 Uiso 1 1 calc R U
C29 C 0.6272(4) 0.4377(3) 0.52545(19) 0.0350(12) Uani 1 1 d . .
H29 H 0.6025 0.3838 0.5367 0.042 Uiso 1 1 calc R U
C30 C 0.6541(4) 0.4453(3) 0.47836(18) 0.0351(12) Uani 1 1 d . .
C31 C 0.6899(4) 0.5240(3) 0.46211(16) 0.0303(11) Uani 1 1 d . .
H31 H 0.7068 0.5299 0.4300 0.036 Uiso 1 1 calc R U
C32 C 0.7014(4) 0.5951(3) 0.49255(16) 0.0287(11) Uani 1 1 d . .
H32 H 0.7271 0.6488 0.4814 0.034 Uiso 1 1 calc R U
C33 C 0.6409(5) 0.3671(4) 0.4462(2) 0.0474(15) Uani 1 1 d . .
H33A H 0.5640 0.3622 0.4341 0.071 Uiso 1 1 calc R U
H33B H 0.6622 0.3150 0.4642 0.071 Uiso 1 1 calc R U
H33C H 0.6880 0.3736 0.4197 0.071 Uiso 1 1 calc R U
S2 S 0.84045(9) 0.16615(7) 0.58562(3) 0.0223(2) Uani 1 1 d . .
O3 O 0.8225(3) 0.24241(19) 0.55723(10) 0.0268(7) Uani 1 1 d . .
O4 O 0.9330(3) 0.1618(2) 0.61908(10) 0.0297(7) Uani 1 1 d . .
N3 N 0.5618(4) -0.0964(3) 0.56382(13) 0.0291(9) Uani 1 1 d D .
H3N H 0.594(4) -0.145(3) 0.5579(18) 0.035 Uiso 1 1 d D U
N4 N 0.7320(3) 0.1558(2) 0.61574(11) 0.0199(8) Uani 1 1 d . .
C34 C 0.6268(4) 0.1864(3) 0.59579(13) 0.0196(9) Uani 1 1 d . .
C35 C 0.5746(4) 0.2528(3) 0.61362(14) 0.0243(10) Uani 1 1 d . .
C36 C 0.4609(4) 0.2617(3) 0.58905(17) 0.0320(11) Uani 1 1 d . .
H36A H 0.4469 0.3219 0.5787 0.038 Uiso 1 1 calc R U
H36B H 0.4036 0.2440 0.6103 0.038 Uiso 1 1 calc R U
C37 C 0.4629(4) 0.2005(3) 0.54599(16) 0.0288(11) Uani 1 1 d . .
H37A H 0.4687 0.2340 0.5165 0.035 Uiso 1 1 calc R U
H37B H 0.3947 0.1656 0.5429 0.035 Uiso 1 1 calc R U
C38 C 0.5643(4) 0.1413(3) 0.55491(15) 0.0253(10) Uani 1 1 d . .
H38 H 0.6093 0.1449 0.5267 0.030 Uiso 1 1 calc R U
C39 C 0.5418(4) 0.0471(3) 0.56431(14) 0.0229(9) Uani 1 1 d . .
C40 C 0.5980(4) -0.0206(3) 0.54569(15) 0.0246(10) Uani 1 1 d . .
H40 H 0.6533 -0.0154 0.5237 0.029 Uiso 1 1 calc R U
C41 C 0.4839(4) -0.0813(3) 0.59437(15) 0.0259(10) Uani 1 1 d . .
C42 C 0.4675(4) 0.0105(3) 0.59565(14) 0.0217(9) Uani 1 1 d . .
C43 C 0.3891(4) 0.0427(3) 0.62577(14) 0.0249(10) Uani 1 1 d . .
H43 H 0.3768 0.1030 0.6279 0.030 Uiso 1 1 calc R U
C44 C 0.3315(4) -0.0129(3) 0.65166(15) 0.0309(11) Uani 1 1 d . .
H44 H 0.2774 0.0093 0.6711 0.037 Uiso 1 1 calc R U
C45 C 0.3496(5) -0.1028(3) 0.65064(16) 0.0324(11) Uani 1 1 d . .
H45 H 0.3093 -0.1399 0.6699 0.039 Uiso 1 1 calc R U
C46 C 0.4257(4) -0.1371(3) 0.62174(16) 0.0313(11) Uani 1 1 d . .
H46 H 0.4379 -0.1976 0.6207 0.038 Uiso 1 1 calc R U
C47 C 0.6144(4) 0.3133(3) 0.65173(14) 0.0267(10) Uani 1 1 d . .
C48 C 0.5419(5) 0.3401(3) 0.68547(17) 0.0401(13) Uani 1 1 d . .
H48 H 0.4679 0.3206 0.6836 0.048 Uiso 1 1 calc R U
C49 C 0.5798(6) 0.3957(4) 0.72177(18) 0.0444(14) Uani 1 1 d . .
H49 H 0.5314 0.4138 0.7449 0.053 Uiso 1 1 calc R U
C50 C 0.6866(6) 0.4244(3) 0.72426(18) 0.0454(15) Uani 1 1 d . .
H50 H 0.7117 0.4624 0.7490 0.054 Uiso 1 1 calc R U
C51 C 0.7569(5) 0.3987(3) 0.69126(16) 0.0379(13) Uani 1 1 d . .
H51 H 0.8309 0.4183 0.6933 0.046 Uiso 1 1 calc R U
C52 C 0.7206(5) 0.3444(3) 0.65503(15) 0.0304(11) Uani 1 1 d . .
H52 H 0.7696 0.3281 0.6319 0.037 Uiso 1 1 calc R U
C53 C 0.7312(4) 0.0847(3) 0.65092(14) 0.0235(10) Uani 1 1 d . .
H53A H 0.8055 0.0587 0.6547 0.028 Uiso 1 1 calc R U
H53B H 0.6794 0.0394 0.6390 0.028 Uiso 1 1 calc R U
C54 C 0.6979(4) 0.1160(3) 0.69873(14) 0.0218(9) Uani 1 1 d . .
C55 C 0.7657(4) 0.1737(3) 0.72470(15) 0.0289(10) Uani 1 1 d . .
H55 H 0.8308 0.1945 0.7119 0.035 Uiso 1 1 calc R U
C56 C 0.7383(5) 0.2007(3) 0.76882(17) 0.0363(13) Uani 1 1 d . .
H56 H 0.7843 0.2406 0.7862 0.044 Uiso 1 1 calc R U
C57 C 0.6437(5) 0.1698(3) 0.78791(16) 0.0420(14) Uani 1 1 d . .
H57 H 0.6239 0.1887 0.8181 0.050 Uiso 1 1 calc R U
C58 C 0.5790(5) 0.1111(4) 0.76212(18) 0.0388(13) Uani 1 1 d . .
H58 H 0.5151 0.0886 0.7752 0.047 Uiso 1 1 calc R U
C59 C 0.6055(4) 0.0845(3) 0.71787(16) 0.0292(11) Uani 1 1 d . .
H59 H 0.5598 0.0443 0.7006 0.035 Uiso 1 1 calc R U
C60 C 0.8493(4) 0.0779(3) 0.54647(15) 0.0237(10) Uani 1 1 d . .
C61 C 0.8191(4) 0.0878(3) 0.49903(14) 0.0250(10) Uani 1 1 d . .
H61 H 0.7966 0.1428 0.4871 0.030 Uiso 1 1 calc R U
C62 C 0.8215(4) 0.0179(3) 0.46856(15) 0.0270(10) Uani 1 1 d . .
H62 H 0.8009 0.0252 0.4359 0.032 Uiso 1 1 calc R U
C63 C 0.8538(4) -0.0627(3) 0.48558(16) 0.0266(10) Uani 1 1 d . .
C64 C 0.8854(4) -0.0717(3) 0.53347(16) 0.0259(10) Uani 1 1 d . .
H64 H 0.9077 -0.1267 0.5455 0.031 Uiso 1 1 calc R U
C65 C 0.8848(4) -0.0013(3) 0.56395(15) 0.0268(10) Uani 1 1 d . .
H65 H 0.9085 -0.0076 0.5964 0.032 Uiso 1 1 calc R U
C66 C 0.8540(4) -0.1399(3) 0.45299(17) 0.0335(11) Uani 1 1 d . .
H66A H 0.8626 -0.1204 0.4205 0.050 Uiso 1 1 calc R U
H66B H 0.7844 -0.1712 0.4543 0.050 Uiso 1 1 calc R U
H66C H 0.9151 -0.1782 0.4631 0.050 Uiso 1 1 calc R U
loop_
_atom_site_aniso_label
_atom_site_aniso_U_11
_atom_site_aniso_U_22
_atom_site_aniso_U_33
_atom_site_aniso_U_23
_atom_site_aniso_U_13
_atom_site_aniso_U_12
S1 0.0210(5) 0.0220(5) 0.0278(5) -0.0037(4) -0.0019(4) 0.0010(5)
O1 0.036(2) 0.0212(15) 0.0296(15) -0.0002(13) -0.0054(14) 0.0019(15)
O2 0.0215(18) 0.0344(18) 0.0417(18) -0.0091(15) 0.0027(14) -0.0043(17)
N1 0.032(2) 0.0200(18) 0.033(2) -0.0037(16) 0.0006(17) -0.0066(18)
N2 0.0207(19) 0.0183(17) 0.0219(16) 0.0001(14) 0.0021(14) -0.0040(17)
C1 0.025(2) 0.023(2) 0.0161(18) 0.0065(16) 0.0043(17) 0.005(2)
C2 0.024(2) 0.0170(19) 0.0226(19) 0.0044(16) 0.0002(17) -0.005(2)
C3 0.021(2) 0.024(2) 0.030(2) 0.0013(18) 0.0065(18) -0.004(2)
C4 0.024(2) 0.024(2) 0.026(2) 0.0006(18) 0.0024(17) -0.007(2)
C5 0.020(2) 0.021(2) 0.0214(19) -0.0022(16) -0.0002(16) 0.000(2)
C6 0.022(2) 0.021(2) 0.026(2) -0.0043(17) 0.0043(18) 0.001(2)
C7 0.027(3) 0.026(2) 0.027(2) -0.0030(18) 0.0009(19) 0.001(2)
C8 0.027(3) 0.022(2) 0.028(2) -0.0051(17) 0.0032(18) 0.002(2)
C9 0.025(2) 0.017(2) 0.024(2) -0.0007(16) 0.0030(17) 0.004(2)
C10 0.035(3) 0.019(2) 0.028(2) -0.0026(17) 0.001(2) -0.003(2)
C11 0.033(3) 0.031(2) 0.038(2) -0.002(2) -0.008(2) -0.001(2)
C12 0.044(3) 0.027(2) 0.038(3) 0.002(2) -0.010(2) 0.002(3)
C13 0.045(3) 0.023(2) 0.037(2) 0.0016(19) -0.002(2) 0.008(2)
C14 0.027(2) 0.020(2) 0.024(2) 0.0052(17) -0.0008(17) 0.005(2)
C15 0.034(3) 0.028(2) 0.036(2) -0.004(2) -0.005(2) 0.000(2)
C16 0.037(3) 0.037(3) 0.043(3) -0.009(2) -0.008(2) -0.001(3)
C17 0.048(4) 0.036(3) 0.032(2) -0.009(2) -0.003(2) 0.008(3)
C18 0.043(3) 0.026(2) 0.031(2) -0.0011(19) 0.007(2) 0.005(2)
C19 0.034(3) 0.021(2) 0.030(2) 0.0005(18) 0.006(2) -0.004(2)
C20 0.024(2) 0.020(2) 0.022(2) 0.0042(16) 0.0017(17) 0.0000(19)
C21 0.025(2) 0.020(2) 0.025(2) 0.0063(16) 0.0002(17) -0.0038(19)
C22 0.034(3) 0.035(3) 0.031(2) -0.001(2) 0.009(2) -0.003(3)
C23 0.055(4) 0.029(3) 0.033(2) -0.004(2) 0.015(2) -0.003(3)
C24 0.059(4) 0.027(2) 0.026(2) -0.003(2) 0.004(2) -0.008(3)
C25 0.041(3) 0.039(3) 0.038(3) 0.004(2) -0.009(2) -0.013(3)
C26 0.029(3) 0.038(3) 0.036(2) 0.007(2) -0.004(2) -0.003(2)
C27 0.018(2) 0.025(2) 0.034(2) -0.0043(18) -0.0046(18) 0.004(2)
C28 0.027(3) 0.030(3) 0.037(3) -0.005(2) 0.001(2) -0.004(2)
C29 0.025(3) 0.027(3) 0.053(3) -0.009(2) 0.001(2) -0.008(2)
C30 0.023(3) 0.035(3) 0.045(3) -0.017(2) -0.011(2) 0.008(2)
C31 0.024(3) 0.037(3) 0.030(2) -0.009(2) -0.0011(19) 0.001(2)
C32 0.026(3) 0.028(2) 0.031(2) -0.0022(19) -0.0090(19) 0.004(2)
C33 0.027(3) 0.047(3) 0.068(4) -0.033(3) -0.004(3) -0.002(3)
S2 0.0251(6) 0.0216(5) 0.0201(4) -0.0021(4) 0.0018(4) -0.0041(5)
O3 0.039(2) 0.0194(15) 0.0223(14) 0.0010(12) 0.0056(14) -0.0063(15)
O4 0.0303(19) 0.0373(18) 0.0211(14) -0.0039(13) -0.0002(13) -0.0011(17)
N3 0.032(2) 0.0236(19) 0.032(2) -0.0054(16) 0.0076(17) 0.0004(19)
N4 0.022(2) 0.0176(17) 0.0205(16) 0.0006(14) 0.0023(13) -0.0007(16)
C34 0.020(2) 0.020(2) 0.0186(18) 0.0064(15) -0.0003(16) -0.0022(19)
C35 0.028(3) 0.022(2) 0.023(2) 0.0022(17) 0.0048(18) -0.004(2)
C36 0.036(3) 0.024(2) 0.036(2) -0.0003(19) -0.003(2) 0.007(2)
C37 0.028(3) 0.027(2) 0.030(2) 0.0030(19) -0.0071(19) 0.000(2)
C38 0.031(3) 0.023(2) 0.022(2) 0.0019(17) 0.0034(18) -0.002(2)
C39 0.023(2) 0.022(2) 0.023(2) -0.0013(16) -0.0053(18) -0.001(2)
C40 0.024(2) 0.023(2) 0.027(2) -0.0035(17) 0.0041(18) 0.001(2)
C41 0.025(3) 0.023(2) 0.029(2) -0.0035(17) -0.0023(19) 0.003(2)
C42 0.023(2) 0.021(2) 0.0202(19) -0.0016(16) -0.0018(16) 0.003(2)
C43 0.027(3) 0.029(2) 0.0189(19) -0.0038(17) -0.0008(17) 0.004(2)
C44 0.032(3) 0.036(3) 0.025(2) -0.0015(19) 0.0042(19) 0.005(2)
C45 0.036(3) 0.029(2) 0.032(2) 0.0049(19) 0.003(2) -0.007(2)
C46 0.036(3) 0.024(2) 0.034(2) 0.0027(19) 0.000(2) -0.009(2)
C47 0.039(3) 0.020(2) 0.0209(19) 0.0031(16) 0.0003(19) 0.005(2)
C48 0.049(3) 0.032(3) 0.040(3) -0.005(2) 0.011(2) 0.008(3)
C49 0.065(4) 0.036(3) 0.034(3) -0.005(2) 0.016(3) 0.006(3)
C50 0.078(5) 0.027(3) 0.031(3) -0.004(2) 0.001(3) -0.009(3)
C51 0.063(4) 0.023(2) 0.026(2) 0.0019(19) -0.004(2) -0.007(3)
C52 0.047(3) 0.019(2) 0.025(2) 0.0009(17) -0.004(2) -0.004(2)
C53 0.032(3) 0.019(2) 0.0195(19) 0.0074(16) -0.0014(17) 0.005(2)
C54 0.024(2) 0.018(2) 0.023(2) 0.0027(16) -0.0009(17) 0.001(2)
C55 0.039(3) 0.021(2) 0.027(2) 0.0035(18) 0.001(2) 0.003(2)
C56 0.058(4) 0.024(2) 0.025(2) 0.0013(18) -0.006(2) 0.001(3)
C57 0.067(4) 0.032(3) 0.028(2) -0.001(2) 0.014(2) 0.020(3)
C58 0.039(3) 0.038(3) 0.041(3) 0.016(2) 0.016(2) 0.017(3)
C59 0.029(3) 0.032(3) 0.026(2) 0.0079(18) 0.0007(19) -0.001(2)
C60 0.021(2) 0.022(2) 0.028(2) -0.0016(17) 0.0007(18) -0.004(2)
C61 0.027(3) 0.023(2) 0.024(2) 0.0046(17) 0.0008(18) -0.002(2)
C62 0.028(3) 0.030(2) 0.023(2) -0.0008(18) 0.0007(18) -0.007(2)
C63 0.025(3) 0.025(2) 0.030(2) -0.0039(19) 0.0057(18) -0.003(2)
C64 0.024(3) 0.021(2) 0.033(2) 0.0005(18) 0.0051(19) 0.002(2)
C65 0.028(3) 0.028(2) 0.024(2) -0.0037(18) 0.0005(18) 0.000(2)
C66 0.034(3) 0.030(3) 0.037(2) -0.012(2) 0.004(2) -0.004(2)
loop_
_atom_type_symbol
_atom_type_description
_atom_type_scat_dispersion_real
_atom_type_scat_dispersion_imag
_atom_type_scat_source
C C 0.0181 0.0091 'International Tables Vol C Tables 4.2.6.8 and 6.1.1.4'
H H 0.0000 0.0000 'International Tables Vol C Tables 4.2.6.8 and 6.1.1.4'
N N 0.0311 0.0180 'International Tables Vol C Tables 4.2.6.8 and 6.1.1.4'
O O 0.0492 0.0322 'International Tables Vol C Tables 4.2.6.8 and 6.1.1.4'
S S 0.3331 0.5567 'International Tables Vol C Tables 4.2.6.8 and 6.1.1.4'
loop_
_geom_angle_atom_site_label_1
_geom_angle_atom_site_label_2
_geom_angle_atom_site_label_3
_geom_angle
O2 S1 O1 119.8(2)
O2 S1 N2 106.47(19)
O1 S1 N2 106.1(2)
O2 S1 C27 106.7(2)
O1 S1 C27 107.3(2)
N2 S1 C27 110.4(2)
C8 N1 C7 108.9(4)
C8 N1 H1N 129(3)
C7 N1 H1N 118(3)
C1 N2 C20 117.4(4)
C1 N2 S1 119.5(3)
C20 N2 S1 118.4(3)
C2 C1 N2 124.9(4)
C2 C1 C5 114.5(4)
N2 C1 C5 120.4(4)
C1 C2 C14 130.6(4)
C1 C2 C3 109.3(4)
C14 C2 C3 120.2(4)
C2 C3 C4 105.6(4)
C2 C3 H3A 110.6
C4 C3 H3A 110.6
C2 C3 H3B 110.6
C4 C3 H3B 110.6
H3A C3 H3B 108.7
C5 C4 C3 106.5(3)
C5 C4 H4A 110.4
C3 C4 H4A 110.4
C5 C4 H4B 110.4
C3 C4 H4B 110.4
H4A C4 H4B 108.6
C6 C5 C1 112.8(3)
C6 C5 C4 116.7(4)
C1 C5 C4 102.0(3)
C6 C5 H5 108.3
C1 C5 H5 108.3
C4 C5 H5 108.3
C7 C6 C9 105.5(4)
C7 C6 C5 125.3(4)
C9 C6 C5 129.2(4)
C6 C7 N1 111.0(4)
C6 C7 H7 124.5
N1 C7 H7 124.5
N1 C8 C13 129.9(4)
N1 C8 C9 107.6(4)
C13 C8 C9 122.4(4)
C10 C9 C8 118.3(4)
C10 C9 C6 134.7(4)
C8 C9 C6 107.0(4)
C11 C10 C9 119.2(4)
C11 C10 H10 120.4
C9 C10 H10 120.4
C10 C11 C12 121.1(5)
C10 C11 H11 119.5
C12 C11 H11 119.5
C13 C12 C11 121.0(5)
C13 C12 H12 119.5
C11 C12 H12 119.5
C12 C13 C8 118.0(5)
C12 C13 H13 121.0
C8 C13 H13 121.0
C15 C14 C19 118.3(4)
C15 C14 C2 118.5(4)
C19 C14 C2 123.2(4)
C16 C15 C14 120.6(5)
C16 C15 H15 119.7
C14 C15 H15 119.7
C17 C16 C15 120.3(5)
C17 C16 H16 119.8
C15 C16 H16 119.8
C16 C17 C18 119.4(5)
C16 C17 H17 120.3
C18 C17 H17 120.3
C17 C18 C19 121.2(5)
C17 C18 H18 119.4
C19 C18 H18 119.4
C18 C19 C14 120.1(5)
C18 C19 H19 119.9
C14 C19 H19 119.9
N2 C20 C21 114.2(4)
N2 C20 H20A 108.7
C21 C20 H20A 108.7
N2 C20 H20B 108.7
C21 C20 H20B 108.7
H20A C20 H20B 107.6
C26 C21 C22 118.3(4)
C26 C21 C20 121.5(4)
C22 C21 C20 120.1(4)
C23 C22 C21 121.1(5)
C23 C22 H22 119.5
C21 C22 H22 119.5
C24 C23 C22 119.1(5)
C24 C23 H23 120.5
C22 C23 H23 120.5
C25 C24 C23 121.0(4)
C25 C24 H24 119.5
C23 C24 H24 119.5
C24 C25 C26 119.5(5)
C24 C25 H25 120.2
C26 C25 H25 120.2
C21 C26 C25 121.0(5)
C21 C26 H26 119.5
C25 C26 H26 119.5
C32 C27 C28 121.0(4)
C32 C27 S1 119.5(4)
C28 C27 S1 119.5(4)
C29 C28 C27 118.8(5)
C29 C28 H28 120.6
C27 C28 H28 120.6
C28 C29 C30 120.9(5)
C28 C29 H29 119.6
C30 C29 H29 119.6
C31 C30 C29 119.3(4)
C31 C30 C33 121.9(5)
C29 C30 C33 118.8(5)
C30 C31 C32 120.7(4)
C30 C31 H31 119.7
C32 C31 H31 119.7
C27 C32 C31 119.3(5)
C27 C32 H32 120.3
C31 C32 H32 120.3
C30 C33 H33A 109.5
C30 C33 H33B 109.5
H33A C33 H33B 109.5
C30 C33 H33C 109.5
H33A C33 H33C 109.5
H33B C33 H33C 109.5
O4 S2 O3 119.7(2)
O4 S2 N4 106.38(18)
O3 S2 N4 105.9(2)
O4 S2 C60 107.6(2)
O3 S2 C60 107.38(18)
N4 S2 C60 109.7(2)
C41 N3 C40 110.5(4)
C41 N3 H3N 128(4)
C40 N3 H3N 121(4)
C34 N4 C53 117.4(4)
C34 N4 S2 119.5(3)
C53 N4 S2 117.7(3)
C35 C34 N4 122.7(4)
C35 C34 C38 114.8(4)
N4 C34 C38 122.3(4)
C34 C35 C47 128.6(4)
C34 C35 C36 110.0(4)
C47 C35 C36 121.4(4)
C35 C36 C37 104.2(4)
C35 C36 H36A 110.9
C37 C36 H36A 110.9
C35 C36 H36B 110.9
C37 C36 H36B 110.9
H36A C36 H36B 108.9
C36 C37 C38 106.7(4)
C36 C37 H37A 110.4
C38 C37 H37A 110.4
C36 C37 H37B 110.4
C38 C37 H37B 110.4
H37A C37 H37B 108.6
C39 C38 C34 113.5(3)
C39 C38 C37 116.6(4)
C34 C38 C37 102.0(4)
C39 C38 H38 108.1
C34 C38 H38 108.1
C37 C38 H38 108.1
C40 C39 C42 106.7(4)
C40 C39 C38 124.6(4)
C42 C39 C38 128.5(4)
N3 C40 C39 109.2(4)
N3 C40 H40 125.4
C39 C40 H40 125.4
N3 C41 C46 131.2(4)
N3 C41 C42 107.0(4)
C46 C41 C42 121.8(4)
C43 C42 C39 135.9(4)
C43 C42 C41 117.7(4)
C39 C42 C41 106.4(4)
C44 C43 C42 119.8(4)
C44 C43 H43 120.1
C42 C43 H43 120.1
C43 C44 C45 122.0(5)
C43 C44 H44 119.0
C45 C44 H44 119.0
C46 C45 C44 120.2(5)
C46 C45 H45 119.9
C44 C45 H45 119.9
C45 C46 C41 118.5(4)
C45 C46 H46 120.7
C41 C46 H46 120.7
C52 C47 C48 118.7(4)
C52 C47 C35 122.0(4)
C48 C47 C35 119.3(5)
C49 C48 C47 119.4(6)
C49 C48 H48 120.3
C47 C48 H48 120.3
C50 C49 C48 120.3(5)
C50 C49 H49 119.9
C48 C49 H49 119.9
C51 C50 C49 120.3(5)
C51 C50 H50 119.9
C49 C50 H50 119.9
C50 C51 C52 120.1(6)
C50 C51 H51 120.0
C52 C51 H51 120.0
C51 C52 C47 121.3(5)
C51 C52 H52 119.4
C47 C52 H52 119.4
N4 C53 C54 112.0(3)
N4 C53 H53A 109.2
C54 C53 H53A 109.2
N4 C53 H53B 109.2
C54 C53 H53B 109.2
H53A C53 H53B 107.9
C59 C54 C55 119.6(4)
C59 C54 C53 120.9(4)
C55 C54 C53 119.4(4)
C56 C55 C54 120.2(5)
C56 C55 H55 119.9
C54 C55 H55 119.9
C55 C56 C57 120.2(5)
C55 C56 H56 119.9
C57 C56 H56 119.9
C58 C57 C56 118.8(4)
C58 C57 H57 120.6
C56 C57 H57 120.6
C59 C58 C57 121.2(5)
C59 C58 H58 119.4
C57 C58 H58 119.4
C54 C59 C58 120.0(5)
C54 C59 H59 120.0
C58 C59 H59 120.0
C61 C60 C65 120.4(4)
C61 C60 S2 120.1(3)
C65 C60 S2 119.5(3)
C60 C61 C62 120.2(4)
C60 C61 H61 119.9
C62 C61 H61 119.9
C63 C62 C61 120.3(4)
C63 C62 H62 119.8
C61 C62 H62 119.8
C62 C63 C64 119.0(4)
C62 C63 C66 120.9(4)
C64 C63 C66 120.2(4)
C65 C64 C63 120.8(4)
C65 C64 H64 119.6
C63 C64 H64 119.6
C60 C65 C64 119.3(4)
C60 C65 H65 120.4
C64 C65 H65 120.4
C63 C66 H66A 109.5
C63 C66 H66B 109.5
H66A C66 H66B 109.5
C63 C66 H66C 109.5
H66A C66 H66C 109.5
H66B C66 H66C 109.5
loop_
_geom_bond_atom_site_label_1
_geom_bond_atom_site_label_2
_geom_bond_distance
S1 O2 1.430(4)
S1 O1 1.433(3)
S1 N2 1.626(4)
S1 C27 1.771(5)
N1 C8 1.361(6)
N1 C7 1.368(6)
N1 H1N 0.88(4)
N2 C1 1.438(6)
N2 C20 1.492(5)
C1 C2 1.345(6)
C1 C5 1.528(6)
C2 C14 1.467(6)
C2 C3 1.502(6)
C3 C4 1.547(6)
C3 H3A 0.9900
C3 H3B 0.9900
C4 C5 1.541(6)
C4 H4A 0.9900
C4 H4B 0.9900
C5 C6 1.502(6)
C5 H5 1.0000
C6 C7 1.366(6)
C6 C9 1.442(6)
C7 H7 0.9500
C8 C13 1.385(7)
C8 C9 1.419(6)
C9 C10 1.402(6)
C10 C11 1.371(7)
C10 H10 0.9500
C11 C12 1.417(7)
C11 H11 0.9500
C12 C13 1.363(7)
C12 H12 0.9500
C13 H13 0.9500
C14 C15 1.402(7)
C14 C19 1.404(7)
C15 C16 1.399(7)
C15 H15 0.9500
C16 C17 1.379(8)
C16 H16 0.9500
C17 C18 1.386(8)
C17 H17 0.9500
C18 C19 1.388(6)
C18 H18 0.9500
C19 H19 0.9500
C20 C21 1.503(6)
C20 H20A 0.9900
C20 H20B 0.9900
C21 C26 1.370(7)
C21 C22 1.401(7)
C22 C23 1.388(7)
C22 H22 0.9500
C23 C24 1.380(8)
C23 H23 0.9500
C24 C25 1.363(8)
C24 H24 0.9500
C25 C26 1.404(7)
C25 H25 0.9500
C26 H26 0.9500
C27 C32 1.383(7)
C27 C28 1.400(7)
C28 C29 1.391(7)
C28 H28 0.9500
C29 C30 1.398(8)
C29 H29 0.9500
C30 C31 1.385(8)
C30 C33 1.517(6)
C31 C32 1.400(6)
C31 H31 0.9500
C32 H32 0.9500
C33 H33A 0.9800
C33 H33B 0.9800
C33 H33C 0.9800
S2 O4 1.427(3)
S2 O3 1.438(3)
S2 N4 1.627(4)
S2 C60 1.768(4)
N3 C41 1.346(6)
N3 C40 1.367(6)
N3 H3N 0.88(4)
N4 C34 1.448(5)
N4 C53 1.485(5)
C34 C35 1.325(6)
C34 C38 1.514(6)
C35 C47 1.487(6)
C35 C36 1.517(7)
C36 C37 1.546(6)
C36 H36A 0.9900
C36 H36B 0.9900
C37 C38 1.548(7)
C37 H37A 0.9900
C37 H37B 0.9900
C38 C39 1.513(6)
C38 H38 1.0000
C39 C40 1.376(6)
C39 C42 1.426(6)
C40 H40 0.9500
C41 C46 1.386(7)
C41 C42 1.437(6)
C42 C43 1.412(6)
C43 C44 1.356(7)
C43 H43 0.9500
C44 C45 1.411(7)
C44 H44 0.9500
C45 C46 1.383(7)
C45 H45 0.9500
C46 H46 0.9500
C47 C52 1.380(7)
C47 C48 1.405(7)
C48 C49 1.396(7)
C48 H48 0.9500
C49 C50 1.374(9)
C49 H49 0.9500
C50 C51 1.368(8)
C50 H50 0.9500
C51 C52 1.377(6)
C51 H51 0.9500
C52 H52 0.9500
C53 C54 1.518(6)
C53 H53A 0.9900
C53 H53B 0.9900
C54 C59 1.371(7)
C54 C55 1.395(6)
C55 C56 1.378(7)
C55 H55 0.9500
C56 C57 1.391(8)
C56 H56 0.9500
C57 C58 1.381(8)
C57 H57 0.9500
C58 C59 1.377(7)
C58 H58 0.9500
C59 H59 0.9500
C60 C61 1.378(6)
C60 C65 1.383(6)
C61 C62 1.387(6)
C61 H61 0.9500
C62 C63 1.386(7)
C62 H62 0.9500
C63 C64 1.392(6)
C63 C66 1.512(6)
C64 C65 1.391(6)
C64 H64 0.9500
C65 H65 0.9500
C66 H66A 0.9800
C66 H66B 0.9800
C66 H66C 0.9800
loop_
_geom_hbond_atom_site_label_D
_geom_hbond_atom_site_label_H
_geom_hbond_atom_site_label_A
_geom_hbond_distance_DH
_geom_hbond_distance_HA
_geom_hbond_distance_DA
_geom_hbond_angle_DHA
_geom_hbond_site_symmetry_A
N1 H1N O3 0.88(4) 2.12(4) 2.989(5) 174(5) .
N3 H3N O1 0.88(4) 2.18(4) 3.035(5) 165(5) 1_545
loop_
_geom_torsion_atom_site_label_1
_geom_torsion_atom_site_label_2
_geom_torsion_atom_site_label_3
_geom_torsion_atom_site_label_4
_geom_torsion
O2 S1 N2 C1 -159.6(3)
O1 S1 N2 C1 -30.9(4)
C27 S1 N2 C1 85.0(4)
O2 S1 N2 C20 45.3(3)
O1 S1 N2 C20 174.0(3)
C27 S1 N2 C20 -70.1(4)
C20 N2 C1 C2 -91.3(5)
S1 N2 C1 C2 113.4(4)
C20 N2 C1 C5 84.2(4)
S1 N2 C1 C5 -71.2(5)
N2 C1 C2 C14 -6.2(7)
C5 C1 C2 C14 178.1(4)
N2 C1 C2 C3 174.2(4)
C5 C1 C2 C3 -1.5(5)
C1 C2 C3 C4 10.0(5)
C14 C2 C3 C4 -169.6(4)
C2 C3 C4 C5 -14.5(5)
C2 C1 C5 C6 118.4(4)
N2 C1 C5 C6 -57.5(5)
C2 C1 C5 C4 -7.6(5)
N2 C1 C5 C4 176.5(4)
C3 C4 C5 C6 -110.3(4)
C3 C4 C5 C1 13.1(4)
C1 C5 C6 C7 110.7(5)
C4 C5 C6 C7 -131.7(5)
C1 C5 C6 C9 -68.1(6)
C4 C5 C6 C9 49.5(6)
C9 C6 C7 N1 0.5(5)
C5 C6 C7 N1 -178.5(4)
C8 N1 C7 C6 -0.3(6)
C7 N1 C8 C13 -179.1(5)
C7 N1 C8 C9 -0.1(5)
N1 C8 C9 C10 179.2(4)
C13 C8 C9 C10 -1.7(7)
N1 C8 C9 C6 0.4(5)
C13 C8 C9 C6 179.5(5)
C7 C6 C9 C10 -179.0(5)
C5 C6 C9 C10 0.0(9)
C7 C6 C9 C8 -0.5(5)
C5 C6 C9 C8 178.4(4)
C8 C9 C10 C11 1.7(7)
C6 C9 C10 C11 -180.0(5)
C9 C10 C11 C12 -1.4(8)
C10 C11 C12 C13 1.0(9)
C11 C12 C13 C8 -1.0(8)
N1 C8 C13 C12 -179.8(5)
C9 C8 C13 C12 1.4(8)
C1 C2 C14 C15 167.3(4)
C3 C2 C14 C15 -13.2(6)
C1 C2 C14 C19 -15.3(7)
C3 C2 C14 C19 164.2(4)
C19 C14 C15 C16 2.1(7)
C2 C14 C15 C16 179.6(4)
C14 C15 C16 C17 0.3(8)
C15 C16 C17 C18 -1.9(8)
C16 C17 C18 C19 1.2(8)
C17 C18 C19 C14 1.3(7)
C15 C14 C19 C18 -2.9(6)
C2 C14 C19 C18 179.7(4)
C1 N2 C20 C21 94.3(5)
S1 N2 C20 C21 -110.1(4)
N2 C20 C21 C26 -103.4(5)
N2 C20 C21 C22 79.7(5)
C26 C21 C22 C23 -2.0(7)
C20 C21 C22 C23 175.1(4)
C21 C22 C23 C24 -0.4(8)
C22 C23 C24 C25 2.3(8)
C23 C24 C25 C26 -1.8(8)
C22 C21 C26 C25 2.5(7)
C20 C21 C26 C25 -174.5(4)
C24 C25 C26 C21 -0.7(8)
O2 S1 C27 C32 143.6(4)
O1 S1 C27 C32 14.1(5)
N2 S1 C27 C32 -101.1(4)
O2 S1 C27 C28 -38.3(5)
O1 S1 C27 C28 -167.9(4)
N2 S1 C27 C28 76.9(4)
C32 C27 C28 C29 1.6(8)
S1 C27 C28 C29 -176.4(4)
C27 C28 C29 C30 -1.3(8)
C28 C29 C30 C31 -0.1(8)
C28 C29 C30 C33 -178.9(5)
C29 C30 C31 C32 1.2(8)
C33 C30 C31 C32 -179.9(5)
C28 C27 C32 C31 -0.4(7)
S1 C27 C32 C31 177.6(4)
C30 C31 C32 C27 -1.0(7)
O4 S2 N4 C34 158.7(3)
O3 S2 N4 C34 30.4(3)
C60 S2 N4 C34 -85.2(3)
O4 S2 N4 C53 -47.6(3)
O3 S2 N4 C53 -176.0(3)
C60 S2 N4 C53 68.4(3)
C53 N4 C34 C35 93.6(5)
S2 N4 C34 C35 -112.7(4)
C53 N4 C34 C38 -82.2(5)
S2 N4 C34 C38 71.5(5)
N4 C34 C35 C47 7.5(7)
C38 C34 C35 C47 -176.4(4)
N4 C34 C35 C36 -172.8(4)
C38 C34 C35 C36 3.3(5)
C34 C35 C36 C37 -11.5(5)
C47 C35 C36 C37 168.3(4)
C35 C36 C37 C38 15.0(5)
C35 C34 C38 C39 -120.1(4)
N4 C34 C38 C39 56.0(6)
C35 C34 C38 C37 6.3(5)
N4 C34 C38 C37 -177.6(4)
C36 C37 C38 C39 111.4(4)
C36 C37 C38 C34 -12.9(5)
C34 C38 C39 C40 -103.8(5)
C37 C38 C39 C40 138.0(5)
C34 C38 C39 C42 71.1(6)
C37 C38 C39 C42 -47.1(6)
C41 N3 C40 C39 -0.7(5)
C42 C39 C40 N3 0.2(5)
C38 C39 C40 N3 176.0(4)
C40 N3 C41 C46 -178.5(5)
C40 N3 C41 C42 0.8(5)
C40 C39 C42 C43 179.0(5)
C38 C39 C42 C43 3.4(8)
C40 C39 C42 C41 0.2(5)
C38 C39 C42 C41 -175.3(4)
N3 C41 C42 C43 -179.7(4)
C46 C41 C42 C43 -0.3(7)
N3 C41 C42 C39 -0.6(5)
C46 C41 C42 C39 178.7(4)
C39 C42 C43 C44 -179.6(5)
C41 C42 C43 C44 -0.9(6)
C42 C43 C44 C45 1.9(7)
C43 C44 C45 C46 -1.7(8)
C44 C45 C46 C41 0.5(7)
N3 C41 C46 C45 179.7(5)
C42 C41 C46 C45 0.5(7)
C34 C35 C47 C52 40.3(7)
C36 C35 C47 C52 -139.4(5)
C34 C35 C47 C48 -139.8(5)
C36 C35 C47 C48 40.5(6)
C52 C47 C48 C49 -1.3(7)
C35 C47 C48 C49 178.8(4)
C47 C48 C49 C50 0.5(8)
C48 C49 C50 C51 -0.1(8)
C49 C50 C51 C52 0.6(8)
C50 C51 C52 C47 -1.5(7)
C48 C47 C52 C51 1.9(7)
C35 C47 C52 C51 -178.3(4)
C34 N4 C53 C54 -75.1(5)
S2 N4 C53 C54 130.7(3)
N4 C53 C54 C59 118.3(5)
N4 C53 C54 C55 -65.5(5)
C59 C54 C55 C56 -1.7(7)
C53 C54 C55 C56 -178.0(4)
C54 C55 C56 C57 0.7(7)
C55 C56 C57 C58 0.8(7)
C56 C57 C58 C59 -1.4(8)
C55 C54 C59 C58 1.2(7)
C53 C54 C59 C58 177.4(4)
C57 C58 C59 C54 0.4(7)
O4 S2 C60 C61 -142.1(4)
O3 S2 C60 C61 -12.0(5)
N4 S2 C60 C61 102.6(4)
O4 S2 C60 C65 39.0(5)
O3 S2 C60 C65 169.0(4)
N4 S2 C60 C65 -76.3(4)
C65 C60 C61 C62 1.6(8)
S2 C60 C61 C62 -177.3(4)
C60 C61 C62 C63 0.3(8)
C61 C62 C63 C64 -1.1(7)
C61 C62 C63 C66 178.4(5)
C62 C63 C64 C65 0.0(7)
C66 C63 C64 C65 -179.5(5)
C61 C60 C65 C64 -2.7(7)
S2 C60 C65 C64 176.2(4)
C63 C64 C65 C60 1.8(7)
