#------------------------------------------------------------------------------
#$Date: 2017-01-08 06:01:36 +0200 (Sun, 08 Jan 2017) $
#$Revision: 190047 $
#$URL: file:///home/coder/svn-repositories/cod/cif/1/54/50/1545017.cif $
#------------------------------------------------------------------------------
#
# This file is available in the Crystallography Open Database (COD),
# http://www.crystallography.net/. The original data for this entry
# were provided by IUCr Journals, http://journals.iucr.org/.
#
# The file may be used within the scientific community so long as
# proper attribution is given to the journal article from which the
# data were obtained.
#
data_1545017
loop_
_publ_author_name
'El-Khatatneh, Nasseem'
Chandra
'Rajesh, B. M.'
'Kumar, Shamantha'
'Doreswamy, B. H.'
'Mahendra, M.'
_publ_section_title
;
 (6-Fluoro-2-oxo-2<i>H</i>-chromen-4-yl)methyl diethylcarbamodithioate
;
_journal_coeditor_code           SU4119
_journal_issue                   1
_journal_name_full               IUCrData
_journal_page_first              x162069
_journal_paper_doi               10.1107/S2414314616020691
_journal_volume                  2
_journal_year                    2017
_chemical_formula_iupac          'C15 H16 F N O2 S2'
_chemical_formula_moiety         'C15 H16 F N O2 S2'
_chemical_formula_sum            'C15 H16 F N O2 S2'
_chemical_formula_weight         325.41
_chemical_name_systematic
;
(6-Fluoro-2-oxo-2<i>H</i>-chromen-4-yl)methyl diethylcarbamodithioate
;
_space_group_crystal_system      triclinic
_space_group_IT_number           2
_space_group_name_Hall           '-P 1'
_space_group_name_H-M_alt        'P -1'
_symmetry_space_group_name_Hall  '-P 1'
_symmetry_space_group_name_H-M   'P -1'
_atom_sites_solution_hydrogens   geom
_atom_sites_solution_primary     direct
_atom_sites_solution_secondary   difmap
_audit_creation_method           SHELXL-2016/6
_cell_angle_alpha                75.625(2)
_cell_angle_beta                 88.538(2)
_cell_angle_gamma                86.553(2)
_cell_formula_units_Z            4
_cell_length_a                   7.1284(2)
_cell_length_b                   12.2818(3)
_cell_length_c                   18.3709(5)
_cell_measurement_reflns_used    4557
_cell_measurement_temperature    293(2)
_cell_measurement_theta_max      23.461
_cell_measurement_theta_min      1.144
_cell_volume                     1555.10(7)
_computing_cell_refinement
;
SAINT (Bruker, 2009)
;
_computing_data_collection
;
APEX2 (Bruker, 2009)
;
_computing_data_reduction
;
SAINT (Bruker, 2009)
;
_computing_molecular_graphics
;
PLATON (Spek, 2009) and Mercury (Macrae <i>et al.</i>, 2008)
;
_computing_publication_material
;
<i>SHELXL2016/6</i> (Sheldrick, 2015) and PLATON (Spek, 2009)
;
_computing_structure_refinement
;
<i>SHELXL2016/6</i> (Sheldrick, 2015)
;
_computing_structure_solution
;
<i>SHELXS2016/6</i> (Sheldrick, 2008)
;
_diffrn_ambient_temperature      293(2)
_diffrn_detector_area_resol_mean 18.4
_diffrn_measured_fraction_theta_full 0.995
_diffrn_measured_fraction_theta_max 0.995
_diffrn_measurement_device_type  'Bruker APEXII CCD diffractometer'
_diffrn_measurement_method       '\f and \w scans'
_diffrn_radiation_type           MoK\a
_diffrn_radiation_wavelength     0.71073
_diffrn_reflns_av_R_equivalents  0.0286
_diffrn_reflns_limit_h_max       7
_diffrn_reflns_limit_h_min       -7
_diffrn_reflns_limit_k_max       13
_diffrn_reflns_limit_k_min       -13
_diffrn_reflns_limit_l_max       20
_diffrn_reflns_limit_l_min       -20
_diffrn_reflns_number            18765
_diffrn_reflns_theta_full        23.461
_diffrn_reflns_theta_max         23.461
_diffrn_reflns_theta_min         1.714
_exptl_absorpt_coefficient_mu    0.356
_exptl_absorpt_correction_type   none
_exptl_crystal_colour            colourless
_exptl_crystal_density_diffrn    1.390
_exptl_crystal_description       block
_exptl_crystal_F_000             680
_exptl_crystal_size_max          0.30
_exptl_crystal_size_mid          0.25
_exptl_crystal_size_min          0.20
_refine_diff_density_max         0.298
_refine_diff_density_min         -0.163
_refine_ls_extinction_method     none
_refine_ls_goodness_of_fit_ref   1.029
_refine_ls_hydrogen_treatment    constr
_refine_ls_matrix_type           full
_refine_ls_number_parameters     383
_refine_ls_number_reflns         4555
_refine_ls_number_restraints     0
_refine_ls_restrained_S_all      1.029
_refine_ls_R_factor_all          0.0474
_refine_ls_R_factor_gt           0.0363
_refine_ls_shift/su_max          0.001
_refine_ls_shift/su_mean         0.000
_refine_ls_structure_factor_coef Fsqd
_refine_ls_weighting_details
'w=1/[\s^2^(Fo^2^)+(0.0413P)^2^+0.5771P] where P=(Fo^2^+2Fc^2^)/3'
_refine_ls_weighting_scheme      calc
_refine_ls_wR_factor_gt          0.0863
_refine_ls_wR_factor_ref         0.0935
_reflns_number_gt                3711
_reflns_number_total             4555
_reflns_threshold_expression     'I > 2\s(I)'
_cod_data_source_file            su4119sup1.cif
_cod_data_source_block           I
_cod_database_code               1545017
_shelx_space_group_comment
;
The symmetry employed for this shelxl refinement is uniquely defined
by the following loop, which should always be used as a source of
symmetry information in preference to the above space-group names.
They are only intended as comments.
;
_shelx_hkl_file
;
  -1   0   0   13.66    0.34
  -1   0   0   12.14    0.35
  -1   0   0   12.59    0.35
  -1   0   0   12.65    0.33
   1   0   0   13.12    0.33
   1   0   0   13.89    0.35
  -2   0   0  291.12    6.96
  -2   0   0  304.57    6.54
  -2   0   0  303.42    6.70
  -2   0   0  298.20    6.71
  -2   0   0  296.21    6.85
   2   0   0  299.86    6.70
   2   0   0  290.56    6.95
   2   0   0  313.53    6.89
  -3   0   0    6.17    0.24
  -3   0   0    6.17    0.26
  -3   0   0    5.78    0.23
  -3   0   0    5.87    0.25
  -3   0   0    6.00    0.24
   3   0   0    5.91    0.24
   3   0   0    5.84    0.25
   3   0   0    6.23    0.26
   3   0   0    6.00    0.25
  -4   0   0   99.88    2.38
  -4   0   0   97.60    2.31
  -4   0   0  101.50    2.38
  -4   0   0   97.79    2.46
  -4   0   0   98.85    2.44
   4   0   0   99.85    2.43
   4   0   0   96.68    2.37
   4   0   0  100.26    2.46
   4   0   0   99.83    2.45
  -5   0   0   13.87    0.50
  -5   0   0   14.39    0.51
  -5   0   0   14.91    0.52
  -5   0   0   14.32    0.53
  -5   0   0   14.65    0.54
   5   0   0   13.07    0.52
   5   0   0   13.48    0.50
   5   0   0   13.99    0.53
   5   0   0   13.84    0.53
  -6   0   0    1.82    0.22
  -6   0   0    1.51    0.19
  -6   0   0    1.59    0.19
  -6   0   0    1.32    0.20
  -6   0   0    1.42    0.19
   6   0   0    0.96    0.16
   6   0   0    1.50    0.20
   6   0   0    1.62    0.22
   6   0   0    1.51    0.20
  -7   0   0    4.18    0.33
  -7   0   0    4.66    0.31
  -7   0   0    4.36    0.33
  -7   0   0    4.58    0.31
   7   0   0    5.24    0.33
   7   0   0    4.51    0.32
   7   0   0    4.79    0.33
   7   0   0    4.30    0.33
   7  -1   0    0.50    0.16
   7  -1   0    0.28    0.13
  -7   1   0    0.31    0.13
  -7   1   0    0.51    0.14
  -7   1   0    0.28    0.13
  -7   1   0    0.38    0.12
   6  -1   0    0.08    0.09
   6  -1   0    0.19    0.09
   6  -1   0   -0.10    0.06
   6  -1   0    0.04    0.09
  -6   1   0    0.11    0.08
  -6   1   0    0.16    0.10
  -6   1   0    0.02    0.07
  -6   1   0    0.09    0.08
  -6   1   0    0.18    0.09
   5  -1   0   15.36    0.53
   5  -1   0   15.08    0.54
   5  -1   0   14.76    0.56
   5  -1   0   15.07    0.52
  -5   1   0   14.81    0.52
  -5   1   0   15.03    0.57
  -5   1   0   15.52    0.55
  -5   1   0   14.54    0.52
   4  -1   0   15.31    0.49
   4  -1   0   15.62    0.50
   4  -1   0   16.03    0.51
  -4   1   0   14.27    0.53
  -4   1   0   15.21    0.49
  -4   1   0   14.91    0.51
  -4   1   0   15.27    0.49
   3  -1   0    5.84    0.23
   3  -1   0    6.45    0.25
   3  -1   0    6.21    0.24
  -3   1   0    6.00    0.24
  -3   1   0    5.88    0.23
  -3   1   0    6.46    0.26
  -3   1   0    5.51    0.23
  -3   1   0    6.29    0.27
   2  -1   0   66.90    1.64
   2  -1   0   66.78    1.59
   2  -1   0   69.48    1.64
  -2   1   0   70.01    1.57
  -2   1   0   69.86    1.59
  -2   1   0   70.58    1.62
  -2   1   0   67.15    1.65
  -2   1   0   67.90    1.66
   1  -1   0  126.72    2.92
   1  -1   0  126.87    2.84
   1  -1   0  127.14    2.96
  -1   1   0  129.05    2.79
  -1   1   0  128.51    2.84
  -1   1   0  130.41    2.92
  -1   1   0  131.27    2.87
  -1   1   0  122.24    2.93
  -1   1   0  124.50    2.96
   0  -1   0  162.33    3.80
  -1  -1   0  164.83    3.93
  -1  -1   0  163.55    3.78
   1   1   0  177.61    3.68
   1   1   0  170.24    3.85
  -2  -1   0  132.88    3.23
  -2  -1   0  143.16    3.02
  -2  -1   0  135.95    3.11
  -2  -1   0  135.31    3.09
   2   1   0  135.22    3.20
   2   1   0  134.88    3.15
  -3  -1   0    1.27    0.13
  -3  -1   0    1.35    0.11
  -3  -1   0    1.37    0.11
  -3  -1   0    1.39    0.11
  -3  -1   0    1.29    0.13
   3   1   0    1.43    0.12
   3   1   0    1.37    0.11
  -4  -1   0   99.48    2.41
  -4  -1   0   97.62    2.30
  -4  -1   0   99.02    2.47
  -4  -1   0   99.85    2.38
  -4  -1   0   97.15    2.34
   4   1   0   96.16    2.45
   4   1   0   97.30    2.40
   4   1   0  101.58    2.47
  -5  -1   0    1.13    0.17
  -5  -1   0    1.10    0.15
  -5  -1   0    0.84    0.14
  -5  -1   0    1.13    0.16
   5   1   0    1.27    0.17
   5   1   0    1.27    0.18
   5   1   0    1.06    0.16
   5   1   0    1.19    0.16
  -6  -1   0    1.48    0.18
  -6  -1   0    1.67    0.21
  -6  -1   0    1.46    0.22
  -6  -1   0    1.54    0.20
  -6  -1   0    1.55    0.19
   6   1   0    1.50    0.20
   6   1   0    1.66    0.21
   6   1   0    1.47    0.21
   6   1   0    1.35    0.20
  -7  -1   0    0.49    0.15
  -7  -1   0    0.91    0.19
   7   1   0    0.66    0.16
   7   1   0    0.63    0.16
   7   1   0    0.54    0.18
   7   1   0    0.38    0.13
   7  -2   0    0.31    0.14
  -7   2   0    0.72    0.18
  -7   2   0    0.71    0.16
  -7   2   0    0.56    0.15
   6  -2   0   -0.01    0.08
   6  -2   0    0.03    0.06
   6  -2   0    0.01    0.07
  -6   2   0   -0.04    0.07
  -6   2   0   -0.01    0.07
  -6   2   0   -0.06    0.06
  -6   2   0   -0.04    0.06
   5  -2   0    1.40    0.16
   5  -2   0    1.63    0.17
   5  -2   0    1.75    0.17
  -5   2   0    1.41    0.16
  -5   2   0    1.41    0.17
  -5   2   0    1.32    0.18
  -5   2   0    1.73    0.22
  -5   2   0    1.58    0.17
   4  -2   0   15.93    0.51
   4  -2   0   16.37    0.51
   4  -2   0   16.55    0.51
  -4   2   0   16.65    0.51
  -4   2   0   16.81    0.51
  -4   2   0   16.47    0.55
  -4   2   0   15.65    0.57
  -4   2   0   15.83    0.52
   3  -2   0   17.77    0.49
   3  -2   0   17.82    0.50
   3  -2   0   17.77    0.50
  -3   2   0   16.54    0.49
  -3   2   0   17.12    0.55
  -3   2   0   17.11    0.54
  -3   2   0   17.12    0.51
  -3   2   0   17.53    0.49
   2  -2   0    0.09    0.03
   2  -2   0    0.08    0.03
   2  -2   0    0.12    0.03
  -2   2   0    0.03    0.03
  -2   2   0    0.08    0.03
  -2   2   0    0.04    0.03
  -2   2   0    0.06    0.03
  -2   2   0    0.07    0.03
  -2   2   0    0.08    0.03
   1  -2   0    0.04    0.01
   1  -2   0    0.01    0.01
   1  -2   0    0.03    0.01
  -1   2   0    0.02    0.02
  -1   2   0    0.04    0.01
  -1   2   0    0.01    0.02
   0  -2   0   91.61    2.03
   0  -2   0   86.90    2.11
   0   2   0   92.40    2.09
  -1  -2   0    6.52    0.21
  -1  -2   0    6.41    0.22
   1   2   0    6.13    0.19
  -2  -2   0    3.94    0.19
  -2  -2   0    3.92    0.17
   2   2   0    4.12    0.15
  -3  -2   0   27.64    0.79
  -3  -2   0   29.45    0.75
  -3  -2   0   29.10    0.74
  -3  -2   0   28.88    0.83
   3   2   0   28.61    0.83
   3   2   0   28.26    0.76
  -4  -2   0    4.98    0.23
  -4  -2   0    4.64    0.23
  -4  -2   0    4.93    0.28
  -4  -2   0    4.86    0.18
  -4  -2   0    4.76    0.26
   4   2   0    5.05    0.24
   4   2   0    4.94    0.27
  -5  -2   0   20.34    0.69
  -5  -2   0   21.16    0.64
  -5  -2   0   21.56    0.73
  -5  -2   0   20.14    0.63
  -5  -2   0   19.90    0.53
   5   2   0   20.38    0.71
   5   2   0   20.10    0.65
   5   2   0   19.69    0.71
  -6  -2   0   -0.08    0.06
  -6  -2   0   -0.03    0.07
  -6  -2   0   -0.10    0.08
  -6  -2   0   -0.07    0.06
   6   2   0   -0.05    0.08
   6   2   0    0.04    0.08
   6   2   0    0.02    0.09
   6   2   0    0.05    0.08
  -7  -2   0    2.28    0.30
  -7  -2   0    1.71    0.24
   7   2   0    2.08    0.29
   7   2   0    1.83    0.26
   7   2   0    2.16    0.27
   7  -3   0    2.28    0.30
  -7   3   0    2.07    0.29
  -7   3   0    1.83    0.25
  -7   3   0    1.60    0.22
  -6   3   0    0.89    0.17
  -6   3   0    0.97    0.18
  -6   3   0    1.15    0.18
  -6   3   0    0.89    0.14
   5  -3   0   15.57    0.52
   5  -3   0   14.94    0.51
  -5   3   0   15.10    0.58
  -5   3   0   16.02    0.62
  -5   3   0   15.79    0.51
  -5   3   0   15.71    0.51
  -5   3   0   14.27    0.54
   4  -3   0    3.81    0.18
   4  -3   0    3.94    0.19
   4  -3   0    3.91    0.19
  -4   3   0    3.86    0.23
  -4   3   0    3.56    0.24
  -4   3   0    3.91    0.20
  -4   3   0    3.77    0.22
  -4   3   0    3.83    0.19
   3  -3   0   11.28    0.35
   3  -3   0   12.23    0.36
   3  -3   0   11.78    0.34
  -3   3   0   11.43    0.41
  -3   3   0   11.06    0.39
  -3   3   0   11.57    0.43
   2  -3   0  102.73    2.34
   2  -3   0  106.45    2.39
   2  -3   0  101.72    2.40
  -2   3   0  102.17    2.42
  -2   3   0   98.43    2.46
  -2   3   0  104.49    2.34
  -2   3   0  104.09    2.40
   1  -3   0    8.62    0.23
   1  -3   0    8.74    0.24
   1  -3   0    8.52    0.24
  -1   3   0    8.43    0.28
  -1   3   0    8.59    0.24
  -1   3   0    8.67    0.29
   0  -3   0   65.47    1.50
   0  -3   0   63.85    1.55
   0   3   0   65.56    1.54
   0   3   0   65.39    1.51
  -1  -3   0    0.03    0.03
  -1  -3   0    0.03    0.03
   1   3   0    0.01    0.02
   1   3   0    0.02    0.02
  -2  -3   0   60.66    1.52
  -2  -3   0   63.85    1.59
   2   3   0   64.21    1.47
   2   3   0   62.37    1.50
  -3  -3   0   29.32    0.86
  -3  -3   0   28.89    0.82
   3   3   0   30.35    0.76
   3   3   0   29.48    0.78
  -4  -3   0   15.97    0.57
  -4  -3   0   17.73    0.61
  -4  -3   0   16.62    0.48
   4   3   0   16.61    0.52
   4   3   0   16.95    0.61
  -5  -3   0    5.02    0.21
  -5  -3   0    4.95    0.25
  -5  -3   0    5.13    0.30
  -5  -3   0    5.58    0.34
   5   3   0    5.41    0.33
   5   3   0    5.82    0.34
   5   3   0    5.18    0.27
  -6  -3   0    0.35    0.14
  -6  -3   0    0.44    0.06
  -6  -3   0    0.56    0.14
   6   3   0    0.32    0.12
   6   3   0    0.36    0.11
   6   3   0    0.34    0.13
  -7  -3   0    1.33    0.21
  -7  -3   0    1.62    0.26
   7   3   0    1.31    0.23
   7   3   0    1.51    0.24
   7   3   0    1.25    0.23
  -7   4   0    1.04    0.22
  -7   4   0    1.12    0.21
  -7   4   0    0.99    0.19
  -6   4   0   -0.03    0.07
  -6   4   0    0.06    0.09
  -6   4   0    0.04    0.09
   5  -4   0    1.61    0.16
  -5   4   0    1.57    0.19
  -5   4   0    1.38    0.19
  -5   4   0    1.53    0.21
   4  -4   0    6.05    0.24
   4  -4   0    5.89    0.25
   4  -4   0    5.95    0.23
  -4   4   0    5.69    0.32
  -4   4   0    6.31    0.30
  -4   4   0    6.13    0.32
   3  -4   0   18.39    0.51
   3  -4   0   17.67    0.48
   3  -4   0   18.68    0.50
  -3   4   0   18.27    0.61
  -3   4   0   19.12    0.57
  -3   4   0   18.97    0.60
   2  -4   0    4.02    0.16
   2  -4   0    4.01    0.15
   2  -4   0    4.13    0.14
  -2   4   0    3.94    0.19
  -2   4   0    4.33    0.16
  -2   4   0    4.30    0.22
  -2   4   0    3.99    0.21
   1  -4   0    0.02    0.02
   1  -4   0    0.01    0.02
   1  -4   0    0.01    0.02
  -1   4   0   -0.02    0.03
  -1   4   0    0.01    0.02
  -1   4   0   -0.02    0.03
   0  -4   0    4.95    0.18
   0  -4   0    5.05    0.19
   0   4   0    5.04    0.20
   0   4   0    4.87    0.19
  -1  -4   0    3.36    0.16
  -1  -4   0    3.31    0.17
   1   4   0    3.15    0.14
   1   4   0    3.18    0.14
  -2  -4   0   18.10    0.58
  -2  -4   0   18.59    0.56
   2   4   0   18.66    0.50
   2   4   0   18.92    0.51
  -3  -4   0   12.73    0.45
  -3  -4   0   12.16    0.46
   3   4   0   12.40    0.39
   3   4   0   12.41    0.38
  -4  -4   0   -0.02    0.06
  -4  -4   0    0.06    0.05
  -4  -4   0    0.10    0.07
   4   4   0    0.03    0.05
   4   4   0   -0.03    0.07
   4   4   0    0.15    0.06
  -5  -4   0    2.62    0.29
  -5  -4   0    1.88    0.22
   5   4   0    2.35    0.18
   5   4   0    2.03    0.18
   5   4   0    1.90    0.24
  -6  -4   0    0.06    0.11
  -6  -4   0    0.05    0.08
   6   4   0   -0.01    0.09
   6   4   0    0.10    0.11
  -7  -4   0    0.12    0.11
  -7  -4   0    0.28    0.16
   7   4   0    0.37    0.17
   7   4   0    0.14    0.11
   7   4   0    0.45    0.16
  -7   5   0    0.02    0.11
  -7   5   0    0.02    0.12
  -7   5   0   -0.06    0.10
  -6   5   0    0.29    0.13
  -6   5   0    0.41    0.13
  -6   5   0    0.54    0.17
  -5   5   0    1.91    0.24
  -5   5   0    1.81    0.24
  -5   5   0    1.52    0.19
   4  -5   0    4.21    0.20
  -4   5   0    4.81    0.27
  -4   5   0    4.39    0.28
  -4   5   0    4.53    0.29
   3  -5   0   12.04    0.33
   3  -5   0   12.06    0.35
   3  -5   0   11.66    0.36
  -3   5   0   11.94    0.43
  -3   5   0   11.06    0.44
  -3   5   0   11.23    0.45
   2  -5   0   66.39    1.58
   2  -5   0   67.20    1.60
   2  -5   0   67.27    1.59
  -2   5   0   67.23    1.68
  -2   5   0   68.42    1.72
   1  -5   0    4.46    0.17
   1  -5   0    4.55    0.17
   1  -5   0    4.38    0.17
  -1   5   0    4.27    0.21
  -1   5   0    4.58    0.22
   0  -5   0   31.33    0.84
   0  -5   0   32.03    0.82
   0   5   0   33.22    0.84
   0   5   0   32.21    0.85
  -1  -5   0    0.18    0.05
  -1  -5   0    0.14    0.05
   1   5   0    0.19    0.05
   1   5   0    0.21    0.05
  -2  -5   0    1.92    0.16
  -2  -5   0    1.83    0.14
   2   5   0    2.02    0.12
   2   5   0    1.81    0.12
  -3  -5   0   11.86    0.44
  -3  -5   0   11.15    0.46
   3   5   0   11.77    0.38
   3   5   0   11.22    0.36
  -4  -5   0    0.67    0.13
  -4  -5   0    0.61    0.14
   4   5   0    0.55    0.09
   4   5   0    0.76    0.10
  -5  -5   0   11.79    0.53
  -5  -5   0   10.58    0.49
   5   5   0   10.29    0.40
   5   5   0   10.60    0.39
   5   5   0   10.29    0.51
  -6  -5   0    0.12    0.10
  -6  -5   0    0.01    0.11
   6   5   0    0.05    0.09
   6   5   0    0.07    0.11
  -7  -5   0    4.20    0.43
  -7  -5   0    3.77    0.37
   7   5   0    4.35    0.36
   7   5   0    4.89    0.38
  -6   6   0    1.67    0.26
  -6   6   0    1.70    0.25
  -6   6   0    1.30    0.20
  -5   6   0    9.71    0.46
  -5   6   0   10.09    0.49
  -5   6   0   10.55    0.53
   4  -6   0    4.71    0.22
  -4   6   0    5.16    0.30
  -4   6   0    4.90    0.32
  -4   6   0    4.99    0.31
   3  -6   0    2.97    0.16
   3  -6   0    3.03    0.14
  -3   6   0    3.01    0.23
  -3   6   0    2.60    0.21
  -3   6   0    2.97    0.21
   2  -6   0    6.34    0.22
   2  -6   0    6.56    0.24
   2  -6   0    6.30    0.21
  -2   6   0    5.85    0.30
  -2   6   0    5.80    0.29
   1  -6   0   13.86    0.43
   1  -6   0   15.28    0.42
  -1   6   0   13.77    0.48
  -1   6   0   14.54    0.48
   0  -6   0   31.09    0.83
   0  -6   0   31.31    0.85
   0   6   0   32.00    0.87
   0   6   0   32.05    0.85
  -1  -6   0   19.48    0.60
  -1  -6   0   19.48    0.59
   1   6   0   19.55    0.56
   1   6   0   19.48    0.57
  -2  -6   0    6.89    0.32
  -2  -6   0    6.34    0.30
   2   6   0    6.69    0.26
   2   6   0    6.34    0.26
  -3  -6   0    2.32    0.24
  -3  -6   0    2.17    0.21
   3   6   0    2.22    0.15
   3   6   0    2.42    0.15
  -4  -6   0   10.42    0.49
  -4  -6   0   10.62    0.46
   4   6   0   10.25    0.38
   4   6   0   10.52    0.37
  -5  -6   0    2.54    0.30
  -5  -6   0    2.12    0.25
   5   6   0    1.90    0.25
  -6  -6   0    0.08    0.10
  -6  -6   0    0.17    0.13
   6   6   0    0.10    0.09
   6   6   0   -0.16    0.10
  -7  -6   0    1.31    0.26
  -7  -6   0    1.06    0.21
   7   6   0    1.79    0.30
  -6   7   0    0.30    0.15
  -6   7   0    0.38    0.15
  -6   7   0    0.50    0.16
  -5   7   0    1.33    0.19
  -5   7   0    1.31    0.22
  -5   7   0    0.87    0.18
  -4   7   0    3.43    0.25
  -4   7   0    3.33    0.28
  -4   7   0    3.64    0.28
   3  -7   0   10.06    0.34
  -3   7   0    9.52    0.41
  -3   7   0   10.47    0.45
  -3   7   0    9.91    0.46
   2  -7   0    0.02    0.04
   2  -7   0    0.02    0.03
  -2   7   0   -0.01    0.05
  -2   7   0    0.01    0.06
   1  -7   0    0.14    0.05
  -1   7   0    0.21    0.07
  -1   7   0    0.32    0.09
   0  -7   0    5.68    0.25
   0  -7   0    5.56    0.25
   0   7   0    5.42    0.27
   0   7   0    5.87    0.27
  -1  -7   0    9.78    0.39
  -1  -7   0   10.25    0.39
   1   7   0    9.57    0.37
   1   7   0   10.47    0.37
  -2  -7   0    0.22    0.09
  -2  -7   0    0.19    0.07
   2   7   0    0.12    0.06
   2   7   0    0.13    0.06
  -3  -7   0    5.30    0.32
  -3  -7   0    4.86    0.29
   3   7   0    5.21    0.25
   3   7   0    5.43    0.25
  -4  -7   0    2.38    0.25
  -4  -7   0    1.94    0.26
   4   7   0    2.31    0.17
   4   7   0    2.03    0.17
  -5  -7   0    1.48    0.22
  -5  -7   0    2.20    0.28
   5   7   0    1.86    0.25
  -6  -7   0    1.06    0.23
  -6  -7   0    1.31    0.22
   6   7   0    0.83    0.19
  -6   8   0    0.06    0.12
  -6   8   0    0.03    0.12
  -6   8   0   -0.02    0.11
  -5   8   0    0.17    0.11
  -5   8   0    0.24    0.14
  -5   8   0    0.28    0.13
  -4   8   0    2.47    0.26
  -4   8   0    2.64    0.29
  -4   8   0    2.19    0.28
  -3   8   0    5.95    0.32
  -3   8   0    4.84    0.32
  -3   8   0    5.71    0.35
   2  -8   0    5.52    0.25
  -2   8   0    4.98    0.31
  -2   8   0    5.80    0.32
   1  -8   0    0.56    0.09
   1  -8   0    0.50    0.09
  -1   8   0    0.32    0.10
  -1   8   0    0.53    0.11
   0  -8   0    2.08    0.16
   0  -8   0    2.17    0.17
   0   8   0    2.27    0.18
   0   8   0    2.08    0.17
  -1  -8   0    1.47    0.17
  -1  -8   0    1.76    0.19
   1   8   0    1.93    0.19
   1   8   0    1.69    0.17
  -2  -8   0    1.61    0.19
  -2  -8   0    1.64    0.20
   2   8   0    1.48    0.16
   2   8   0    1.53    0.16
  -3  -8   0    2.91    0.24
  -3  -8   0    2.81    0.28
   3   8   0    3.10    0.20
   3   8   0    2.88    0.20
  -4  -8   0    0.07    0.11
  -4  -8   0    0.08    0.10
  -5  -8   0    0.29    0.12
  -5  -8   0    0.30    0.15
   5   8   0    0.41    0.13
  -6  -8   0    0.51    0.16
  -6  -8   0    0.19    0.15
  -5   9   0    0.77    0.18
  -5   9   0    0.70    0.19
  -5   9   0    1.38    0.25
  -4   9   0    4.60    0.34
  -4   9   0    4.86    0.35
  -4   9   0    4.67    0.31
  -3   9   0    2.59    0.26
  -3   9   0    2.54    0.28
  -3   9   0    2.22    0.27
   2  -9   0    6.88    0.30
  -2   9   0    6.76    0.38
  -2   9   0    7.06    0.38
   1  -9   0    0.69    0.12
  -1   9   0    0.73    0.15
  -1   9   0    0.61    0.13
   0  -9   0    0.81    0.13
   0  -9   0    1.13    0.15
   0   9   0    0.98    0.15
   0   9   0    1.07    0.16
  -1  -9   0    0.61    0.13
  -1  -9   0    0.48    0.11
   1   9   0    0.66    0.13
   1   9   0    0.47    0.11
  -2  -9   0    2.57    0.26
  -2  -9   0    2.90    0.27
   2   9   0    2.24    0.19
   2   9   0    2.70    0.20
  -3  -9   0   -0.11    0.07
  -3  -9   0   -0.04    0.09
   3   9   0   -0.07    0.06
   3   9   0   -0.09    0.07
  -4  -9   0    0.12    0.11
  -4  -9   0   -0.03    0.08
  -5  -9   0    0.48    0.17
  -5  -9   0    0.29    0.13
   5   9   0    0.15    0.12
  -6  -9   0   -0.03    0.10
  -6  -9   0   -0.08    0.12
  -4  10   0    5.57    0.36
  -4  10   0    5.75    0.40
  -4  10   0    6.17    0.42
  -3  10   0    0.42    0.13
  -3  10   0    0.39    0.14
  -3  10   0    0.48    0.15
  -2  10   0    0.29    0.12
  -2  10   0    0.40    0.13
   1 -10   0    0.57    0.12
  -1  10   0    0.43    0.14
  -1  10   0    0.57    0.15
   0 -10   0    0.03    0.08
   0  10   0    0.08    0.09
   0  10   0   -0.09    0.08
  -1 -10   0   -0.01    0.09
  -1 -10   0    0.06    0.08
   1  10   0   -0.05    0.07
   1  10   0   -0.05    0.08
  -2 -10   0   -0.04    0.10
  -2 -10   0   -0.09    0.07
   2  10   0    0.05    0.09
   2  10   0   -0.01    0.07
  -3 -10   0    3.12    0.31
  -3 -10   0    3.00    0.32
   3  10   0    3.12    0.23
   3  10   0    3.40    0.24
  -4 -10   0    1.27    0.23
  -4 -10   0    0.88    0.19
  -5 -10   0    0.56    0.16
  -5 -10   0    0.51    0.18
  -4  11   0    0.12    0.14
  -4  11   0    0.22    0.13
  -3  11   0    2.61    0.32
  -3  11   0    2.98    0.33
  -3  11   0    2.75    0.29
  -2  11   0    0.39    0.14
  -2  11   0    0.67    0.18
   1 -11   0    3.32    0.25
  -1  11   0    3.32    0.33
  -1  11   0    3.51    0.28
   0 -11   0    0.33    0.12
   0  11   0    0.74    0.17
   0  11   0    0.33    0.12
  -1 -11   0    0.14    0.09
   1  11   0    0.17    0.11
   1  11   0    0.23    0.12
  -2 -11   0    1.03    0.20
  -2 -11   0    1.22    0.20
   2  11   0    1.26    0.19
   2  11   0    1.01    0.17
  -3 -11   0    0.26    0.13
  -3 -11   0    0.21    0.11
  -4 -11   0    0.37    0.14
  -4 -11   0    0.43    0.18
  -3  12   0   -0.09    0.10
  -3  12   0    0.07    0.11
  -2  12   0    0.18    0.13
  -2  12   0    0.08    0.11
  -1  12   0    0.01    0.10
  -1  12   0    0.03    0.10
   0 -12   0    1.53    0.21
   0  12   0    1.38    0.21
   0  12   0    1.37    0.22
  -1 -12   0    0.19    0.11
   1  12   0    0.32    0.12
   1  12   0    0.13    0.11
  -2 -12   0    0.20    0.11
   2  12   0    0.14    0.11
   2  12   0    0.30    0.12
  -3 -12   0    0.08    0.10
  -3 -12   0   -0.04    0.11
  -1  13   0    0.35    0.14
  -1  13   0    0.49    0.16
   0  13   0    0.09    0.12
   0  13   0    0.06    0.11
  -1 -13   0    0.11    0.10
   1  13   0    0.01    0.10
   1  13   0    0.04    0.11
  -2 -13   0    0.25    0.13
  -1 -13   1    0.30    0.13
   0  13  -1    0.36    0.14
   0  13  -1    0.61    0.18
   0 -13   1    0.46    0.15
  -3 -12   1    0.05    0.13
  -3 -12   1    0.04    0.09
   2  12  -1   -0.06    0.08
  -2 -12   1    0.01    0.10
   1  12  -1    0.45    0.14
   1  12  -1    0.54    0.15
  -1 -12   1    0.55    0.15
   0  12  -1    0.05    0.09
   0  12  -1    0.06    0.11
   0 -12   1    0.09    0.10
  -1  12  -1    1.32    0.23
  -1  12  -1    0.98    0.20
  -2  12  -1   -0.01    0.12
  -2  12  -1    0.05    0.10
  -4 -11   1    1.46    0.26
  -4 -11   1    1.41    0.24
   3  11  -1    0.25    0.12
  -3 -11   1    0.35    0.14
  -3 -11   1    0.33    0.15
   2  11  -1    2.59    0.26
  -2 -11   1    2.42    0.28
  -2 -11   1    2.61    0.29
   1  11  -1    5.69    0.34
   1  11  -1    6.30    0.35
  -1 -11   1    5.39    0.34
   0  11  -1    0.48    0.15
   0  11  -1    0.44    0.13
   0 -11   1    0.71    0.15
  -1  11  -1    0.82    0.18
  -1  11  -1    0.89    0.18
   1 -11   1    0.79    0.14
  -2  11  -1    0.54    0.17
  -2  11  -1    0.31    0.13
  -3  11  -1    0.82    0.20
  -3  11  -1    1.06    0.19
  -3  11  -1    0.96    0.20
  -5 -10   1    0.13    0.14
  -5 -10   1    0.00    0.09
  -4 -10   1    6.35    0.43
  -4 -10   1    5.95    0.39
   3  10  -1    0.52    0.13
  -3 -10   1    0.20    0.12
  -3 -10   1    0.31    0.14
   2  10  -1    2.47    0.24
   2  10  -1    2.02    0.22
  -2 -10   1    1.78    0.24
  -2 -10   1    2.11    0.25
   1  10  -1    3.05    0.24
   1  10  -1    3.77    0.26
  -1 -10   1    3.46    0.27
  -1 -10   1    3.13    0.26
   0  10  -1    6.67    0.36
   0  10  -1    7.34    0.38
   0 -10   1    6.49    0.34
  -1  10  -1    2.11    0.24
  -1  10  -1    2.52    0.28
   1 -10   1    2.14    0.22
  -2  10  -1    0.27    0.13
  -2  10  -1    0.64    0.17
   2 -10   1    0.72    0.13
  -3  10  -1    2.42    0.30
  -3  10  -1    2.24    0.28
  -3  10  -1    2.06    0.25
  -4  10  -1    0.13    0.11
  -4  10  -1    0.12    0.13
  -4  10  -1   -0.08    0.09
   6   9  -1    1.60    0.28
  -6  -9   1    1.29    0.23
  -6  -9   1    0.61    0.21
  -5  -9   1    0.07    0.10
  -5  -9   1    0.21    0.14
  -4  -9   1    1.29    0.22
  -4  -9   1    1.08    0.20
   3   9  -1    0.56    0.12
  -3  -9   1    0.44    0.14
  -3  -9   1    0.47    0.13
   2   9  -1    1.41    0.17
   2   9  -1    1.43    0.17
  -2  -9   1    1.55    0.20
  -2  -9   1    1.25    0.19
   1   9  -1    6.31    0.32
   1   9  -1    6.45    0.32
  -1  -9   1    5.81    0.32
  -1  -9   1    6.24    0.33
   0   9  -1    7.21    0.36
   0   9  -1    7.52    0.36
   0  -9   1    7.00    0.34
   0  -9   1    7.24    0.33
  -1   9  -1    3.29    0.25
  -1   9  -1    4.01    0.27
   1  -9   1    3.82    0.23
  -2   9  -1   11.99    0.51
  -2   9  -1   11.97    0.53
   2  -9   1   11.26    0.43
  -3   9  -1    0.24    0.10
  -3   9  -1    0.16    0.11
  -3   9  -1    0.12    0.10
  -4   9  -1    1.27    0.22
  -4   9  -1    1.11    0.19
  -4   9  -1    1.47    0.24
  -5   9  -1   -0.04    0.09
  -5   9  -1    0.08    0.10
  -5   9  -1    0.14    0.13
   6   8  -1    2.50    0.34
  -6  -8   1    2.77    0.33
  -6  -8   1    2.96    0.36
  -5  -8   1    0.15    0.10
  -5  -8   1    0.15    0.13
   4   8  -1   12.32    0.45
  -4  -8   1   11.98    0.56
  -4  -8   1   11.41    0.53
   3   8  -1    3.34    0.21
   3   8  -1    3.84    0.23
  -3  -8   1    3.53    0.26
  -3  -8   1    3.20    0.27
   2   8  -1    0.03    0.06
   2   8  -1   -0.01    0.05
  -2  -8   1   -0.03    0.07
  -2  -8   1    0.01    0.06
   1   8  -1   12.44    0.45
   1   8  -1   12.21    0.45
  -1  -8   1   11.78    0.46
  -1  -8   1   12.04    0.46
   0   8  -1   12.24    0.47
   0   8  -1   11.91    0.46
   0  -8   1   12.35    0.44
   0  -8   1   12.30    0.44
  -1   8  -1   11.57    0.45
  -1   8  -1   10.74    0.46
   1  -8   1   11.01    0.40
  -2   8  -1    1.67    0.21
  -2   8  -1    1.76    0.21
   2  -8   1    2.06    0.16
  -3   8  -1    9.86    0.47
  -3   8  -1   10.15    0.47
  -3   8  -1    9.60    0.42
   3  -8   1    9.49    0.36
  -4   8  -1    0.04    0.09
  -4   8  -1    0.16    0.11
  -4   8  -1    0.07    0.09
  -5   8  -1    0.37    0.15
  -5   8  -1    0.12    0.11
  -5   8  -1    0.13    0.11
  -6   8  -1    0.95    0.23
  -6   8  -1    1.44    0.26
   6   7  -1    0.75    0.21
   6   7  -1    0.82    0.19
  -6  -7   1    0.82    0.20
  -6  -7   1    1.21    0.21
  -5  -7   1    0.34    0.14
  -5  -7   1    0.56    0.14
   4   7  -1    2.12    0.17
  -4  -7   1    2.19    0.27
  -4  -7   1    2.36    0.26
   3   7  -1    0.08    0.06
   3   7  -1    0.00    0.05
  -3  -7   1   -0.06    0.07
  -3  -7   1    0.07    0.07
   2   7  -1    3.90    0.21
   2   7  -1    3.67    0.21
  -2  -7   1    4.00    0.26
  -2  -7   1    4.08    0.25
   1   7  -1    0.91    0.12
   1   7  -1    1.26    0.13
  -1  -7   1    1.01    0.14
  -1  -7   1    1.00    0.13
   0   7  -1    3.24    0.20
   0   7  -1    3.34    0.20
   0  -7   1    3.44    0.20
   0  -7   1    3.63    0.19
  -1   7  -1    3.74    0.23
  -1   7  -1    3.94    0.24
   1  -7   1    3.75    0.20
   1  -7   1    4.04    0.18
  -2   7  -1    0.02    0.06
  -2   7  -1    0.14    0.07
   2  -7   1   -0.01    0.04
   2  -7   1    0.05    0.04
  -3   7  -1    2.42    0.25
  -3   7  -1    2.39    0.22
  -3   7  -1    2.38    0.25
   3  -7   1    2.56    0.16
  -4   7  -1    0.98    0.19
  -4   7  -1    0.86    0.15
  -4   7  -1    1.14    0.18
  -5   7  -1   -0.06    0.07
  -5   7  -1    0.01    0.07
  -5   7  -1   -0.02    0.08
  -6   7  -1    0.41    0.14
  -6   7  -1    0.16    0.13
  -6   7  -1    0.60    0.19
   7   6  -1    0.09    0.14
  -7  -6   1    0.00    0.13
  -7  -6   1    0.25    0.14
   6   6  -1   -0.01    0.09
   6   6  -1    0.10    0.12
  -6  -6   1   -0.03    0.07
  -6  -6   1    0.01    0.11
   5   6  -1    0.63    0.12
  -5  -6   1    0.78    0.18
  -5  -6   1    0.76    0.15
   4   6  -1   16.52    0.52
   4   6  -1   16.58    0.52
  -4  -6   1   16.45    0.65
  -4  -6   1   15.78    0.61
   3   6  -1    3.90    0.21
   3   6  -1    4.12    0.20
  -3  -6   1    3.90    0.25
  -3  -6   1    3.95    0.27
   2   6  -1    8.72    0.31
   2   6  -1    8.40    0.32
  -2  -6   1    9.00    0.38
  -2  -6   1    8.43    0.35
   1   6  -1   16.20    0.50
   1   6  -1   16.60    0.50
  -1  -6   1   16.46    0.53
  -1  -6   1   16.05    0.52
   0   6  -1    2.73    0.17
   0   6  -1    2.74    0.17
   0  -6   1    2.53    0.15
   0  -6   1    2.83    0.16
  -1   6  -1    2.33    0.17
  -1   6  -1    2.17    0.16
   1  -6   1    1.97    0.13
   1  -6   1    2.44    0.12
  -2   6  -1    0.09    0.06
  -2   6  -1   -0.06    0.04
   2  -6   1    0.01    0.03
   2  -6   1    0.02    0.03
  -3   6  -1   34.10    0.95
  -3   6  -1   34.00    1.03
  -3   6  -1   33.35    1.00
   3  -6   1   34.06    0.88
   3  -6   1   34.22    0.88
  -4   6  -1    7.83    0.41
  -4   6  -1    7.42    0.36
  -4   6  -1    7.90    0.40
   4  -6   1    7.75    0.30
  -5   6  -1    0.01    0.08
  -5   6  -1   -0.03    0.08
  -5   6  -1    0.04    0.08
  -6   6  -1    0.13    0.11
  -6   6  -1    0.10    0.13
  -6   6  -1    0.26    0.12
   7   5  -1   -0.02    0.13
  -7  -5   1    0.24    0.13
  -7  -5   1    0.09    0.14
   6   5  -1    1.34    0.21
   6   5  -1    1.97    0.28
  -6  -5   1    1.78    0.24
  -6  -5   1    2.25    0.29
   5   5  -1    0.07    0.09
   5   5  -1    0.20    0.08
   5   5  -1    0.02    0.11
  -5  -5   1    0.08    0.10
  -5  -5   1    0.02    0.08
   4   5  -1    3.05    0.17
   4   5  -1    3.21    0.19
  -4  -5   1    2.92    0.22
  -4  -5   1    3.22    0.26
   3   5  -1    3.65    0.18
   3   5  -1    3.38    0.17
  -3  -5   1    3.42    0.22
  -3  -5   1    3.46    0.24
   2   5  -1    6.65    0.24
   2   5  -1    6.86    0.25
  -2  -5   1    6.30    0.30
  -2  -5   1    6.78    0.29
   1   5  -1    8.30    0.29
   1   5  -1    8.80    0.30
  -1  -5   1    7.82    0.30
  -1  -5   1    8.47    0.32
   0   5  -1    4.52    0.20
   0   5  -1    4.18    0.19
   0  -5   1    3.95    0.18
   0  -5   1    4.05    0.18
  -1   5  -1   13.65    0.46
  -1   5  -1   14.89    0.48
   1  -5   1   14.71    0.42
   1  -5   1   14.48    0.40
   1  -5   1   14.60    0.42
  -2   5  -1   14.52    0.49
  -2   5  -1   15.13    0.52
   2  -5   1   14.55    0.38
   2  -5   1   14.42    0.43
   2  -5   1   15.58    0.42
  -3   5  -1   10.15    0.42
  -3   5  -1    8.96    0.36
  -3   5  -1    8.93    0.38
   3  -5   1    9.13    0.31
   3  -5   1    8.79    0.29
  -4   5  -1    1.20    0.17
  -4   5  -1    1.09    0.18
  -4   5  -1    1.19    0.16
   4  -5   1    1.14    0.13
   4  -5   1    1.25    0.11
  -5   5  -1    0.16    0.09
  -5   5  -1    0.05    0.07
  -5   5  -1   -0.01    0.09
   5  -5   1    0.05    0.06
  -6   5  -1    1.31    0.20
  -6   5  -1    1.26    0.23
  -6   5  -1    1.21    0.21
  -7   5  -1    2.39    0.33
  -7   5  -1    2.10    0.29
   7   4  -1   -0.03    0.10
   7   4  -1    0.20    0.16
  -7  -4   1   -0.06    0.12
  -7  -4   1    0.03    0.09
   6   4  -1   -0.05    0.08
   6   4  -1    0.25    0.13
  -6  -4   1    0.21    0.11
  -6  -4   1    0.23    0.12
   5   4  -1   -0.04    0.06
   5   4  -1   -0.10    0.06
   5   4  -1   -0.06    0.07
   5   4  -1   -0.04    0.10
  -5  -4   1    0.02    0.09
  -5  -4   1   -0.08    0.05
   4   4  -1    4.69    0.23
   4   4  -1    5.24    0.22
  -4  -4   1    5.04    0.28
  -4  -4   1    4.50    0.29
  -4  -4   1    4.92    0.23
   3   4  -1    0.05    0.04
   3   4  -1    0.02    0.04
  -3  -4   1    0.06    0.05
  -3  -4   1    0.03    0.04
  -3  -4   1    0.12    0.07
   2   4  -1    4.41    0.17
   2   4  -1    4.37    0.18
  -2  -4   1    4.51    0.23
  -2  -4   1    4.60    0.22
   1   4  -1    3.11    0.14
   1   4  -1    2.99    0.14
  -1  -4   1    3.37    0.16
  -1  -4   1    2.83    0.16
   0   4  -1    2.28    0.13
   0   4  -1    2.25    0.13
   0  -4   1    2.21    0.12
   0  -4   1    2.31    0.12
  -1   4  -1   11.49    0.38
  -1   4  -1   10.93    0.36
   1  -4   1   10.97    0.33
   1  -4   1   11.42    0.33
   1  -4   1   11.52    0.31
  -2   4  -1    7.23    0.31
  -2   4  -1    7.12    0.30
   2  -4   1    7.72    0.24
   2  -4   1    7.20    0.24
  -3   4  -1    3.55    0.21
  -3   4  -1    3.52    0.23
  -3   4  -1    3.83    0.20
   3  -4   1    3.62    0.13
   3  -4   1    3.86    0.18
   3  -4   1    3.94    0.17
  -4   4  -1    1.22    0.15
  -4   4  -1    1.11    0.16
  -4   4  -1    0.98    0.16
   4  -4   1    1.19    0.12
   4  -4   1    1.11    0.12
  -5   4  -1   -0.01    0.07
  -5   4  -1    0.09    0.09
  -5   4  -1   -0.04    0.07
   5  -4   1    0.03    0.06
  -6   4  -1    0.24    0.11
  -6   4  -1    0.59    0.13
  -6   4  -1    0.33    0.14
  -7   4  -1   -0.02    0.09
  -7   4  -1    0.09    0.12
   7  -4   1   -0.07    0.12
   7   3  -1    0.27    0.15
   7   3  -1    0.59    0.18
   7   3  -1    0.22    0.12
  -7  -3   1    0.48    0.18
  -7  -3   1    0.15    0.12
   6   3  -1    1.99    0.26
   6   3  -1    2.17    0.26
  -6  -3   1    1.98    0.26
  -6  -3   1    1.73    0.19
  -6  -3   1    2.68    0.27
   5   3  -1    0.29    0.11
   5   3  -1    0.47    0.14
   5   3  -1    0.49    0.10
  -5  -3   1    0.58    0.10
  -5  -3   1    0.63    0.16
  -5  -3   1    0.48    0.08
  -5  -3   1    0.27    0.10
   4   3  -1    0.02    0.08
   4   3  -1    0.10    0.05
  -4  -3   1    0.00    0.07
  -4  -3   1   -0.08    0.04
  -4  -3   1    0.00    0.04
   3   3  -1    8.12    0.28
   3   3  -1    8.21    0.27
  -3  -3   1    7.89    0.32
  -3  -3   1    7.62    0.34
  -3  -3   1    7.55    0.28
   2   3  -1   23.58    0.61
   2   3  -1   23.98    0.60
  -2  -3   1   22.23    0.64
  -2  -3   1   23.16    0.68
  -2  -3   1   23.44    0.64
   1   3  -1   48.81    1.15
   1   3  -1   50.14    1.15
  -1  -3   1   47.34    1.17
  -1  -3   1   47.22    1.21
   0   3  -1    6.16    0.20
   0   3  -1    6.04    0.20
   0  -3   1    5.87    0.20
   0  -3   1    5.79    0.19
  -1   3  -1   97.63    2.35
  -1   3  -1   98.14    2.31
  -1   3  -1  102.80    2.32
   1  -3   1   97.98    2.26
   1  -3   1  102.91    2.32
   1  -3   1   98.03    2.30
  -2   3  -1    1.04    0.11
  -2   3  -1    1.22    0.09
  -2   3  -1    1.01    0.12
   2  -3   1    1.10    0.05
   2  -3   1    1.14    0.08
   2  -3   1    0.96    0.08
  -3   3  -1    0.50    0.10
  -3   3  -1    0.73    0.12
  -3   3  -1    0.51    0.09
  -3   3  -1    0.38    0.05
   3  -3   1    0.49    0.07
   3  -3   1    0.53    0.06
   3  -3   1    0.59    0.08
  -4   3  -1    0.84    0.12
  -4   3  -1    0.80    0.14
  -4   3  -1    0.59    0.11
  -4   3  -1    0.72    0.09
  -4   3  -1    0.73    0.10
   4  -3   1    0.65    0.10
   4  -3   1    0.84    0.10
   4  -3   1    0.78    0.10
  -5   3  -1    6.05    0.36
  -5   3  -1    6.36    0.34
  -5   3  -1    6.62    0.30
  -5   3  -1    5.76    0.31
   5  -3   1    5.92    0.28
   5  -3   1    6.51    0.29
  -6   3  -1    6.98    0.34
  -6   3  -1    6.81    0.41
  -6   3  -1    6.87    0.36
  -6   3  -1    6.94    0.38
   6  -3   1    6.72    0.33
  -7   3  -1    1.70    0.27
  -7   3  -1    1.00    0.20
   7  -3   1    1.37    0.25
   7   2  -1    0.60    0.19
   7   2  -1    0.56    0.15
   7   2  -1    0.44    0.15
  -7  -2   1    0.29    0.13
  -7  -2   1    0.43    0.13
  -7  -2   1    0.54    0.17
   6   2  -1   -0.09    0.07
   6   2  -1   -0.01    0.09
   6   2  -1    0.02    0.07
   6   2  -1   -0.03    0.06
  -6  -2   1    0.02    0.07
  -6  -2   1    0.00    0.07
  -6  -2   1   -0.04    0.07
  -6  -2   1   -0.17    0.07
   5   2  -1    0.67    0.15
   5   2  -1    0.99    0.14
   5   2  -1    0.61    0.14
  -5  -2   1    0.60    0.12
  -5  -2   1    0.56    0.13
  -5  -2   1    0.81    0.13
  -5  -2   1    0.77    0.16
   4   2  -1    0.23    0.09
   4   2  -1    0.29    0.11
   4   2  -1    0.52    0.09
  -4  -2   1    0.44    0.09
  -4  -2   1    0.40    0.09
  -4  -2   1    0.48    0.06
  -4  -2   1    0.47    0.12
  -4  -2   1    0.33    0.09
   3   2  -1   11.09    0.35
  -3  -2   1   11.18    0.39
  -3  -2   1   11.01    0.33
  -3  -2   1   11.16    0.36
  -3  -2   1   11.31    0.36
  -3  -2   1   11.41    0.42
   2   2  -1    0.15    0.03
  -2  -2   1    0.16    0.05
  -2  -2   1    0.08    0.04
  -2  -2   1    0.13    0.03
   1   2  -1    0.41    0.03
   1   2  -1    0.40    0.05
  -1  -2   1    0.40    0.05
  -1  -2   1    0.39    0.06
   0   2  -1    0.14    0.03
   0   2  -1    0.16    0.03
   0   2  -1    0.16    0.03
   0   2  -1    0.31    0.05
   0  -2   1    0.16    0.03
   0  -2   1    0.19    0.03
   0  -2   1    0.20    0.03
  -1   2  -1    5.75    0.19
  -1   2  -1    5.79    0.20
  -1   2  -1    5.55    0.20
   1  -2   1    5.34    0.17
   1  -2   1    5.95    0.17
  -2   2  -1    4.14    0.19
  -2   2  -1    4.12    0.18
  -2   2  -1    4.23    0.16
  -2   2  -1    4.20    0.14
  -2   2  -1    4.25    0.17
   2  -2   1    4.11    0.14
   2  -2   1    4.23    0.16
   2  -2   1    3.97    0.16
  -3   2  -1    8.95    0.31
  -3   2  -1    8.36    0.30
  -3   2  -1    8.27    0.32
  -3   2  -1    8.53    0.28
  -3   2  -1    8.74    0.35
  -3   2  -1    9.19    0.29
   3  -2   1    7.93    0.29
   3  -2   1    8.64    0.30
   3  -2   1    9.19    0.28
  -4   2  -1    9.53    0.35
  -4   2  -1    8.86    0.33
  -4   2  -1    9.47    0.40
  -4   2  -1    9.23    0.35
  -4   2  -1    8.77    0.37
   4  -2   1    9.29    0.34
   4  -2   1    9.45    0.35
   4  -2   1    8.99    0.33
  -5   2  -1    3.38    0.22
  -5   2  -1    3.23    0.22
  -5   2  -1    3.70    0.27
  -5   2  -1    3.53    0.24
  -5   2  -1    3.53    0.22
   5  -2   1    3.40    0.22
   5  -2   1    3.37    0.22
   5  -2   1    3.15    0.21
  -6   2  -1    0.68    0.14
  -6   2  -1    0.49    0.12
  -6   2  -1    0.53    0.15
  -6   2  -1    0.68    0.13
   6  -2   1    0.78    0.17
   6  -2   1    0.64    0.13
   6  -2   1    0.51    0.12
  -7   2  -1    0.73    0.18
  -7   2  -1    0.90    0.16
  -7   2  -1    1.55    0.22
   7  -2   1    1.01    0.21
   7   1  -1    0.03    0.10
   7   1  -1    0.00    0.12
   7   1  -1    0.12    0.11
  -7  -1   1    0.00    0.09
  -7  -1   1   -0.04    0.12
  -7  -1   1   -0.05    0.10
  -7  -1   1   -0.08    0.09
   6   1  -1    0.38    0.12
   6   1  -1    0.37    0.12
   6   1  -1    0.61    0.16
   6   1  -1    0.54    0.13
  -6  -1   1    0.48    0.12
  -6  -1   1    0.45    0.12
  -6  -1   1    0.30    0.13
  -6  -1   1    0.25    0.10
   5   1  -1    0.46    0.12
   5   1  -1    0.37    0.11
   5   1  -1    0.24    0.10
   5   1  -1    0.26    0.12
  -5  -1   1    0.18    0.09
  -5  -1   1    0.30    0.10
  -5  -1   1    0.21    0.11
  -5  -1   1    0.29    0.10
   4   1  -1    2.21    0.18
   4   1  -1    1.89    0.15
   4   1  -1    2.08    0.20
  -4  -1   1    1.98    0.20
  -4  -1   1    1.95    0.18
  -4  -1   1    1.80    0.18
  -4  -1   1    1.94    0.18
   3   1  -1    0.23    0.06
   3   1  -1    0.07    0.05
  -3  -1   1    0.18    0.03
  -3  -1   1    0.20    0.06
  -3  -1   1    0.11    0.06
  -3  -1   1    0.17    0.05
  -3  -1   1    0.24    0.06
  -3  -1   1    0.14    0.05
   2   1  -1  173.15    4.08
   2   1  -1  174.44    3.97
  -2  -1   1  171.32    3.97
  -2  -1   1  177.77    3.83
  -2  -1   1  166.66    4.08
  -2  -1   1  172.48    3.91
  -2  -1   1  171.69    3.91
  -2  -1   1  175.90    4.00
  -1  -1   1    0.14    0.03
  -1  -1   1    0.11    0.03
  -1  -1   1    0.11    0.03
   0   1  -1    0.41    0.04
   0   1  -1    0.47    0.03
   0   1  -1    0.31    0.03
   0  -1   1    0.40    0.03
   0  -1   1    0.44    0.03
   0  -1   1    0.44    0.03
  -1   1  -1    2.11    0.09
  -1   1  -1    2.19    0.09
  -1   1  -1    2.24    0.11
  -1   1  -1    2.16    0.07
   1  -1   1    2.08    0.09
   1  -1   1    2.18    0.09
  -2   1  -1   58.22    1.37
  -2   1  -1   58.16    1.36
  -2   1  -1   58.14    1.32
  -2   1  -1   55.27    1.38
  -2   1  -1   57.34    1.42
  -2   1  -1   57.33    1.36
   2  -1   1   56.89    1.39
   2  -1   1   57.13    1.35
   2  -1   1   57.72    1.38
  -3   1  -1   20.52    0.57
  -3   1  -1   20.31    0.58
  -3   1  -1   20.10    0.62
  -3   1  -1   19.89    0.51
  -3   1  -1   20.18    0.57
  -3   1  -1   21.00    0.56
   3  -1   1   20.25    0.58
   3  -1   1   19.73    0.56
   3  -1   1   19.60    0.57
  -4   1  -1    1.32    0.14
  -4   1  -1    1.27    0.14
  -4   1  -1    1.10    0.14
  -4   1  -1    1.11    0.16
   4  -1   1    0.90    0.13
   4  -1   1    1.11    0.13
   4  -1   1    1.23    0.13
  -5   1  -1    3.34    0.23
  -5   1  -1    3.36    0.23
  -5   1  -1    3.28    0.21
  -5   1  -1    3.62    0.26
  -5   1  -1    3.31    0.23
   5  -1   1    3.21    0.22
   5  -1   1    2.94    0.21
   5  -1   1    3.25    0.22
   5  -1   1    3.33    0.24
  -6   1  -1    0.46    0.11
  -6   1  -1    0.37    0.11
  -6   1  -1    0.38    0.11
  -6   1  -1    0.44    0.14
  -6   1  -1    0.51    0.12
   6  -1   1    0.52    0.12
   6  -1   1    0.46    0.11
   6  -1   1    0.29    0.10
   6  -1   1    0.29    0.13
  -7   1  -1    0.15    0.11
  -7   1  -1    0.17    0.12
  -7   1  -1    0.04    0.09
   7  -1   1   -0.12    0.10
   7  -1   1   -0.05    0.09
   7   0  -1    1.63    0.23
   7   0  -1    2.13    0.26
   7   0  -1    1.93    0.23
   7   0  -1    1.75    0.25
  -7   0   1    1.93    0.23
  -7   0   1    1.53    0.22
  -7   0   1    1.86    0.26
  -7   0   1    1.65    0.23
  -7   0   1    1.42    0.21
   6   0  -1    0.39    0.12
   6   0  -1    0.22    0.11
   6   0  -1    0.21    0.10
   6   0  -1    0.32    0.11
  -6   0   1    0.43    0.12
  -6   0   1    0.13    0.09
  -6   0   1    0.44    0.13
  -6   0   1    0.42    0.12
  -6   0   1    0.30    0.10
   5   0  -1    0.43    0.11
   5   0  -1    0.56    0.13
   5   0  -1    0.37    0.11
   5   0  -1    0.32    0.10
  -5   0   1    0.44    0.11
  -5   0   1    0.46    0.11
  -5   0   1    0.54    0.12
  -5   0   1    0.51    0.12
  -5   0   1    0.45    0.11
   4   0  -1    9.89    0.37
   4   0  -1    9.35    0.38
   4   0  -1    9.71    0.39
   4   0  -1   10.26    0.40
  -4   0   1   10.24    0.38
  -4   0   1    9.76    0.37
  -4   0   1   10.06    0.40
  -4   0   1    9.86    0.37
  -4   0   1    9.19    0.38
   3   0  -1    2.66    0.16
   3   0  -1    2.99    0.17
   3   0  -1    2.36    0.14
  -3   0   1    3.07    0.16
  -3   0   1    2.83    0.16
  -3   0   1    2.95    0.17
  -3   0   1    2.50    0.15
  -3   0   1    2.56    0.15
   2   0  -1    2.46    0.14
  -2   0   1    2.23    0.12
  -2   0   1    2.37    0.12
  -2   0   1    2.21    0.14
  -2   0   1    2.56    0.13
   1   0  -1    0.86    0.10
   1   0  -1    0.78    0.09
  -1   0   1    0.78    0.10
  -1   0   1    0.79    0.09
   0   0  -1   -0.04    0.00
   0   0   1   -0.05    0.00
   0   0   1   -0.04    0.00
  -1   0  -1    0.58    0.05
  -1   0  -1    0.66    0.07
  -1   0  -1    0.64    0.06
  -1   0  -1    0.45    0.06
   1   0   1    0.64    0.05
   1   0   1    0.50    0.06
   1   0   1    0.54    0.06
   1   0   1    0.51    0.06
  -2   0  -1   53.23    1.32
  -2   0  -1   52.86    1.28
  -2   0  -1   55.04    1.27
  -2   0  -1   54.43    1.23
   2   0   1   50.86    1.31
   2   0   1   55.74    1.32
   2   0   1   53.35    1.28
  -3   0  -1    1.35    0.11
  -3   0  -1    1.88    0.13
  -3   0  -1    1.86    0.12
  -3   0  -1    2.19    0.15
  -3   0  -1    1.88    0.12
   3   0   1    2.01    0.14
   3   0   1    2.14    0.14
   3   0   1    1.75    0.13
  -4   0  -1    9.07    0.34
  -4   0  -1    9.13    0.36
  -4   0  -1    8.54    0.32
  -4   0  -1    8.96    0.37
  -4   0  -1    7.69    0.34
   4   0   1    8.56    0.35
   4   0   1    8.38    0.36
   4   0   1    8.33    0.35
   4   0   1    8.32    0.36
  -5   0  -1    0.29    0.10
  -5   0  -1    0.33    0.10
  -5   0  -1    0.44    0.11
  -5   0  -1    0.29    0.10
  -5   0  -1    0.45    0.12
   5   0   1    0.35    0.11
   5   0   1    0.32    0.11
   5   0   1    0.41    0.11
   5   0   1    0.32    0.10
  -6   0  -1    1.08    0.17
  -6   0  -1    0.82    0.14
  -6   0  -1    0.94    0.17
  -6   0  -1    1.10    0.16
  -6   0  -1    0.99    0.16
   6   0   1    0.84    0.17
   6   0   1    1.15    0.17
   6   0   1    0.92    0.15
   6   0   1    1.09    0.18
  -7   0  -1    1.74    0.25
  -7   0  -1    2.13    0.25
   7   0   1    2.73    0.31
   7   0   1    1.70    0.23
   7   0   1    2.11    0.26
   7  -1  -1    0.07    0.12
  -7   1   1    0.14    0.11
  -7   1   1   -0.06    0.10
  -7   1   1    0.09    0.12
   6  -1  -1    0.21    0.11
   6  -1  -1    0.55    0.13
   6  -1  -1    0.37    0.11
   6  -1  -1    0.57    0.13
  -6   1   1    0.52    0.13
  -6   1   1    0.23    0.10
  -6   1   1    0.34    0.11
  -6   1   1    0.46    0.12
  -6   1   1    0.48    0.13
   5  -1  -1    1.81    0.21
   5  -1  -1    2.06    0.20
   5  -1  -1    1.86    0.19
   5  -1  -1    1.64    0.18
  -5   1   1    1.59    0.17
  -5   1   1    1.82    0.19
  -5   1   1    1.61    0.19
  -5   1   1    1.85    0.21
  -5   1   1    1.65    0.18
   4  -1  -1    3.87    0.20
   4  -1  -1    4.10    0.22
   4  -1  -1    4.04    0.22
  -4   1   1    4.00    0.22
  -4   1   1    3.46    0.21
  -4   1   1    3.47    0.24
  -4   1   1    3.53    0.21
  -4   1   1    3.75    0.20
   3  -1  -1    1.31    0.10
   3  -1  -1    1.07    0.11
   3  -1  -1    1.21    0.10
  -3   1   1    1.26    0.13
  -3   1   1    0.84    0.10
  -3   1   1    1.26    0.12
  -3   1   1    1.13    0.10
  -3   1   1    0.92    0.11
   2  -1  -1   24.53    0.63
   2  -1  -1   24.12    0.64
   2  -1  -1   23.54    0.60
  -2   1   1   24.57    0.61
  -2   1   1   24.83    0.63
  -2   1   1   23.28    0.64
  -2   1   1   24.72    0.64
   1  -1  -1    5.44    0.16
   1  -1  -1    5.43    0.17
  -1   1   1    5.65    0.18
  -1   1   1    5.72    0.18
  -1   1   1    5.87    0.19
   0  -1  -1   -0.06    0.03
   0  -1  -1   -0.02    0.02
   0   1   1   -0.07    0.02
  -1  -1  -1   26.57    0.66
  -1  -1  -1   26.03    0.66
   1   1   1   26.52    0.66
   1   1   1   25.93    0.60
   1   1   1   26.66    0.65
  -2  -1  -1   50.30    1.17
  -2  -1  -1   49.07    1.21
  -2  -1  -1   48.42    1.22
  -2  -1  -1   51.35    1.15
  -2  -1  -1   49.36    1.25
   2   1   1   50.45    1.22
   2   1   1   51.06    1.25
  -3  -1  -1    4.93    0.22
  -3  -1  -1    4.94    0.23
  -3  -1  -1    4.89    0.20
  -3  -1  -1    4.87    0.20
  -3  -1  -1    4.90    0.22
   3   1   1    5.24    0.24
   3   1   1    4.76    0.22
  -4  -1  -1   18.06    0.54
  -4  -1  -1   18.71    0.54
  -4  -1  -1   16.82    0.59
  -4  -1  -1   17.22    0.57
  -4  -1  -1   17.44    0.58
   4   1   1   17.34    0.57
   4   1   1   17.62    0.60
   4   1   1   17.54    0.57
  -5  -1  -1    2.92    0.20
  -5  -1  -1    3.21    0.24
  -5  -1  -1    2.88    0.20
  -5  -1  -1    2.94    0.23
  -5  -1  -1    3.00    0.23
   5   1   1    2.86    0.23
   5   1   1    3.05    0.23
   5   1   1    2.60    0.21
   5   1   1    2.98    0.24
  -6  -1  -1    7.71    0.39
  -6  -1  -1    7.29    0.40
  -6  -1  -1    7.56    0.36
  -6  -1  -1    7.31    0.38
  -6  -1  -1    8.03    0.36
   6   1   1    7.69    0.41
   6   1   1    7.76    0.39
   6   1   1    7.86    0.39
   6   1   1    7.79    0.40
  -7  -1  -1    0.54    0.17
  -7  -1  -1    0.57    0.15
   7   1   1    0.80    0.19
   7   1   1    0.71    0.18
   7   1   1    0.83    0.18
   7   1   1    0.61    0.15
   7  -2  -1    0.80    0.20
  -7   2   1    1.08    0.19
  -7   2   1    1.01    0.19
  -7   2   1    0.87    0.19
   6  -2  -1    0.09    0.09
   6  -2  -1   -0.02    0.07
   6  -2  -1    0.04    0.08
  -6   2   1    0.04    0.07
  -6   2   1    0.04    0.08
  -6   2   1   -0.05    0.06
  -6   2   1    0.06    0.07
  -6   2   1    0.00    0.08
   5  -2  -1    0.02    0.06
   5  -2  -1    0.15    0.07
   5  -2  -1    0.04    0.07
  -5   2   1    0.10    0.07
  -5   2   1    0.03    0.07
  -5   2   1    0.10    0.09
  -5   2   1   -0.02    0.07
  -5   2   1    0.13    0.08
   4  -2  -1    0.33    0.08
   4  -2  -1    0.16    0.06
   4  -2  -1    0.40    0.08
  -4   2   1    0.41    0.08
  -4   2   1    0.26    0.09
  -4   2   1    0.24    0.08
  -4   2   1    0.30    0.07
  -4   2   1    0.36    0.09
   3  -2  -1    6.19    0.23
   3  -2  -1    5.85    0.22
   3  -2  -1    5.92    0.22
  -3   2   1    6.10    0.23
  -3   2   1    5.91    0.26
  -3   2   1    5.85    0.22
  -3   2   1    6.22    0.26
  -3   2   1    5.70    0.26
   2  -2  -1   25.22    0.62
   2  -2  -1   25.47    0.65
   2  -2  -1   25.52    0.63
  -2   2   1   24.68    0.63
  -2   2   1   24.02    0.68
  -2   2   1   25.28    0.62
  -2   2   1   25.46    0.68
  -2   2   1   25.24    0.65
  -2   2   1   25.22    0.65
   1  -2  -1    0.12    0.01
   1  -2  -1    0.15    0.02
   1  -2  -1    0.15    0.02
  -1   2   1    0.13    0.02
  -1   2   1    0.11    0.03
  -1   2   1    0.13    0.03
  -1   2   1    0.12    0.03
   0  -2  -1    0.20    0.03
   0  -2  -1    0.20    0.03
   0   2   1    0.25    0.04
  -1  -2  -1    3.74    0.15
  -1  -2  -1    3.74    0.15
   1   2   1    3.97    0.14
  -2  -2  -1   13.22    0.35
  -2  -2  -1   13.22    0.40
  -2  -2  -1   13.07    0.42
   2   2   1   13.42    0.42
   2   2   1   13.42    0.38
  -3  -2  -1    7.27    0.25
  -3  -2  -1    6.37    0.28
  -3  -2  -1    6.50    0.23
  -3  -2  -1    6.94    0.29
   3   2   1    6.82    0.26
   3   2   1    6.09    0.29
  -4  -2  -1    0.17    0.07
  -4  -2  -1    0.13    0.09
  -4  -2  -1    0.20    0.07
  -4  -2  -1    0.11    0.07
   4   2   1    0.20    0.07
   4   2   1    0.17    0.08
  -5  -2  -1    0.69    0.11
  -5  -2  -1    1.07    0.16
  -5  -2  -1    0.73    0.12
  -5  -2  -1    0.59    0.15
   5   2   1    0.94    0.16
   5   2   1    0.87    0.14
   5   2   1    0.61    0.13
  -6  -2  -1    0.30    0.10
  -6  -2  -1    0.42    0.13
  -6  -2  -1    0.35    0.10
  -6  -2  -1    0.39    0.11
   6   2   1    0.23    0.11
   6   2   1    0.52    0.13
   6   2   1    0.40    0.14
   6   2   1    0.64    0.14
  -7  -2  -1    0.96    0.19
  -7  -2  -1    1.12    0.22
   7   2   1    0.78    0.18
   7   2   1    0.76    0.18
   7   2   1    1.14    0.20
   7   2   1    1.39    0.24
   7  -3  -1    1.19    0.23
  -7   3   1    1.11    0.20
  -7   3   1    0.75    0.17
  -7   3   1    0.74    0.19
  -6   3   1    0.04    0.08
  -6   3   1   -0.04    0.07
  -6   3   1    0.01    0.08
   5  -3  -1    7.48    0.32
   5  -3  -1    7.24    0.31
   5  -3  -1    7.33    0.32
  -5   3   1    7.36    0.32
  -5   3   1    7.18    0.36
  -5   3   1    7.23    0.38
  -5   3   1    7.49    0.39
  -5   3   1    7.68    0.32
   4  -3  -1    4.56    0.21
   4  -3  -1    4.43    0.20
   4  -3  -1    4.47    0.21
  -4   3   1    4.47    0.21
  -4   3   1    4.89    0.28
  -4   3   1    4.30    0.26
  -4   3   1    4.40    0.24
  -4   3   1    4.69    0.21
   3  -3  -1   15.99    0.46
   3  -3  -1   15.35    0.44
   3  -3  -1   16.08    0.45
  -3   3   1   15.87    0.50
  -3   3   1   16.20    0.45
  -3   3   1   16.62    0.54
  -3   3   1   16.40    0.53
   2  -3  -1    1.72    0.09
   2  -3  -1    1.73    0.09
   2  -3  -1    1.70    0.08
  -2   3   1    1.83    0.09
  -2   3   1    1.66    0.13
  -2   3   1    1.95    0.13
  -2   3   1    1.83    0.12
   1  -3  -1   11.72    0.28
   1  -3  -1   11.38    0.31
   1  -3  -1   10.98    0.29
  -1   3   1   11.30    0.35
  -1   3   1   10.80    0.34
  -1   3   1   11.47    0.28
   0  -3  -1   -0.02    0.02
   0  -3  -1   -0.01    0.02
   0   3   1    0.00    0.02
   0   3   1   -0.01    0.02
  -1  -3  -1    1.21    0.09
  -1  -3  -1    1.12    0.09
   1   3   1    1.09    0.06
   1   3   1    1.01    0.07
  -2  -3  -1    2.32    0.15
  -2  -3  -1    2.13    0.14
   2   3   1    2.28    0.12
   2   3   1    2.23    0.10
  -3  -3  -1    1.69    0.17
  -3  -3  -1    1.74    0.14
   3   3   1    1.87    0.13
   3   3   1    1.74    0.17
  -4  -3  -1    2.64    0.22
  -4  -3  -1    2.57    0.20
  -4  -3  -1    2.57    0.15
   4   3   1    2.68    0.21
   4   3   1    2.86    0.18
  -5  -3  -1    4.81    0.30
  -5  -3  -1    4.63    0.31
  -5  -3  -1    4.69    0.24
   5   3   1    4.93    0.31
   5   3   1    4.59    0.26
  -6  -3  -1    0.34    0.10
  -6  -3  -1    0.41    0.06
  -6  -3  -1    0.46    0.15
   6   3   1    0.52    0.12
   6   3   1    0.76    0.18
   6   3   1    0.26    0.11
   6   3   1    0.65    0.16
  -7  -3  -1   -0.20    0.07
  -7  -3  -1    0.10    0.12
   7   3   1    0.00    0.11
   7   3   1    0.02    0.12
   7   3   1   -0.14    0.08
  -7   4   1    0.37    0.16
  -7   4   1    0.42    0.15
  -7   4   1    0.55    0.17
  -6   4   1    0.02    0.08
  -6   4   1    0.00    0.08
  -6   4   1    0.09    0.09
  -5   4   1   -0.01    0.07
  -5   4   1    0.03    0.07
  -5   4   1   -0.06    0.07
   4  -4  -1    0.87    0.10
   4  -4  -1    1.21    0.12
   4  -4  -1    1.08    0.10
  -4   4   1    0.94    0.15
  -4   4   1    1.11    0.17
  -4   4   1    1.02    0.15
   3  -4  -1    4.93    0.17
   3  -4  -1    4.85    0.18
   3  -4  -1    4.33    0.18
  -3   4   1    5.10    0.25
  -3   4   1    5.05    0.26
  -3   4   1    4.59    0.25
   2  -4  -1    4.01    0.15
   2  -4  -1    4.01    0.15
   2  -4  -1    3.87    0.13
  -2   4   1    3.85    0.20
  -2   4   1    4.21    0.14
  -2   4   1    4.10    0.21
  -2   4   1    3.95    0.19
   1  -4  -1   12.79    0.33
   1  -4  -1   11.49    0.32
  -1   4   1   11.52    0.38
  -1   4   1   11.36    0.37
  -1   4   1   11.23    0.30
   0  -4  -1    0.83    0.07
   0  -4  -1    0.81    0.07
   0   4   1    0.81    0.09
   0   4   1    0.77    0.08
  -1  -4  -1   41.77    1.05
  -1  -4  -1   43.43    1.10
   1   4   1   41.07    1.05
   1   4   1   43.46    1.02
  -2  -4  -1    0.01    0.04
  -2  -4  -1    0.07    0.04
   2   4   1    0.01    0.03
   2   4   1    0.02    0.02
  -3  -4  -1    0.15    0.06
  -3  -4  -1    0.11    0.07
   3   4   1    0.08    0.04
   3   4   1   -0.04    0.04
   3   4   1    0.06    0.04
  -4  -4  -1    2.39    0.24
  -4  -4  -1    2.52    0.20
   4   4   1    2.33    0.16
   4   4   1    1.80    0.20
   4   4   1    2.19    0.14
  -5  -4  -1   -0.07    0.08
  -5  -4  -1   -0.09    0.06
   5   4   1    0.04    0.07
   5   4   1   -0.10    0.07
  -6  -4  -1    1.34    0.22
  -6  -4  -1    1.34    0.20
   6   4   1    0.96    0.16
   6   4   1    1.17    0.21
   6   4   1    0.87    0.18
  -7  -4  -1    0.19    0.11
  -7  -4  -1    0.33    0.15
   7   4   1    0.44    0.18
   7   4   1    0.33    0.15
   7   4   1    0.22    0.12
  -7   5   1    0.55    0.18
  -7   5   1    0.31    0.15
  -7   5   1    0.33    0.13
  -6   5   1    0.92    0.19
  -6   5   1    0.89    0.19
  -6   5   1    1.02    0.18
  -5   5   1    5.71    0.33
  -5   5   1    5.38    0.36
  -5   5   1    6.08    0.35
   4  -5  -1    5.04    0.22
  -4   5   1    5.67    0.32
  -4   5   1    5.08    0.29
  -4   5   1    5.19    0.31
   3  -5  -1    0.51    0.06
   3  -5  -1    0.45    0.06
   3  -5  -1    0.43    0.06
  -3   5   1    0.27    0.09
  -3   5   1    0.46    0.10
  -3   5   1    0.36    0.09
   2  -5  -1    0.02    0.02
   2  -5  -1    0.09    0.03
   2  -5  -1    0.09    0.04
  -2   5   1    0.00    0.05
  -2   5   1    0.09    0.06
  -2   5   1    0.03    0.05
   1  -5  -1   38.67    0.97
   1  -5  -1   38.11    0.94
  -1   5   1   38.63    0.93
  -1   5   1   38.77    1.03
  -1   5   1   39.39    1.01
   0  -5  -1    6.47    0.23
   0  -5  -1    6.76    0.25
   0   5   1    6.71    0.25
   0   5   1    6.42    0.26
  -1  -5  -1   10.40    0.35
  -1  -5  -1   10.15    0.36
   1   5   1   10.01    0.32
   1   5   1   10.69    0.34
  -2  -5  -1   21.23    0.63
  -2  -5  -1   20.17    0.64
   2   5   1   21.14    0.59
   2   5   1   20.55    0.55
  -3  -5  -1    2.10    0.21
  -3  -5  -1    1.81    0.18
   3   5   1    1.90    0.12
   3   5   1    1.87    0.13
  -4  -5  -1    3.22    0.25
  -4  -5  -1    3.66    0.25
   4   5   1    3.82    0.18
   4   5   1    3.27    0.25
   4   5   1    3.47    0.20
  -5  -5  -1    3.11    0.31
  -5  -5  -1    2.48    0.26
   5   5   1    2.64    0.19
   5   5   1    2.77    0.28
  -6  -5  -1    2.72    0.29
  -6  -5  -1    2.79    0.32
   6   5   1    2.31    0.20
   6   5   1    2.17    0.27
  -7  -5  -1   -0.15    0.08
  -7  -5  -1    0.03    0.13
   7   5   1    0.21    0.15
   7   5   1   -0.02    0.09
  -6   6   1    1.58    0.25
  -6   6   1    1.07    0.20
  -6   6   1    1.08    0.21
  -5   6   1    3.03    0.32
  -5   6   1    2.85    0.30
  -5   6   1    2.82    0.28
  -4   6   1   -0.03    0.07
  -4   6   1    0.04    0.08
  -4   6   1    0.05    0.08
   3  -6  -1    3.76    0.17
  -3   6   1    3.46    0.24
  -3   6   1    4.03    0.24
  -3   6   1    4.16    0.26
   2  -6  -1   16.61    0.46
   2  -6  -1   16.99    0.47
   2  -6  -1   16.85    0.45
  -2   6   1   16.17    0.53
  -2   6   1   16.53    0.56
  -2   6   1   16.43    0.57
   1  -6  -1   51.43    1.23
   1  -6  -1   49.52    1.26
  -1   6   1   50.96    1.33
  -1   6   1   50.63    1.30
   0  -6  -1   18.51    0.55
   0  -6  -1   18.69    0.54
   0   6   1   18.97    0.56
   0   6   1   19.06    0.57
  -1  -6  -1    0.30    0.07
   1   6   1    0.52    0.08
  -2  -6  -1   22.08    0.70
  -2  -6  -1   21.58    0.66
   2   6   1   21.56    0.63
   2   6   1   22.02    0.60
  -3  -6  -1    5.84    0.31
  -3  -6  -1    6.45    0.34
   3   6   1    5.92    0.26
   3   6   1    6.13    0.24
  -4  -6  -1    2.09    0.25
  -4  -6  -1    1.74    0.21
   4   6   1    1.28    0.19
   4   6   1    2.33    0.15
   4   6   1    1.66    0.16
  -5  -6  -1    0.41    0.14
  -5  -6  -1    0.32    0.12
   5   6   1    0.51    0.11
   5   6   1    0.30    0.12
  -6  -6  -1    2.15    0.29
  -6  -6  -1    1.59    0.24
   6   6   1    1.83    0.26
  -7  -6  -1   -0.19    0.12
  -7  -6  -1   -0.12    0.10
   7   6   1    0.08    0.16
  -6   7   1    0.03    0.11
  -6   7   1    0.05    0.10
  -6   7   1    0.02    0.11
  -5   7   1    0.07    0.09
  -5   7   1    0.13    0.10
  -5   7   1    0.14    0.11
  -4   7   1    1.96    0.22
  -4   7   1    2.42    0.26
  -4   7   1    2.02    0.25
   3  -7  -1    0.53    0.08
  -3   7   1    0.65    0.14
  -3   7   1    0.37    0.11
  -3   7   1    0.51    0.12
   2  -7  -1    0.03    0.04
   2  -7  -1    0.02    0.04
  -2   7   1    0.08    0.07
  -2   7   1    0.05    0.06
   1  -7  -1    2.77    0.16
   1  -7  -1    2.35    0.15
  -1   7   1    2.98    0.19
  -1   7   1    2.66    0.19
   0  -7  -1   18.66    0.57
   0  -7  -1   19.15    0.59
   0   7   1   20.35    0.62
   0   7   1   20.12    0.60
  -1  -7  -1   12.50    0.44
  -1  -7  -1   11.92    0.45
   1   7   1   12.61    0.43
   1   7   1   12.25    0.41
  -2  -7  -1    2.33    0.19
  -2  -7  -1    1.65    0.18
   2   7   1    1.64    0.14
   2   7   1    2.26    0.16
  -3  -7  -1   10.54    0.45
  -3  -7  -1   10.55    0.47
   3   7   1   11.25    0.40
   3   7   1   11.00    0.38
  -4  -7  -1    3.51    0.27
  -4  -7  -1    4.38    0.31
   4   7   1    4.33    0.30
   4   7   1    4.00    0.23
  -5  -7  -1    2.06    0.25
  -5  -7  -1    2.82    0.32
   5   7   1    1.84    0.25
   5   7   1    2.35    0.19
  -6  -7  -1    0.08    0.13
  -6  -7  -1    0.33    0.13
   6   7   1    0.07    0.10
  -7  -7  -1    0.70    0.21
  -7  -7  -1    0.34    0.14
   7   7   1    0.25    0.17
  -6   8   1    0.03    0.11
  -6   8   1    0.04    0.10
  -6   8   1   -0.04    0.11
  -5   8   1    1.40    0.25
  -5   8   1    1.61    0.25
  -5   8   1    1.63    0.23
  -4   8   1    3.67    0.29
  -4   8   1    2.47    0.26
  -4   8   1    3.77    0.29
  -3   8   1   10.20    0.49
  -3   8   1   11.22    0.49
  -3   8   1   10.27    0.45
   2  -8  -1    6.93    0.28
  -2   8   1    7.40    0.37
  -2   8   1    6.79    0.35
   1  -8  -1   14.47    0.47
   1  -8  -1   14.47    0.47
  -1   8   1   14.48    0.53
  -1   8   1   14.67    0.54
   0  -8  -1    0.74    0.11
   0  -8  -1    0.59    0.11
   0   8   1    0.72    0.12
   0   8   1    0.64    0.11
  -1  -8  -1    2.30    0.18
  -1  -8  -1    2.09    0.17
   1   8   1    2.07    0.16
   1   8   1    2.52    0.18
  -2  -8  -1    6.58    0.33
  -2  -8  -1    7.00    0.36
   2   8   1    7.46    0.32
   2   8   1    7.05    0.30
  -3  -8  -1    0.96    0.16
  -3  -8  -1    1.04    0.18
   3   8   1    1.03    0.13
   3   8   1    1.25    0.15
  -4  -8  -1   11.33    0.51
  -4  -8  -1   10.89    0.53
   4   8   1   11.44    0.44
  -5  -8  -1    0.09    0.11
  -5  -8  -1    0.10    0.10
   5   8   1    0.13    0.10
  -6  -8  -1    1.58    0.27
  -6  -8  -1    1.46    0.25
  -5   9   1    0.03    0.11
  -5   9   1   -0.07    0.11
  -5   9   1    0.03    0.12
  -4   9   1    5.59    0.38
  -4   9   1    5.91    0.36
  -4   9   1    6.33    0.40
  -3   9   1    1.67    0.23
  -3   9   1    0.97    0.18
  -3   9   1    1.62    0.21
  -2   9   1    0.56    0.14
  -2   9   1    0.54    0.14
   1  -9  -1    4.79    0.24
  -1   9   1    4.74    0.29
  -1   9   1    3.73    0.26
   0  -9  -1    0.30    0.09
   0  -9  -1    0.29    0.09
   0   9   1    0.19    0.08
   0   9   1    0.23    0.09
  -1  -9  -1    3.69    0.24
  -1  -9  -1    3.31    0.23
   1   9   1    3.09    0.22
   1   9   1    3.45    0.23
  -2  -9  -1    1.50    0.20
  -2  -9  -1    1.56    0.20
   2   9   1    1.34    0.17
   2   9   1    1.73    0.18
  -3  -9  -1    4.29    0.32
  -3  -9  -1    4.26    0.29
   3   9   1    4.49    0.27
   3   9   1    4.31    0.24
  -4  -9  -1   -0.01    0.08
  -4  -9  -1   -0.01    0.10
   4   9   1   -0.07    0.06
  -5  -9  -1    0.00    0.08
  -5  -9  -1    0.05    0.12
   5   9   1    0.07    0.10
  -6  -9  -1    0.82    0.20
  -6  -9  -1    0.93    0.23
  -5  10   1    0.56    0.18
  -5  10   1    0.36    0.16
  -4  10   1    0.14    0.13
  -4  10   1    0.03    0.11
  -4  10   1    0.17    0.11
  -3  10   1    0.53    0.16
  -3  10   1    0.48    0.15
  -3  10   1    0.25    0.11
  -2  10   1    0.91    0.17
  -2  10   1    0.45    0.14
   1 -10  -1    4.33    0.25
  -1  10   1    3.86    0.28
  -1  10   1    3.76    0.28
   0 -10  -1    0.92    0.15
   0  10   1    0.86    0.15
   0  10   1    0.63    0.14
  -1 -10  -1    0.21    0.10
  -1 -10  -1    0.12    0.10
   1  10   1    0.02    0.08
   1  10   1    0.33    0.11
  -2 -10  -1   10.64    0.49
  -2 -10  -1   10.63    0.47
   2  10   1   10.92    0.43
   2  10   1   10.55    0.45
  -3 -10  -1    1.11    0.20
  -3 -10  -1    1.49    0.23
   3  10   1    1.15    0.17
  -4 -10  -1    1.33    0.22
  -4 -10  -1    1.33    0.24
  -5 -10  -1    0.12    0.14
  -5 -10  -1    0.12    0.11
  -4  11   1    0.86    0.20
  -4  11   1    0.54    0.18
  -3  11   1    0.53    0.16
  -3  11   1    0.60    0.17
  -3  11   1    0.53    0.14
  -2  11   1    0.31    0.14
  -2  11   1    0.45    0.15
  -1  11   1    8.49    0.44
  -1  11   1    9.01    0.47
   0 -11  -1    2.77    0.23
   0  11   1    2.73    0.27
   0  11   1    3.06    0.30
  -1 -11  -1    4.41    0.30
  -1 -11  -1    4.75    0.31
   1  11   1    3.84    0.29
   1  11   1    4.36    0.29
  -2 -11  -1    0.59    0.15
  -2 -11  -1    0.48    0.15
   2  11   1    0.73    0.15
   2  11   1    0.39    0.14
  -3 -11  -1    0.47    0.16
  -3 -11  -1    0.36    0.13
   3  11   1    0.67    0.15
  -4 -11  -1    2.65    0.34
  -4 -11  -1    2.56    0.30
  -3  12   1   -0.08    0.10
  -3  12   1    0.07    0.13
  -2  12   1   -0.02    0.09
  -2  12   1    0.05    0.11
  -1  12   1    0.26    0.13
  -1  12   1    0.35    0.14
   0 -12  -1    0.22    0.10
   0  12   1    0.19    0.11
   0  12   1   -0.01    0.09
  -1 -12  -1    0.54    0.14
   1  12   1    0.49    0.15
   1  12   1    0.41    0.13
  -2 -12  -1    1.21    0.22
  -2 -12  -1    1.31    0.21
   2  12   1    1.17    0.19
  -3 -12  -1    0.45    0.17
  -3 -12  -1    0.34    0.14
  -1  13   1    0.22    0.13
  -1  13   1    0.24    0.14
   0  13   1    2.29    0.28
   0  13   1    1.44    0.24
  -1 -13  -1    0.09    0.10
   1  13   1    0.20    0.12
   1  13   1   -0.03    0.10
  -2 -13  -1    1.30    0.22
   2  13   1    0.96    0.20
  -3 -12   2    0.01    0.12
  -3 -12   2    0.03    0.09
   2  12  -2   -0.05    0.09
  -2 -12   2   -0.02    0.08
   1  12  -2    0.53    0.15
  -1 -12   2    0.27    0.13
   0  12  -2    0.37    0.14
   0  12  -2    0.40    0.15
   0 -12   2    0.49    0.14
  -1  12  -2    0.20    0.13
  -1  12  -2    0.33    0.14
   1 -12   2    0.26    0.11
  -2  12  -2   -0.01    0.10
  -2  12  -2   -0.10    0.10
   4  11  -2   -0.02    0.15
  -4 -11   2    0.04    0.10
  -4 -11   2    0.10    0.15
   3  11  -2    0.54    0.14
  -3 -11   2    0.63    0.17
  -3 -11   2    0.39    0.16
   2  11  -2   -0.09    0.08
  -2 -11   2    0.03    0.08
  -2 -11   2   -0.06    0.11
   1  11  -2    0.12    0.09
   1  11  -2   -0.01    0.08
  -1 -11   2    0.05    0.08
   0  11  -2    0.18    0.11
   0  11  -2    0.01    0.10
   0 -11   2   -0.01    0.07
  -1  11  -2    6.10    0.38
  -1  11  -2    5.94    0.37
   1 -11   2    7.09    0.36
  -2  11  -2    0.35    0.15
  -2  11  -2    0.19    0.11
  -3  11  -2    0.16    0.14
  -3  11  -2    0.14    0.12
   5  10  -2    0.19    0.16
  -5 -10   2   -0.03    0.09
  -5 -10   2    0.11    0.13
  -4 -10   2    0.33    0.14
  -4 -10   2   -0.03    0.14
   3  10  -2    1.77    0.21
  -3 -10   2    1.91    0.25
  -3 -10   2    2.83    0.31
   2  10  -2    0.04    0.09
  -2 -10   2    0.00    0.12
  -2 -10   2    0.05    0.10
   1  10  -2    1.38    0.19
   1  10  -2    1.04    0.18
  -1 -10   2    1.55    0.21
   0  10  -2    4.06    0.29
   0  10  -2    4.08    0.29
   0 -10   2    3.66    0.27
  -1  10  -2    1.97    0.24
  -1  10  -2    2.02    0.24
   1 -10   2    1.83    0.21
  -2  10  -2    9.11    0.46
  -2  10  -2    9.05    0.48
   2 -10   2    9.21    0.40
  -3  10  -2    0.37    0.13
  -3  10  -2    0.86    0.19
  -4  10  -2   -0.02    0.09
  -4  10  -2    0.01    0.10
  -4  10  -2   -0.07    0.12
   5   9  -2    0.11    0.15
  -5  -9   2    0.10    0.13
  -5  -9   2    0.06    0.10
   4   9  -2    2.06    0.21
  -4  -9   2    1.63    0.24
  -4  -9   2    1.58    0.25
   3   9  -2    1.32    0.17
  -3  -9   2    1.52    0.22
  -3  -9   2    1.23    0.20
   2   9  -2    8.44    0.38
   2   9  -2    8.90    0.39
  -2  -9   2    8.63    0.42
  -2  -9   2    8.73    0.44
   1   9  -2    0.01    0.08
   1   9  -2    0.09    0.08
  -1  -9   2   -0.01    0.08
  -1  -9   2    0.15    0.09
   0   9  -2    5.26    0.31
   0   9  -2    4.90    0.30
   0  -9   2    5.14    0.29
  -1   9  -2    2.25    0.24
  -1   9  -2    1.72    0.21
   1  -9   2    2.13    0.21
  -2   9  -2    6.79    0.39
  -2   9  -2    7.26    0.40
   2  -9   2    7.74    0.34
  -3   9  -2    0.68    0.17
  -3   9  -2    1.00    0.18
   3  -9   2    1.11    0.15
  -4   9  -2    0.17    0.12
  -4   9  -2    0.34    0.13
  -4   9  -2    0.21    0.11
  -5   9  -2    2.22    0.31
  -5   9  -2    2.29    0.30
  -5   9  -2    1.90    0.25
   6   8  -2    0.32    0.17
  -6  -8   2    0.28    0.13
  -6  -8   2    0.27    0.15
   5   8  -2    0.34    0.15
  -5  -8   2    0.24    0.11
  -5  -8   2    0.33    0.14
   4   8  -2    0.27    0.10
  -4  -8   2    0.58    0.16
  -4  -8   2    0.41    0.13
   3   8  -2    1.90    0.19
  -3  -8   2    1.96    0.24
  -3  -8   2    2.32    0.25
   2   8  -2    2.07    0.17
   2   8  -2    1.78    0.17
  -2  -8   2    1.65    0.20
  -2  -8   2    1.87    0.21
   1   8  -2    0.85    0.13
   1   8  -2    0.93    0.13
  -1  -8   2    0.83    0.13
  -1  -8   2    0.79    0.13
   0   8  -2    1.06    0.15
   0   8  -2    1.30    0.17
   0  -8   2    1.33    0.15
   0  -8   2    1.15    0.15
  -1   8  -2    5.13    0.30
  -1   8  -2    5.33    0.30
   1  -8   2    4.99    0.26
  -2   8  -2    2.00    0.22
  -2   8  -2    1.79    0.22
   2  -8   2    1.90    0.16
  -3   8  -2    0.76    0.16
  -3   8  -2    0.54    0.15
   3  -8   2    0.74    0.11
  -4   8  -2    0.26    0.12
  -4   8  -2    0.52    0.14
  -4   8  -2    0.71    0.17
  -5   8  -2   -0.09    0.07
  -5   8  -2   -0.08    0.11
  -5   8  -2    0.04    0.10
   6   7  -2    0.51    0.18
   6   7  -2    0.58    0.15
  -6  -7   2    0.39    0.14
  -6  -7   2    0.92    0.23
   5   7  -2    0.33    0.14
  -5  -7   2    0.64    0.15
  -5  -7   2    0.45    0.16
   4   7  -2    2.32    0.19
  -4  -7   2    1.70    0.24
  -4  -7   2    1.76    0.22
   3   7  -2    4.52    0.24
   3   7  -2    4.61    0.23
  -3  -7   2    4.77    0.29
  -3  -7   2    4.45    0.30
   2   7  -2    1.55    0.13
   2   7  -2    1.77    0.17
  -2  -7   2    1.47    0.17
  -2  -7   2    1.66    0.19
   1   7  -2    1.65    0.14
   1   7  -2    1.73    0.17
  -1  -7   2    1.76    0.18
  -1  -7   2    1.76    0.18
   0   7  -2    3.08    0.20
   0   7  -2    3.02    0.20
   0  -7   2    3.40    0.20
   0  -7   2    2.99    0.18
  -1   7  -2    4.08    0.24
  -1   7  -2    4.30    0.25
   1  -7   2    4.10    0.18
   1  -7   2    4.10    0.21
  -2   7  -2    0.08    0.07
  -2   7  -2    0.02    0.06
   2  -7   2    0.19    0.07
   2  -7   2    0.11    0.05
  -3   7  -2    7.59    0.36
  -3   7  -2    7.73    0.39
  -3   7  -2    8.05    0.41
   3  -7   2    7.56    0.31
  -4   7  -2    0.90    0.15
  -4   7  -2    1.27    0.22
  -4   7  -2    0.95    0.18
   4  -7   2    0.89    0.12
  -5   7  -2    0.46    0.14
  -5   7  -2    0.40    0.13
  -5   7  -2    0.21    0.12
  -6   7  -2    0.09    0.12
  -6   7  -2    0.03    0.11
  -6   7  -2   -0.01    0.10
   7   6  -2    0.08    0.15
  -7  -6   2    0.08    0.15
  -7  -6   2    0.03    0.11
   6   6  -2    1.47    0.26
   6   6  -2    1.47    0.23
  -6  -6   2    1.79    0.25
  -6  -6   2    1.39    0.24
   5   6  -2   -0.05    0.09
   5   6  -2    0.00    0.07
  -5  -6   2   -0.08    0.06
  -5  -6   2    0.03    0.09
   4   6  -2    0.47    0.10
  -4  -6   2    0.48    0.13
  -4  -6   2    0.43    0.14
   3   6  -2    0.17    0.06
   3   6  -2    0.21    0.07
  -3  -6   2    0.07    0.07
  -3  -6   2    0.27    0.11
   2   6  -2   19.68    0.59
   2   6  -2   20.36    0.57
  -2  -6   2   19.26    0.65
  -2  -6   2   20.05    0.63
   1   6  -2    4.63    0.22
   1   6  -2    4.71    0.22
  -1  -6   2    4.80    0.23
  -1  -6   2    4.96    0.25
   0   6  -2    3.28    0.18
   0   6  -2    3.12    0.19
   0  -6   2    3.28    0.17
   0  -6   2    3.09    0.18
  -1   6  -2    1.26    0.14
  -1   6  -2    0.98    0.13
   1  -6   2    1.34    0.09
   1  -6   2    1.23    0.12
   1  -6   2    1.30    0.10
  -2   6  -2    1.60    0.18
  -2   6  -2    2.12    0.20
   2  -6   2    2.11    0.13
   2  -6   2    2.09    0.14
  -3   6  -2    6.27    0.32
  -3   6  -2    5.74    0.33
  -3   6  -2    6.03    0.30
   3  -6   2    5.89    0.24
   3  -6   2    6.50    0.26
  -4   6  -2    5.39    0.32
  -4   6  -2    5.09    0.29
  -4   6  -2    4.66    0.32
   4  -6   2    5.40    0.25
  -5   6  -2    0.95    0.18
  -5   6  -2    1.27    0.18
  -5   6  -2    1.10    0.21
  -6   6  -2    2.06    0.30
  -6   6  -2    2.09    0.28
  -6   6  -2    1.89    0.24
   7   5  -2    2.36    0.33
  -7  -5   2    1.98    0.28
  -7  -5   2    2.15    0.32
   6   5  -2    0.85    0.18
   6   5  -2    0.94    0.21
  -6  -5   2    1.14    0.20
  -6  -5   2    1.18    0.22
   5   5  -2    8.83    0.37
   5   5  -2    7.66    0.44
  -5  -5   2    8.82    0.43
  -5  -5   2    9.27    0.46
   4   5  -2    0.50    0.14
   4   5  -2    0.95    0.11
   4   5  -2    0.84    0.12
  -4  -5   2    0.91    0.15
  -4  -5   2    0.70    0.16
   3   5  -2   11.61    0.39
   3   5  -2   11.30    0.35
  -3  -5   2   11.67    0.44
  -3  -5   2   10.81    0.46
   2   5  -2    5.56    0.21
   2   5  -2    5.65    0.24
  -2  -5   2    5.23    0.27
  -2  -5   2    5.44    0.26
   1   5  -2    0.00    0.03
   1   5  -2   -0.01    0.03
  -1  -5   2    0.00    0.04
  -1  -5   2    0.02    0.04
   0   5  -2   71.33    1.72
   0   5  -2   70.51    1.70
   0  -5   2   69.91    1.72
   0  -5   2   69.87    1.68
  -1   5  -2    2.32    0.15
  -1   5  -2    2.29    0.16
   1  -5   2    2.70    0.14
   1  -5   2    2.40    0.13
   1  -5   2    2.43    0.11
  -2   5  -2    3.79    0.21
  -2   5  -2    3.06    0.21
   2  -5   2    3.74    0.17
   2  -5   2    3.69    0.16
  -3   5  -2    0.13    0.07
  -3   5  -2    0.08    0.07
  -3   5  -2    0.09    0.06
   3  -5   2    0.10    0.05
   3  -5   2    0.14    0.05
  -4   5  -2    1.04    0.14
  -4   5  -2    1.01    0.16
  -4   5  -2    0.86    0.16
   4  -5   2    0.99    0.11
   4  -5   2    1.04    0.12
  -5   5  -2    1.06    0.16
  -5   5  -2    0.94    0.16
  -5   5  -2    1.00    0.19
   5  -5   2    0.81    0.12
  -6   5  -2    1.98    0.25
  -6   5  -2    1.82    0.23
  -6   5  -2    2.32    0.31
  -7   5  -2    3.65    0.37
  -7   5  -2    3.00    0.37
   7   4  -2    0.32    0.18
   7   4  -2    0.20    0.12
  -7  -4   2    0.15    0.12
  -7  -4   2    0.27    0.16
   6   4  -2    0.06    0.09
   6   4  -2    0.02    0.11
   6   4  -2   -0.02    0.07
  -6  -4   2    0.05    0.09
  -6  -4   2    0.11    0.11
   5   4  -2    6.60    0.31
   5   4  -2    6.44    0.38
  -5  -4   2    6.29    0.38
  -5  -4   2    6.52    0.36
   4   4  -2    2.99    0.24
   4   4  -2    2.71    0.18
   4   4  -2    3.27    0.17
  -4  -4   2    2.76    0.23
  -4  -4   2    2.89    0.22
   3   4  -2    5.74    0.24
   3   4  -2    5.80    0.21
  -3  -4   2    5.53    0.30
  -3  -4   2    5.88    0.28
  -3  -4   2    5.71    0.25
   2   4  -2   10.66    0.31
   2   4  -2   11.20    0.35
  -2  -4   2   11.13    0.38
  -2  -4   2    9.83    0.39
   1   4  -2    0.14    0.04
   1   4  -2    0.10    0.04
  -1  -4   2    0.18    0.04
  -1  -4   2    0.07    0.04
   0   4  -2   24.52    0.67
   0   4  -2   25.09    0.67
   0  -4   2   25.40    0.67
   0  -4   2   24.48    0.65
   0  -4   2   25.16    0.66
  -1   4  -2    0.49    0.08
  -1   4  -2    0.41    0.07
  -1   4  -2    0.50    0.09
   1  -4   2    0.46    0.04
   1  -4   2    0.44    0.06
   1  -4   2    0.32    0.05
  -2   4  -2   23.06    0.70
  -2   4  -2   23.50    0.69
  -2   4  -2   23.05    0.67
   2  -4   2   23.38    0.62
   2  -4   2   23.79    0.62
  -3   4  -2    5.74    0.30
  -3   4  -2    5.50    0.28
  -3   4  -2    6.24    0.27
   3  -4   2    5.85    0.23
   3  -4   2    6.08    0.24
  -4   4  -2    5.68    0.33
  -4   4  -2    5.79    0.31
  -4   4  -2    5.10    0.27
   4  -4   2    6.50    0.26
   4  -4   2    5.78    0.26
  -5   4  -2    8.31    0.41
  -5   4  -2    8.38    0.44
  -5   4  -2    8.72    0.38
   5  -4   2    7.97    0.35
  -6   4  -2    0.76    0.15
  -6   4  -2    0.81    0.17
  -6   4  -2    1.14    0.21
   6  -4   2    0.70    0.13
  -7   4  -2    0.25    0.13
  -7   4  -2    0.18    0.12
   7  -4   2    0.31    0.15
   7   3  -2    4.11    0.40
   7   3  -2    4.22    0.34
  -7  -3   2    4.33    0.33
  -7  -3   2    3.90    0.39
   6   3  -2    0.17    0.10
   6   3  -2    0.42    0.15
  -6  -3   2    0.28    0.11
  -6  -3   2    0.28    0.14
   5   3  -2    0.79    0.15
   5   3  -2    0.80    0.17
   5   3  -2    0.55    0.11
  -5  -3   2    0.67    0.16
  -5  -3   2    0.63    0.14
   4   3  -2    5.73    0.24
   4   3  -2    5.72    0.32
  -4  -3   2    6.06    0.29
  -4  -3   2    5.98    0.24
  -4  -3   2    5.69    0.32
   3   3  -2    6.72    0.23
   3   3  -2    6.92    0.32
   3   3  -2    6.82    0.27
  -3  -3   2    7.12    0.32
  -3  -3   2    6.72    0.26
  -3  -3   2    6.63    0.29
   2   3  -2   60.39    1.45
   2   3  -2   61.60    1.42
  -2  -3   2   58.50    1.47
  -2  -3   2   61.13    1.55
  -2  -3   2   60.39    1.50
   1   3  -2   17.90    0.46
   1   3  -2   18.60    0.53
   1   3  -2   18.03    0.49
  -1  -3   2   17.56    0.50
  -1  -3   2   17.97    0.52
   0   3  -2  219.78    5.13
   0   3  -2  220.97    4.93
   0   3  -2  220.74    5.01
   0  -3   2  215.51    5.08
   0  -3   2  225.27    5.04
   0  -3   2  210.94    4.90
  -1   3  -2    0.25    0.06
  -1   3  -2    0.21    0.05
  -1   3  -2    0.30    0.06
   1  -3   2    0.27    0.05
   1  -3   2    0.30    0.04
  -2   3  -2   16.83    0.54
  -2   3  -2   17.77    0.52
  -2   3  -2   17.44    0.52
   2  -3   2   17.67    0.48
   2  -3   2   16.81    0.47
  -3   3  -2   27.71    0.73
  -3   3  -2   27.55    0.77
  -3   3  -2   27.11    0.81
  -3   3  -2   26.05    0.67
  -3   3  -2   26.68    0.74
   3  -3   2   26.26    0.72
   3  -3   2   26.07    0.67
   3  -3   2   27.41    0.72
  -4   3  -2    5.15    0.27
  -4   3  -2    4.93    0.20
  -4   3  -2    5.45    0.31
  -4   3  -2    4.96    0.25
   4  -3   2    4.82    0.24
   4  -3   2    4.70    0.20
   4  -3   2    4.84    0.23
  -5   3  -2    8.82    0.37
  -5   3  -2    8.85    0.45
  -5   3  -2    8.92    0.38
  -5   3  -2    8.30    0.40
   5  -3   2    9.13    0.37
   5  -3   2    8.90    0.36
  -6   3  -2    4.07    0.29
  -6   3  -2    4.43    0.33
  -6   3  -2    4.08    0.26
  -6   3  -2    3.59    0.25
   6  -3   2    3.72    0.24
   6  -3   2    3.98    0.31
  -7   3  -2    0.95    0.21
  -7   3  -2    1.41    0.22
   7  -3   2    1.47    0.26
   7   2  -2    1.08    0.20
   7   2  -2    0.92    0.20
   7   2  -2    1.07    0.20
  -7  -2   2    1.36    0.21
  -7  -2   2    0.98    0.20
  -7  -2   2    1.21    0.20
  -7  -2   2    0.94    0.17
   6   2  -2   -0.12    0.08
   6   2  -2   -0.01    0.07
  -6  -2   2    0.01    0.08
  -6  -2   2   -0.11    0.06
  -6  -2   2    0.04    0.10
  -6  -2   2   -0.08    0.07
   5   2  -2   25.29    0.85
   5   2  -2   25.82    0.86
   5   2  -2   25.87    0.76
  -5  -2   2   25.86    0.78
  -5  -2   2   26.03    0.78
  -5  -2   2   26.33    0.82
  -5  -2   2   25.95    0.86
   4   2  -2    3.53    0.24
   4   2  -2    3.73    0.19
  -4  -2   2    3.64    0.21
  -4  -2   2    4.04    0.22
  -4  -2   2    3.66    0.22
  -4  -2   2    3.68    0.25
   3   2  -2   33.14    0.95
   3   2  -2   34.09    0.85
  -3  -2   2   34.28    0.88
  -3  -2   2   33.15    0.90
  -3  -2   2   32.26    0.95
  -3  -2   2   34.25    0.88
  -3  -2   2   33.70    0.86
   2   2  -2   29.81    0.72
   2   2  -2   30.00    0.82
   2   2  -2   29.10    0.76
  -2  -2   2   30.99    0.77
  -2  -2   2   30.01    0.82
  -2  -2   2   28.73    0.77
   1   2  -2    9.27    0.30
   1   2  -2    9.44    0.28
  -1  -2   2    9.29    0.30
  -1  -2   2    9.06    0.28
   0   2  -2   77.17    1.82
   0   2  -2   75.46    1.78
   0   2  -2   74.96    1.74
   0   2  -2   75.85    1.76
   0  -2   2   73.28    1.78
   0  -2   2   77.77    1.78
   0  -2   2   73.79    1.72
  -1   2  -2    7.13    0.23
  -1   2  -2    6.95    0.24
  -1   2  -2    7.45    0.25
   1  -2   2    6.76    0.22
   1  -2   2    7.38    0.22
  -2   2  -2   96.50    2.28
  -2   2  -2   96.67    2.36
  -2   2  -2  100.20    2.21
  -2   2  -2   98.41    2.28
  -2   2  -2  101.03    2.34
   2  -2   2   94.26    2.25
   2  -2   2   98.53    2.31
   2  -2   2   97.81    2.28
  -3   2  -2   11.53    0.36
  -3   2  -2   11.29    0.42
  -3   2  -2   11.44    0.39
  -3   2  -2   11.70    0.34
  -3   2  -2   11.31    0.37
  -3   2  -2   11.37    0.38
   3  -2   2   11.49    0.37
   3  -2   2   11.44    0.34
   3  -2   2   11.59    0.37
  -4   2  -2    4.39    0.20
  -4   2  -2    3.91    0.23
  -4   2  -2    4.43    0.22
  -4   2  -2    3.95    0.21
  -4   2  -2    4.17    0.18
  -4   2  -2    3.84    0.26
   4  -2   2    3.97    0.21
   4  -2   2    4.51    0.23
   4  -2   2    4.32    0.20
  -5   2  -2    5.17    0.27
  -5   2  -2    5.72    0.29
  -5   2  -2    6.01    0.35
  -5   2  -2    5.44    0.30
  -5   2  -2    6.31    0.30
   5  -2   2    5.63    0.29
   5  -2   2    5.69    0.34
   5  -2   2    5.62    0.28
  -6   2  -2    3.01    0.22
  -6   2  -2    2.99    0.22
  -6   2  -2    2.73    0.30
  -6   2  -2    3.17    0.25
   6  -2   2    2.83    0.22
   6  -2   2    3.02    0.23
   6  -2   2    2.88    0.31
  -7   2  -2    0.20    0.12
  -7   2  -2    0.13    0.11
  -7   2  -2    0.11    0.10
   7  -2   2    0.20    0.14
   7  -2   2    0.12    0.10
   7   1  -2    0.09    0.10
   7   1  -2   -0.06    0.11
   7   1  -2    0.02    0.10
  -7  -1   2   -0.09    0.08
  -7  -1   2   -0.06    0.10
  -7  -1   2    0.23    0.11
  -7  -1   2    0.02    0.12
   6   1  -2    2.36    0.25
   6   1  -2    2.32    0.25
   6   1  -2    2.02    0.25
   6   1  -2    2.64    0.24
  -6  -1   2    2.20    0.23
  -6  -1   2    1.83    0.21
  -6  -1   2    2.05    0.25
  -6  -1   2    1.71    0.20
   5   1  -2    3.11    0.22
   5   1  -2    3.51    0.26
   5   1  -2    3.16    0.24
  -5  -1   2    3.13    0.23
  -5  -1   2    2.93    0.21
  -5  -1   2    3.32    0.23
  -5  -1   2    2.79    0.22
  -5  -1   2    3.52    0.27
   4   1  -2    2.93    0.23
   4   1  -2    3.36    0.19
   4   1  -2    3.42    0.22
  -4  -1   2    2.98    0.23
  -4  -1   2    3.12    0.19
  -4  -1   2    3.52    0.21
  -4  -1   2    3.34    0.21
  -4  -1   2    2.92    0.19
   3   1  -2    0.64    0.08
   3   1  -2    0.59    0.10
  -3  -1   2    0.77    0.11
  -3  -1   2    0.96    0.11
  -3  -1   2    0.73    0.09
  -3  -1   2    0.62    0.08
  -3  -1   2    0.86    0.10
   2   1  -2   79.83    1.83
   2   1  -2   77.39    1.93
  -2  -1   2   79.27    1.85
  -2  -1   2   79.47    1.84
  -2  -1   2   78.41    1.83
  -2  -1   2   79.35    1.81
  -2  -1   2   77.15    1.93
   1   1  -2    4.44    0.17
  -1  -1   2    4.96    0.16
  -1  -1   2    4.85    0.18
   0   1  -2   31.75    0.74
   0   1  -2   29.79    0.76
   0  -1   2   30.23    0.74
   0  -1   2   29.56    0.72
   0  -1   2   31.66    0.74
  -1   1  -2    0.53    0.06
  -1   1  -2    0.56    0.04
  -1   1  -2    0.63    0.06
  -1   1  -2    0.70    0.07
   1  -1   2    0.51    0.05
   1  -1   2    0.51    0.05
  -2   1  -2   27.77    0.71
  -2   1  -2   27.58    0.69
  -2   1  -2   28.43    0.71
  -2   1  -2   27.46    0.75
  -2   1  -2   27.93    0.67
   2  -1   2   27.11    0.72
   2  -1   2   27.01    0.70
  -3   1  -2   31.90    0.85
  -3   1  -2   32.76    0.85
  -3   1  -2   33.07    0.86
  -3   1  -2   30.74    0.90
  -3   1  -2   31.86    0.81
  -3   1  -2   32.98    0.82
   3  -1   2   33.76    0.88
   3  -1   2   32.37    0.85
  -4   1  -2    8.07    0.31
  -4   1  -2    7.93    0.32
  -4   1  -2    7.68    0.30
  -4   1  -2    8.18    0.32
  -4   1  -2    7.62    0.25
  -4   1  -2    8.22    0.37
   4  -1   2    7.93    0.36
   4  -1   2    7.90    0.33
   4  -1   2    7.99    0.33
   4  -1   2    7.66    0.31
  -5   1  -2    2.39    0.19
  -5   1  -2    2.13    0.20
  -5   1  -2    2.06    0.20
  -5   1  -2    2.01    0.19
  -5   1  -2    1.92    0.22
   5  -1   2    2.26    0.19
   5  -1   2    2.11    0.21
   5  -1   2    1.80    0.22
   5  -1   2    1.65    0.18
  -6   1  -2    0.24    0.10
  -6   1  -2    0.29    0.10
  -6   1  -2    0.09    0.10
  -6   1  -2    0.21    0.09
   6  -1   2    0.19    0.10
   6  -1   2    0.31    0.10
   6  -1   2    0.29    0.13
  -7   1  -2    0.49    0.16
  -7   1  -2    0.78    0.16
   7  -1   2    0.56    0.15
   7  -1   2    0.79    0.19
   7   0  -2    3.59    0.28
   7   0  -2    3.82    0.31
  -7   0   2    3.81    0.29
  -7   0   2    3.89    0.28
  -7   0   2    3.95    0.32
  -7   0   2    3.62    0.29
   6   0  -2    2.67    0.25
   6   0  -2    2.67    0.22
   6   0  -2    2.41    0.26
   6   0  -2    2.40    0.24
  -6   0   2    2.21    0.25
  -6   0   2    2.33    0.24
  -6   0   2    2.56    0.25
  -6   0   2    2.40    0.24
   5   0  -2   11.25    0.45
   5   0  -2   11.57    0.45
   5   0  -2   11.64    0.47
   5   0  -2   11.61    0.47
  -5   0   2   11.96    0.45
  -5   0   2   12.25    0.47
  -5   0   2   11.51    0.46
  -5   0   2   12.03    0.49
   4   0  -2   12.70    0.45
   4   0  -2   12.43    0.45
   4   0  -2   11.89    0.42
  -4   0   2   11.64    0.42
  -4   0   2   12.47    0.44
  -4   0   2   12.13    0.44
  -4   0   2   12.23    0.45
   3   0  -2    5.81    0.26
  -3   0   2    6.81    0.26
  -3   0   2    6.61    0.27
  -3   0   2    6.23    0.26
  -3   0   2    7.02    0.25
  -3   0   2    6.58    0.27
   2   0  -2  947.25   22.89
  -2   0   2  983.56   22.41
  -2   0   2  963.60   22.97
  -2   0   2 1000.00   22.09
  -2   0   2  988.26   21.55
  -2   0   2  989.52   21.93
   1   0  -2    4.48    0.16
  -1   0   2    5.02    0.14
  -1   0   2    4.70    0.16
  -1   0   2    4.60    0.16
  -1   0   2    4.65    0.17
   0   0  -2   29.84    0.71
   0   0   2   29.57    0.69
   0   0   2   29.63    0.67
   0   0   2   30.39    0.71
  -1   0  -2   31.70    0.78
  -1   0  -2   31.01    0.71
  -1   0  -2   31.40    0.79
  -1   0  -2   32.55    0.77
   1   0   2   31.97    0.79
   1   0   2   32.12    0.78
  -2   0  -2  386.47    8.56
  -2   0  -2  382.10    8.55
  -2   0  -2  396.05    8.45
  -2   0  -2  383.89    8.76
   2   0   2  385.60    8.83
   2   0   2  373.19    8.55
   2   0   2  377.52    8.75
  -3   0  -2   12.91    0.45
  -3   0  -2   13.33    0.43
  -3   0  -2   13.48    0.39
  -3   0  -2   13.36    0.40
   3   0   2   13.16    0.45
   3   0   2   13.21    0.43
   3   0   2   13.76    0.44
  -4   0  -2   15.89    0.56
  -4   0  -2   17.03    0.54
  -4   0  -2   17.43    0.52
  -4   0  -2   15.40    0.48
   4   0   2   15.70    0.53
   4   0   2   15.62    0.55
   4   0   2   16.08    0.55
  -5   0  -2   22.56    0.67
  -5   0  -2   22.25    0.71
  -5   0  -2   22.77    0.76
  -5   0  -2   22.94    0.69
   5   0   2   22.27    0.72
   5   0   2   21.86    0.74
   5   0   2   21.73    0.73
   5   0   2   22.03    0.71
  -6   0  -2    2.68    0.21
  -6   0  -2    2.80    0.26
  -6   0  -2    2.97    0.30
  -6   0  -2    2.90    0.22
   6   0   2    2.94    0.24
   6   0   2    2.72    0.26
   6   0   2    2.91    0.30
   6   0   2    2.51    0.25
  -7   0  -2    1.86    0.23
  -7   0  -2    2.13    0.27
   7   0   2    2.04    0.25
   7   0   2    2.47    0.30
   7   0   2    2.39    0.27
   7  -1  -2    1.83    0.25
   7  -1  -2    1.30    0.21
  -7   1   2    1.99    0.25
  -7   1   2    1.59    0.23
  -7   1   2    1.79    0.24
  -7   1   2    1.73    0.24
   6  -1  -2    1.16    0.17
   6  -1  -2    1.21    0.18
   6  -1  -2    1.78    0.21
   6  -1  -2    1.61    0.21
  -6   1   2    1.47    0.20
  -6   1   2    1.39    0.20
  -6   1   2    1.47    0.20
  -6   1   2    1.32    0.19
  -6   1   2    1.25    0.17
   5  -1  -2   10.59    0.44
   5  -1  -2   10.74    0.42
   5  -1  -2   11.33    0.44
  -5   1   2   10.86    0.41
  -5   1   2   10.59    0.45
  -5   1   2   11.37    0.46
  -5   1   2   11.20    0.45
  -5   1   2   11.73    0.45
   4  -1  -2    4.97    0.26
   4  -1  -2    5.13    0.24
   4  -1  -2    5.19    0.25
  -4   1   2    4.85    0.25
  -4   1   2    5.27    0.27
  -4   1   2    5.44    0.27
  -4   1   2    4.77    0.23
  -4   1   2    5.07    0.26
   3  -1  -2   11.56    0.38
   3  -1  -2   12.34    0.39
   3  -1  -2   11.58    0.36
  -3   1   2   11.38    0.35
  -3   1   2   11.38    0.39
  -3   1   2   11.34    0.39
  -3   1   2   12.03    0.40
  -3   1   2   10.88    0.38
   2  -1  -2  117.93    2.82
  -2   1   2  118.05    2.69
  -2   1   2  119.44    2.75
  -2   1   2  116.52    2.82
  -2   1   2  122.31    2.68
   1  -1  -2  125.92    2.95
  -1   1   2  126.48    2.86
  -1   1   2  126.26    2.79
   0  -1  -2    2.53    0.09
   0  -1  -2    2.23    0.08
   0   1   2    2.34    0.09
   0   1   2    2.34    0.08
   0   1   2    2.17    0.08
  -1  -1  -2   70.18    1.65
  -1  -1  -2   71.80    1.66
  -1  -1  -2   67.83    1.60
   1   1   2   69.22    1.52
   1   1   2   69.83    1.61
   1   1   2   69.35    1.64
   1   1   2   69.37    1.65
  -2  -1  -2  446.65   10.59
  -2  -1  -2  452.43   10.29
  -2  -1  -2  442.08   10.07
  -2  -1  -2  464.53    9.85
   2   1   2  474.06   10.47
   2   1   2  446.31   10.07
   2   1   2  439.24   10.29
  -3  -1  -2   18.37    0.49
  -3  -1  -2   18.07    0.55
  -3  -1  -2   18.30    0.50
  -3  -1  -2   18.12    0.56
  -3  -1  -2   17.98    0.55
   3   1   2   17.43    0.55
   3   1   2   18.08    0.57
   3   1   2   18.25    0.55
  -4  -1  -2    8.64    0.36
  -4  -1  -2    8.95    0.33
  -4  -1  -2    9.13    0.38
  -4  -1  -2    8.78    0.38
  -4  -1  -2    8.89    0.32
   4   1   2    9.33    0.38
   4   1   2    8.62    0.37
   4   1   2    8.55    0.37
  -5  -1  -2    3.68    0.22
  -5  -1  -2    3.74    0.26
  -5  -1  -2    3.63    0.22
  -5  -1  -2    4.57    0.28
  -5  -1  -2    3.97    0.26
   5   1   2    3.96    0.26
   5   1   2    3.94    0.26
   5   1   2    3.70    0.26
  -6  -1  -2    2.78    0.27
  -6  -1  -2    2.51    0.21
  -6  -1  -2    2.11    0.21
  -6  -1  -2    2.13    0.24
  -6  -1  -2    2.71    0.28
   6   1   2    2.11    0.24
   6   1   2    2.44    0.26
   6   1   2    2.38    0.25
   6   1   2    2.86    0.28
  -7  -1  -2    0.78    0.17
  -7  -1  -2    0.81    0.18
   7   1   2    0.61    0.18
   7   1   2    0.76    0.18
   7   1   2    0.78    0.17
   7   1   2    0.86    0.19
   7  -2  -2    0.43    0.15
  -7   2   2    0.56    0.15
  -7   2   2    0.31    0.13
  -7   2   2    0.57    0.17
   6  -2  -2    0.95    0.16
  -6   2   2    0.85    0.17
  -6   2   2    0.62    0.15
  -6   2   2    1.25    0.19
   5  -2  -2    0.19    0.08
   5  -2  -2    0.31    0.09
   5  -2  -2    0.15    0.08
  -5   2   2    0.16    0.09
  -5   2   2   -0.03    0.04
  -5   2   2    0.12    0.07
  -5   2   2    0.09    0.08
  -5   2   2    0.11    0.09
   4  -2  -2    6.70    0.29
   4  -2  -2    6.78    0.28
   4  -2  -2    6.61    0.27
  -4   2   2    6.24    0.31
  -4   2   2    6.80    0.32
  -4   2   2    7.21    0.31
  -4   2   2    6.78    0.27
   3  -2  -2   13.39    0.38
   3  -2  -2   13.62    0.40
   3  -2  -2   12.77    0.41
  -3   2   2   12.54    0.42
  -3   2   2   12.96    0.44
  -3   2   2   13.06    0.38
  -3   2   2   12.55    0.44
   2  -2  -2   77.09    1.87
   2  -2  -2   79.46    1.77
   2  -2  -2   79.07    1.82
  -2   2   2   79.57    1.81
  -2   2   2   75.34    1.85
  -2   2   2   76.01    1.87
  -2   2   2   78.75    1.77
   1  -2  -2    2.19    0.09
  -1   2   2    2.02    0.10
  -1   2   2    2.31    0.11
  -1   2   2    2.21    0.11
   0  -2  -2  271.28    6.40
   0  -2  -2  280.79    6.34
   0   2   2  272.75    6.37
   0   2   2  276.16    6.35
  -1  -2  -2   50.02    1.25
  -1  -2  -2   51.53    1.24
  -1  -2  -2   50.52    1.21
   1   2   2   51.06    1.24
   1   2   2   51.52    1.22
  -2  -2  -2    2.64    0.15
  -2  -2  -2    2.63    0.15
   2   2   2    2.84    0.14
   2   2   2    2.75    0.16
  -3  -2  -2   20.93    0.55
  -3  -2  -2   20.40    0.62
  -3  -2  -2   21.24    0.55
  -3  -2  -2   21.72    0.64
   3   2   2   21.01    0.65
   3   2   2   21.13    0.61
  -4  -2  -2    0.45    0.12
  -4  -2  -2    0.58    0.11
  -4  -2  -2    0.57    0.09
  -4  -2  -2    0.70    0.09
   4   2   2    0.77    0.13
   4   2   2    0.45    0.10
   4   2   2    0.82    0.12
  -5  -2  -2    7.60    0.31
  -5  -2  -2    8.25    0.39
  -5  -2  -2    7.57    0.31
  -5  -2  -2    7.72    0.37
   5   2   2    6.89    0.37
   5   2   2    7.14    0.38
   5   2   2    8.07    0.36
  -6  -2  -2    0.33    0.13
  -6  -2  -2    0.23    0.11
   6   2   2    0.55    0.15
   6   2   2    0.26    0.12
   6   2   2    0.21    0.11
   6   2   2    0.40    0.12
  -7  -2  -2    2.79    0.30
  -7  -2  -2    4.28    0.34
   7   2   2    3.62    0.31
   7   2   2    3.27    0.32
   7   2   2    3.55    0.29
   7   2   2    4.32    0.33
   7  -3  -2    3.08    0.34
  -7   3   2    2.71    0.29
  -7   3   2    2.84    0.32
  -7   3   2    3.68    0.37
  -6   3   2    0.62    0.15
  -6   3   2    0.59    0.14
  -6   3   2    0.41    0.13
   5  -3  -2   16.14    0.54
   5  -3  -2   16.47    0.52
  -5   3   2   16.15    0.59
  -5   3   2   15.94    0.51
  -5   3   2   16.43    0.55
  -5   3   2   16.25    0.61
  -5   3   2   15.99    0.61
   4  -3  -2    0.06    0.05
   4  -3  -2    0.08    0.05
   4  -3  -2    0.24    0.07
  -4   3   2    0.10    0.07
  -4   3   2    0.11    0.07
  -4   3   2    0.04    0.05
  -4   3   2    0.01    0.04
  -4   3   2    0.05    0.06
   3  -3  -2    0.34    0.05
   3  -3  -2    0.69    0.08
   3  -3  -2    0.58    0.07
  -3   3   2    0.53    0.10
  -3   3   2    0.43    0.09
  -3   3   2    0.50    0.06
  -3   3   2    0.43    0.08
   2  -3  -2   35.07    0.81
   2  -3  -2   34.52    0.86
   2  -3  -2   34.20    0.82
  -2   3   2   35.14    0.88
  -2   3   2   33.31    0.90
  -2   3   2   34.32    0.91
   1  -3  -2    0.96    0.07
   1  -3  -2    1.11    0.05
  -1   3   2    0.96    0.08
  -1   3   2    1.13    0.08
  -1   3   2    1.08    0.08
   0  -3  -2   91.12    2.11
   0  -3  -2   93.83    2.20
   0   3   2   92.42    2.12
   0   3   2   94.60    2.18
  -1  -3  -2    0.16    0.04
   1   3   2    0.10    0.03
   1   3   2    0.12    0.04
  -2  -3  -2   44.58    1.17
  -2  -3  -2   44.24    1.13
   2   3   2   45.40    1.17
   2   3   2   45.14    1.12
  -3  -3  -2   35.76    1.00
  -3  -3  -2   35.61    0.96
   3   3   2   34.88    0.99
   3   3   2   34.69    0.93
  -4  -3  -2    6.74    0.33
  -4  -3  -2    6.84    0.25
  -4  -3  -2    6.83    0.32
   4   3   2    6.25    0.28
   4   3   2    5.95    0.32
  -5  -3  -2   11.87    0.41
  -5  -3  -2   13.21    0.53
  -5  -3  -2   11.50    0.49
   5   3   2   11.77    0.46
   5   3   2   11.55    0.50
   5   3   2   11.30    0.51
  -6  -3  -2    2.01    0.24
  -6  -3  -2    2.23    0.27
   6   3   2    1.77    0.24
   6   3   2    1.87    0.24
   6   3   2    2.12    0.23
  -7  -3  -2    1.47    0.25
  -7  -3  -2    2.10    0.26
   7   3   2    2.10    0.29
   7   3   2    1.78    0.26
   7   3   2    1.68    0.25
   7   3   2    2.22    0.26
  -7   4   2    0.97    0.20
  -7   4   2    0.55    0.16
  -7   4   2    1.20    0.23
  -6   4   2    0.05    0.08
  -6   4   2    0.02    0.08
  -6   4   2    0.01    0.09
  -5   4   2    4.42    0.30
  -5   4   2    4.93    0.29
  -5   4   2    4.53    0.30
   4  -4  -2    4.81    0.20
   4  -4  -2    4.61    0.19
   4  -4  -2    4.88    0.22
  -4   4   2    5.07    0.29
  -4   4   2    4.61    0.26
  -4   4   2    4.60    0.28
   3  -4  -2   28.51    0.75
   3  -4  -2   27.66    0.70
   3  -4  -2   28.75    0.70
  -3   4   2   28.80    0.80
  -3   4   2   28.11    0.83
  -3   4   2   28.32    0.83
   2  -4  -2    0.68    0.04
   2  -4  -2    0.82    0.07
   2  -4  -2    0.71    0.05
  -2   4   2    0.68    0.10
  -2   4   2    0.64    0.09
  -2   4   2    0.80    0.05
  -2   4   2    0.64    0.10
   1  -4  -2    3.77    0.15
   1  -4  -2    3.55    0.12
  -1   4   2    3.49    0.11
  -1   4   2    3.51    0.17
  -1   4   2    3.45    0.17
   0  -4  -2   19.98    0.52
   0  -4  -2   20.15    0.55
   0   4   2   20.09    0.55
   0   4   2   19.71    0.53
  -1  -4  -2    9.05    0.29
  -1  -4  -2    8.63    0.31
   1   4   2    8.53    0.28
   1   4   2    8.69    0.25
  -2  -4  -2   22.99    0.67
  -2  -4  -2   23.77    0.70
   2   4   2   23.41    0.70
   2   4   2   23.85    0.65
   2   4   2   24.23    0.59
  -3  -4  -2    1.38    0.16
  -3  -4  -2    1.40    0.16
   3   4   2    1.32    0.16
   3   4   2    1.06    0.12
   3   4   2    1.42    0.09
  -4  -4  -2    1.09    0.15
  -4  -4  -2    1.20    0.17
   4   4   2    0.94    0.15
   4   4   2    1.15    0.11
   4   4   2    1.19    0.14
  -5  -4  -2    1.54    0.20
  -5  -4  -2    1.61    0.22
   5   4   2    1.24    0.19
   5   4   2    1.63    0.18
  -6  -4  -2    0.96    0.19
  -6  -4  -2    0.37    0.12
   6   4   2    0.68    0.14
   6   4   2    0.75    0.17
   6   4   2    0.54    0.15
  -7  -4  -2    0.14    0.11
  -7  -4  -2    0.06    0.12
   7   4   2    0.03    0.10
   7   4   2   -0.01    0.09
   7   4   2    0.34    0.16
   7   4   2    0.07    0.11
  -7   5   2    0.67    0.18
  -7   5   2    0.40    0.16
  -7   5   2    0.24    0.14
  -6   5   2    0.19    0.11
  -6   5   2    0.33    0.12
  -6   5   2    0.29    0.13
  -5   5   2    0.01    0.07
  -5   5   2   -0.07    0.07
  -5   5   2    0.06    0.09
   4  -5  -2    8.18    0.29
  -4   5   2    8.28    0.38
  -4   5   2    8.05    0.40
  -4   5   2    8.15    0.40
   3  -5  -2    0.86    0.08
   3  -5  -2    0.71    0.05
   3  -5  -2    0.80    0.09
  -3   5   2    0.96    0.14
  -3   5   2    0.69    0.13
  -3   5   2    0.96    0.13
   2  -5  -2   45.87    1.08
   2  -5  -2   46.13    1.08
   2  -5  -2   45.68    1.14
  -2   5   2   45.42    1.16
  -2   5   2   46.76    1.08
  -2   5   2   46.23    1.21
  -2   5   2   45.61    1.22
   1  -5  -2    0.70    0.07
  -1   5   2    1.00    0.12
  -1   5   2    1.10    0.12
  -1   5   2    0.81    0.05
   0  -5  -2    4.40    0.19
   0  -5  -2    4.00    0.17
   0   5   2    4.18    0.18
   0   5   2    4.31    0.20
  -1  -5  -2    1.28    0.11
  -1  -5  -2    0.90    0.10
   1   5   2    1.30    0.09
   1   5   2    1.17    0.10
  -2  -5  -2    3.51    0.20
  -2  -5  -2    3.72    0.21
   2   5   2    3.19    0.17
   2   5   2    3.60    0.15
  -3  -5  -2   23.79    0.75
  -3  -5  -2   22.77    0.71
   3   5   2   23.31    0.75
   3   5   2   23.30    0.67
   3   5   2   22.53    0.60
  -4  -5  -2    3.89    0.27
  -4  -5  -2    3.62    0.25
   4   5   2    3.42    0.25
   4   5   2    4.00    0.22
   4   5   2    3.45    0.17
  -5  -5  -2    9.71    0.45
  -5  -5  -2    8.56    0.45
   5   5   2    9.34    0.47
   5   5   2    8.40    0.37
  -6  -5  -2    0.07    0.08
  -6  -5  -2    0.01    0.10
   6   5   2    0.02    0.08
   6   5   2    0.12    0.09
  -7  -5  -2    0.78    0.19
  -7  -5  -2    0.64    0.20
   7   5   2    0.71    0.20
   7   5   2    0.67    0.21
   7   5   2    0.56    0.18
  -6   6   2    2.30    0.29
  -6   6   2    1.96    0.25
  -6   6   2    2.09    0.29
  -5   6   2    1.07    0.18
  -5   6   2    1.30    0.21
  -5   6   2    0.99    0.19
  -4   6   2    0.07    0.07
  -4   6   2    0.01    0.07
  -4   6   2    0.10    0.08
   3  -6  -2    9.55    0.31
   3  -6  -2    9.64    0.29
  -3   6   2    9.20    0.39
  -3   6   2    8.79    0.41
  -3   6   2    9.15    0.41
   2  -6  -2   41.27    1.00
   2  -6  -2   41.61    1.05
  -2   6   2   41.25    1.13
  -2   6   2   41.77    0.99
  -2   6   2   40.77    1.15
  -2   6   2   41.16    1.09
   1  -6  -2   12.05    0.35
   1  -6  -2   11.68    0.37
  -1   6   2   11.74    0.42
  -1   6   2   11.77    0.32
  -1   6   2   11.20    0.42
   0  -6  -2   10.28    0.34
   0  -6  -2   10.57    0.36
   0   6   2   10.88    0.38
   0   6   2   10.39    0.36
  -1  -6  -2    6.75    0.28
  -1  -6  -2    6.47    0.29
   1   6   2    6.95    0.25
   1   6   2    6.50    0.27
  -2  -6  -2   32.72    0.91
  -2  -6  -2   31.53    0.94
   2   6   2   31.59    0.87
   2   6   2   33.50    0.83
  -3  -6  -2    4.38    0.26
  -3  -6  -2    3.83    0.26
   3   6   2    4.32    0.27
   3   6   2    4.22    0.22
   3   6   2    4.49    0.19
  -4  -6  -2    0.44    0.12
  -4  -6  -2    0.84    0.16
   4   6   2    0.60    0.13
   4   6   2    0.67    0.11
  -5  -6  -2    7.38    0.40
  -5  -6  -2    7.10    0.41
   5   6   2    7.16    0.33
   5   6   2    6.74    0.41
  -6  -6  -2    0.43    0.14
  -6  -6  -2    0.99    0.21
   6   6   2    0.66    0.16
   6   6   2    0.68    0.14
  -7  -6  -2    2.16    0.29
  -7  -6  -2    2.56    0.34
  -6   7   2    0.53    0.16
  -6   7   2    0.81    0.19
  -5   7   2    4.81    0.36
  -5   7   2    4.30    0.31
  -5   7   2    5.16    0.35
  -4   7   2    2.91    0.29
  -4   7   2    2.56    0.26
  -4   7   2    3.16    0.26
  -3   7   2    5.77    0.30
  -3   7   2    5.72    0.32
  -3   7   2    5.34    0.32
   2  -7  -2    5.26    0.21
   2  -7  -2    5.02    0.20
  -2   7   2    4.46    0.27
  -2   7   2    5.19    0.27
  -2   7   2    4.21    0.26
   1  -7  -2    7.38    0.28
   1  -7  -2    7.24    0.27
  -1   7   2    7.35    0.33
  -1   7   2    8.00    0.35
   0  -7  -2    1.55    0.13
   0  -7  -2    1.76    0.15
   0   7   2    1.79    0.18
   0   7   2    1.89    0.15
  -1  -7  -2    0.55    0.11
  -1  -7  -2    0.66    0.11
   1   7   2    0.63    0.11
   1   7   2    0.58    0.10
  -2  -7  -2   13.75    0.50
  -2  -7  -2   14.18    0.53
   2   7   2   13.72    0.47
   2   7   2   14.96    0.44
  -3  -7  -2   18.00    0.63
  -3  -7  -2   19.04    0.67
   3   7   2   17.18    0.56
   3   7   2   16.90    0.51
  -4  -7  -2    0.00    0.07
  -4  -7  -2   -0.05    0.08
   4   7   2   -0.02    0.06
   4   7   2   -0.01    0.06
  -5  -7  -2    0.90    0.17
  -5  -7  -2    1.13    0.21
   5   7   2    0.68    0.13
   5   7   2    0.87    0.18
  -6  -7  -2    0.08    0.13
  -6  -7  -2    0.08    0.11
   6   7   2    0.02    0.08
  -7  -7  -2    0.09    0.15
  -7  -7  -2    0.06    0.11
  -6   8   2    0.44    0.17
  -6   8   2    1.12    0.22
  -6   8   2    0.85    0.21
  -5   8   2    0.36    0.13
  -5   8   2    0.22    0.13
  -5   8   2    0.15    0.12
  -4   8   2    0.07    0.09
  -4   8   2   -0.14    0.07
  -4   8   2   -0.10    0.08
  -3   8   2    3.70    0.26
  -3   8   2    4.02    0.29
  -3   8   2    3.77    0.28
   2  -8  -2    7.81    0.28
  -2   8   2    7.36    0.35
  -2   8   2    6.84    0.37
  -2   8   2    7.22    0.36
   1  -8  -2    0.68    0.10
   1  -8  -2    0.67    0.10
  -1   8   2    0.58    0.12
  -1   8   2    0.64    0.12
   0  -8  -2    5.37    0.26
   0  -8  -2    5.82    0.26
   0   8   2    5.94    0.28
   0   8   2    4.85    0.27
  -1  -8  -2    0.07    0.07
  -1  -8  -2    0.10    0.06
   1   8   2    0.12    0.07
   1   8   2    0.08    0.06
  -2  -8  -2    2.27    0.19
  -2  -8  -2    2.36    0.20
   2   8   2    2.15    0.15
   2   8   2    2.36    0.18
  -3  -8  -2    3.48    0.27
  -3  -8  -2    3.92    0.27
   3   8   2    3.96    0.21
   3   8   2    4.24    0.24
  -4  -8  -2    1.05    0.18
  -4  -8  -2    0.87    0.19
   4   8   2    0.93    0.14
   4   8   2    1.07    0.19
  -5  -8  -2    1.92    0.25
  -5  -8  -2    1.63    0.25
   5   8   2    1.69    0.19
   5   8   2    1.36    0.22
  -6  -8  -2    0.23    0.12
  -6  -8  -2    0.24    0.15
  -5   9   2   -0.04    0.09
  -5   9   2    0.03    0.11
  -5   9   2   -0.08    0.08
  -4   9   2    0.07    0.11
  -4   9   2   -0.02    0.09
  -4   9   2    0.04    0.11
  -3   9   2    1.30    0.21
  -3   9   2    1.28    0.20
  -3   9   2    1.37    0.19
  -2   9   2    2.68    0.26
  -2   9   2    2.52    0.27
  -2   9   2    2.13    0.22
   1  -9  -2    1.25    0.14
   1  -9  -2    1.36    0.15
  -1   9   2    1.37    0.19
  -1   9   2    1.00    0.16
   0  -9  -2    2.12    0.17
   0  -9  -2    2.32    0.18
   0   9   2    1.88    0.19
   0   9   2    2.04    0.21
  -1  -9  -2    0.17    0.09
  -1  -9  -2    0.24    0.08
   1   9   2    0.28    0.10
   1   9   2    0.22    0.08
  -2  -9  -2    1.41    0.18
  -2  -9  -2    1.27    0.18
   2   9   2    1.49    0.16
   2   9   2    1.26    0.17
  -3  -9  -2    0.77    0.17
  -3  -9  -2    0.96    0.18
   3   9   2    1.04    0.15
  -4  -9  -2    0.26    0.14
  -4  -9  -2    0.27    0.13
   4   9   2    0.15    0.09
   4   9   2    0.15    0.11
  -5  -9  -2   -0.04    0.09
  -5  -9  -2    0.02    0.11
   5   9   2    0.00    0.09
  -6  -9  -2   -0.01    0.11
  -6  -9  -2    0.06    0.12
  -5  10   2    0.36    0.15
  -5  10   2    0.27    0.16
  -4  10   2    0.79    0.17
  -4  10   2    0.49    0.16
  -4  10   2    0.48    0.16
  -3  10   2    5.80    0.39
  -3  10   2    6.11    0.37
  -3  10   2    6.28    0.39
  -2  10   2    3.35    0.28
  -2  10   2    2.61    0.28
   1 -10  -2    0.43    0.10
  -1  10   2    0.29    0.11
  -1  10   2    0.54    0.14
   0 -10  -2    0.23    0.10
   0 -10  -2    0.34    0.10
   0  10   2    0.38    0.11
   0  10   2    0.53    0.12
  -1 -10  -2    0.06    0.08
  -1 -10  -2    0.10    0.09
   1  10   2    0.18    0.09
   1  10   2    0.21    0.10
  -2 -10  -2    1.48    0.20
  -2 -10  -2    1.42    0.22
   2  10   2    1.44    0.17
   2  10   2    0.94    0.16
  -3 -10  -2    3.26    0.32
  -3 -10  -2    3.53    0.30
   3  10   2    3.39    0.24
  -4 -10  -2    0.44    0.16
  -4 -10  -2    0.37    0.14
   4  10   2    0.40    0.12
   4  10   2    0.53    0.16
  -5 -10  -2    0.10    0.13
  -5 -10  -2    0.12    0.12
   5  10   2    0.13    0.11
  -4  11   2    0.17    0.13
  -4  11   2    0.03    0.11
  -3  11   2    0.11    0.11
  -3  11   2   -0.09    0.09
  -3  11   2    0.09    0.10
  -2  11   2    4.69    0.34
  -2  11   2    4.26    0.33
  -1  11   2    4.95    0.34
  -1  11   2    4.27    0.31
   0 -11  -2    0.61    0.13
   0  11   2    0.37    0.13
   0  11   2    0.49    0.14
  -1 -11  -2   -0.03    0.07
  -1 -11  -2   -0.06    0.08
   1  11   2   -0.13    0.07
   1  11   2    0.16    0.09
  -2 -11  -2    1.18    0.19
  -2 -11  -2    1.16    0.21
   2  11   2    1.09    0.18
  -3 -11  -2    0.38    0.13
  -3 -11  -2    0.36    0.15
   3  11   2    0.11    0.09
  -4 -11  -2    0.01    0.11
  -4 -11  -2    0.03    0.09
   4  11   2    0.14    0.11
  -5 -11  -2    0.54    0.19
  -5 -11  -2    0.69    0.18
  -3  12   2    0.10    0.12
  -3  12   2    0.12    0.12
  -2  12   2    0.10    0.10
  -2  12   2    0.00    0.10
  -2  12   2    0.21    0.12
  -1  12   2    4.88    0.34
  -1  12   2    4.38    0.34
   0  12   2    0.78    0.17
   0  12   2    0.77    0.18
  -1 -12  -2    1.80    0.23
   1  12   2    1.99    0.24
   1  12   2    1.40    0.22
  -2 -12  -2    0.24    0.12
  -2 -12  -2    0.45    0.16
   2  12   2    0.42    0.13
  -3 -12  -2    1.78    0.26
  -3 -12  -2    1.78    0.27
   3  12   2    1.84    0.26
   3  12   2    1.65    0.23
  -4 -12  -2    0.24    0.13
  -4 -12  -2    0.07    0.15
  -1  13   2    1.47    0.23
  -1  13   2    1.32    0.23
   0  13   2    1.09    0.21
   0  13   2    0.96    0.19
  -1 -13  -2    0.48    0.14
   1  13   2    0.28    0.13
   1  13   2    0.41    0.14
  -2 -13  -2    0.20    0.11
   2  13   2    0.06    0.11
   2  12  -3    0.59    0.15
  -2 -12   3    0.66    0.16
   1  12  -3    0.54    0.16
  -1 -12   3    0.48    0.14
   0  12  -3    0.47    0.15
   0  12  -3    0.56    0.16
   0 -12   3    0.52    0.14
  -1  12  -3    0.10    0.11
  -1  12  -3    0.15    0.11
   1 -12   3    0.16    0.10
  -2  12  -3    0.11    0.13
  -2  12  -3    0.10    0.12
   4  11  -3    1.60    0.28
  -4 -11   3    1.23    0.25
  -4 -11   3    1.02    0.21
   3  11  -3    0.46    0.18
   3  11  -3    1.05    0.19
  -3 -11   3    1.00    0.21
  -3 -11   3    0.58    0.16
   2  11  -3   -0.07    0.09
  -2 -11   3    0.08    0.09
   1  11  -3    2.77    0.28
  -1 -11   3    3.27    0.31
   0  11  -3    0.79    0.17
   0  11  -3    0.80    0.17
   0 -11   3    1.23    0.19
  -1  11  -3    1.97    0.26
  -1  11  -3    1.32    0.21
   1 -11   3    1.79    0.22
  -2  11  -3    0.76    0.19
  -2  11  -3    0.67    0.17
   2 -11   3    0.87    0.16
  -3  11  -3    0.72    0.20
  -3  11  -3    0.85    0.20
   5  10  -3    0.85    0.22
  -5 -10   3    0.89    0.23
  -5 -10   3    0.90    0.21
   4  10  -3   -0.04    0.14
   4  10  -3    0.06    0.09
  -4 -10   3   -0.04    0.09
  -4 -10   3   -0.03    0.13
   3  10  -3    0.17    0.15
   3  10  -3    0.48    0.13
  -3 -10   3    0.44    0.17
  -3 -10   3    0.26    0.13
   2  10  -3   23.96    0.80
  -2 -10   3   24.57    0.85
  -2 -10   3   23.63    0.83
   1  10  -3    1.84    0.22
   1  10  -3    2.04    0.24
  -1 -10   3    1.86    0.23
   0  10  -3    3.30    0.26
   0  10  -3    3.22    0.30
   0 -10   3    3.53    0.26
  -1  10  -3    2.14    0.25
  -1  10  -3    2.44    0.27
   1 -10   3    2.12    0.23
  -2  10  -3    0.20    0.12
  -2  10  -3    0.11    0.10
   2 -10   3    0.14    0.09
  -3  10  -3    1.80    0.27
  -3  10  -3    1.90    0.26
  -4  10  -3    0.24    0.14
  -4  10  -3    0.49    0.15
  -4  10  -3    0.28    0.13
   5   9  -3    0.01    0.13
  -5  -9   3    0.06    0.11
  -5  -9   3   -0.18    0.10
   4   9  -3    3.08    0.24
   4   9  -3    3.10    0.34
  -4  -9   3    2.87    0.31
  -4  -9   3    2.44    0.30
   3   9  -3    0.13    0.09
   3   9  -3    0.25    0.13
  -3  -9   3    0.00    0.10
  -3  -9   3   -0.11    0.08
   2   9  -3   25.06    0.80
  -2  -9   3   25.97    0.85
  -2  -9   3   25.30    0.86
   1   9  -3    4.77    0.28
   1   9  -3    4.42    0.29
  -1  -9   3    4.48    0.29
  -1  -9   3    4.56    0.29
   0   9  -3   20.94    0.70
   0   9  -3   19.36    0.69
   0  -9   3   19.81    0.67
  -1   9  -3    0.00    0.08
  -1   9  -3    0.20    0.11
   1  -9   3   -0.05    0.07
  -2   9  -3    9.09    0.45
  -2   9  -3    9.41    0.48
   2  -9   3   10.33    0.41
  -3   9  -3    0.06    0.10
  -3   9  -3    0.04    0.09
   3  -9   3    0.04    0.07
  -4   9  -3    3.18    0.35
  -4   9  -3    3.11    0.34
  -4   9  -3    3.49    0.28
  -5   9  -3    0.05    0.11
  -5   9  -3   -0.01    0.10
  -5   9  -3    0.29    0.16
   6   8  -3    1.43    0.26
  -6  -8   3    1.83    0.30
  -6  -8   3    1.65    0.26
   5   8  -3   -0.02    0.11
  -5  -8   3    0.12    0.12
  -5  -8   3    0.16    0.11
   4   8  -3    1.38    0.17
   4   8  -3    1.65    0.25
  -4  -8   3    1.37    0.20
  -4  -8   3    1.52    0.24
   3   8  -3    4.07    0.25
   3   8  -3    4.48    0.31
  -3  -8   3    4.26    0.31
  -3  -8   3    4.21    0.30
   2   8  -3    6.09    0.31
   2   8  -3    5.87    0.28
  -2  -8   3    5.62    0.33
  -2  -8   3    7.01    0.36
   1   8  -3   15.49    0.54
   1   8  -3   15.56    0.55
  -1  -8   3   16.75    0.57
  -1  -8   3   15.34    0.56
   0   8  -3    4.92    0.28
   0   8  -3    4.78    0.28
   0  -8   3    4.76    0.25
   0  -8   3    5.45    0.28
  -1   8  -3   15.36    0.57
  -1   8  -3   14.27    0.56
   1  -8   3   14.79    0.51
  -2   8  -3    0.22    0.10
  -2   8  -3    0.03    0.08
   2  -8   3    0.15    0.07
   2  -8   3    0.14    0.06
  -3   8  -3    0.69    0.15
  -3   8  -3    0.34    0.13
   3  -8   3    0.83    0.12
  -4   8  -3    4.10    0.31
  -4   8  -3    4.19    0.33
  -4   8  -3    3.59    0.27
   4  -8   3    4.16    0.24
  -5   8  -3    0.84    0.18
  -5   8  -3    0.80    0.19
  -5   8  -3    0.95    0.22
   6   7  -3    0.04    0.12
  -6  -7   3    0.16    0.13
  -6  -7   3    0.15    0.11
   5   7  -3    0.02    0.09
   5   7  -3    0.06    0.08
  -5  -7   3    0.06    0.10
  -5  -7   3   -0.03    0.08
   4   7  -3   11.37    0.45
   4   7  -3   12.05    0.55
  -4  -7   3   12.13    0.55
  -4  -7   3   10.90    0.50
   3   7  -3    0.24    0.11
   3   7  -3    0.20    0.08
  -3  -7   3    0.42    0.12
  -3  -7   3    0.28    0.12
   2   7  -3    9.83    0.39
   2   7  -3   10.73    0.37
  -2  -7   3   10.40    0.43
  -2  -7   3    9.85    0.44
   1   7  -3    3.25    0.20
   1   7  -3    2.85    0.18
  -1  -7   3    3.15    0.20
  -1  -7   3    2.96    0.21
   0   7  -3   -0.05    0.04
   0   7  -3    0.00    0.05
   0  -7   3    0.04    0.05
   0  -7   3   -0.04    0.04
  -1   7  -3    9.23    0.39
  -1   7  -3    9.40    0.40
   1  -7   3    9.34    0.35
   1  -7   3    9.11    0.35
  -2   7  -3    1.28    0.18
  -2   7  -3    1.10    0.16
   2  -7   3    1.08    0.12
   2  -7   3    1.11    0.13
  -3   7  -3    3.20    0.26
  -3   7  -3    3.38    0.25
   3  -7   3    3.31    0.20
  -4   7  -3    0.06    0.08
  -4   7  -3    0.03    0.08
  -4   7  -3    0.05    0.09
   4  -7   3    0.05    0.06
  -5   7  -3    0.82    0.19
  -5   7  -3    0.66    0.16
  -5   7  -3    1.08    0.18
  -6   7  -3   -0.03    0.12
  -6   7  -3   -0.07    0.10
  -6   7  -3    0.02    0.11
   7   6  -3    0.09    0.14
  -7  -6   3    0.11    0.13
  -7  -6   3    0.16    0.16
   6   6  -3    3.27    0.36
  -6  -6   3    2.61    0.30
  -6  -6   3    3.17    0.36
   5   6  -3    0.05    0.07
   5   6  -3   -0.02    0.08
  -5  -6   3    0.05    0.10
  -5  -6   3    0.14    0.09
   4   6  -3    0.17    0.12
   4   6  -3    0.26    0.09
  -4  -6   3    0.24    0.09
  -4  -6   3    0.10    0.11
   3   6  -3   12.17    0.44
   3   6  -3   13.44    0.53
  -3  -6   3   12.10    0.52
  -3  -6   3   12.11    0.49
   2   6  -3    0.10    0.06
   2   6  -3    0.16    0.05
  -2  -6   3    0.03    0.05
  -2  -6   3    0.08    0.07
   1   6  -3    1.39    0.11
   1   6  -3    1.36    0.15
  -1  -6   3    1.26    0.15
  -1  -6   3    1.37    0.15
   0   6  -3    0.17    0.06
   0   6  -3    0.20    0.06
   0  -6   3    0.23    0.06
   0  -6   3    0.20    0.06
  -1   6  -3   22.42    0.69
  -1   6  -3   22.77    0.59
  -1   6  -3   21.62    0.68
   1  -6   3   21.72    0.63
   1  -6   3   22.77    0.59
   1  -6   3   22.93    0.65
  -2   6  -3    1.60    0.18
  -2   6  -3    1.66    0.18
   2  -6   3    1.66    0.13
   2  -6   3    1.79    0.12
  -3   6  -3    3.24    0.24
  -3   6  -3    3.05    0.23
   3  -6   3    3.06    0.17
   3  -6   3    3.16    0.19
  -4   6  -3    3.90    0.30
  -4   6  -3    4.38    0.29
  -4   6  -3    4.94    0.28
   4  -6   3    5.01    0.25
  -5   6  -3    0.18    0.10
  -5   6  -3    0.28    0.12
  -5   6  -3    0.25    0.11
   5  -6   3    0.35    0.10
  -6   6  -3    0.30    0.15
  -6   6  -3    0.13    0.12
  -6   6  -3    0.31    0.13
   7   5  -3    0.46    0.19
  -7  -5   3    0.35    0.14
  -7  -5   3    0.45    0.19
   6   5  -3    3.45    0.37
   6   5  -3    3.90    0.27
   6   5  -3    3.91    0.33
  -6  -5   3    4.61    0.35
  -6  -5   3    3.93    0.31
   5   5  -3    1.47    0.23
   5   5  -3    1.90    0.20
  -5  -5   3    2.29    0.28
  -5  -5   3    1.66    0.21
   4   5  -3    7.79    0.34
   4   5  -3    8.01    0.41
  -4  -5   3    8.32    0.39
  -4  -5   3    8.45    0.42
   3   5  -3   -0.04    0.04
   3   5  -3   -0.01    0.03
   3   5  -3    0.06    0.08
  -3  -5   3    0.05    0.07
  -3  -5   3    0.09    0.06
   2   5  -3    0.72    0.10
   2   5  -3    1.11    0.09
   2   5  -3    0.78    0.12
  -2  -5   3    0.61    0.11
  -2  -5   3    0.75    0.12
   1   5  -3   20.87    0.59
   1   5  -3   20.42    0.56
  -1  -5   3   20.07    0.61
  -1  -5   3   19.59    0.59
   0   5  -3    8.11    0.30
   0   5  -3    8.24    0.31
   0  -5   3    8.54    0.29
   0  -5   3    8.85    0.31
   0  -5   3    8.31    0.31
  -1   5  -3    6.08    0.20
  -1   5  -3    6.06    0.27
  -1   5  -3    5.95    0.29
  -1   5  -3    6.29    0.28
   1  -5   3    6.20    0.20
   1  -5   3    6.33    0.24
   1  -5   3    5.77    0.24
  -2   5  -3    9.09    0.38
  -2   5  -3    9.02    0.38
  -2   5  -3    8.77    0.35
   2  -5   3    9.56    0.32
   2  -5   3    8.93    0.32
  -3   5  -3    9.57    0.37
  -3   5  -3    9.40    0.43
  -3   5  -3   10.06    0.41
   3  -5   3   10.11    0.34
   3  -5   3   10.39    0.36
  -4   5  -3    1.38    0.20
  -4   5  -3    1.86    0.21
  -4   5  -3    1.36    0.16
   4  -5   3    1.56    0.15
   4  -5   3    1.54    0.15
  -5   5  -3    2.59    0.21
  -5   5  -3    2.72    0.31
  -5   5  -3    2.52    0.27
   5  -5   3    2.59    0.19
  -6   5  -3    0.74    0.18
  -6   5  -3    1.10    0.23
  -6   5  -3    1.11    0.18
  -7   5  -3    0.04    0.12
   7   4  -3    1.30    0.24
   7   4  -3    1.53    0.26
  -7  -4   3    0.98    0.23
  -7  -4   3    1.07    0.21
   6   4  -3    0.96    0.16
   6   4  -3    1.50    0.24
   6   4  -3    1.14    0.21
  -6  -4   3    1.15    0.19
  -6  -4   3    1.18    0.22
   5   4  -3    3.25    0.27
   5   4  -3    3.39    0.23
  -5  -4   3    3.41    0.26
  -5  -4   3    3.33    0.32
   4   4  -3    1.61    0.21
   4   4  -3    1.51    0.16
  -4  -4   3    1.50    0.20
  -4  -4   3    1.50    0.18
   3   4  -3    0.36    0.06
   3   4  -3    0.21    0.10
   3   4  -3    0.32    0.07
  -3  -4   3    0.45    0.10
  -3  -4   3    0.29    0.07
  -3  -4   3    0.34    0.10
   2   4  -3   19.39    0.57
   2   4  -3   20.29    0.52
   2   4  -3   19.85    0.63
  -2  -4   3   19.97    0.63
  -2  -4   3   19.54    0.59
   1   4  -3   14.53    0.40
   1   4  -3   13.54    0.45
   1   4  -3   14.66    0.48
   1   4  -3   14.34    0.43
  -1  -4   3   13.92    0.44
  -1  -4   3   14.16    0.45
   0   4  -3    4.24    0.19
   0   4  -3    4.65    0.23
   0   4  -3    4.70    0.19
   0   4  -3    5.06    0.21
   0  -4   3    4.50    0.19
   0  -4   3    4.65    0.19
   0  -4   3    4.86    0.20
  -1   4  -3    8.90    0.32
  -1   4  -3    8.76    0.24
  -1   4  -3    8.57    0.32
  -1   4  -3    8.90    0.34
   1  -4   3    8.37    0.24
   1  -4   3    8.68    0.29
   1  -4   3    8.60    0.29
  -2   4  -3    2.11    0.16
  -2   4  -3    2.36    0.18
  -2   4  -3    2.31    0.16
   2  -4   3    2.22    0.13
   2  -4   3    2.26    0.13
  -3   4  -3    0.42    0.08
  -3   4  -3    0.44    0.09
  -3   4  -3    0.33    0.09
  -3   4  -3    0.48    0.09
   3  -4   3    0.43    0.08
   3  -4   3    0.41    0.07
  -4   4  -3    1.30    0.19
  -4   4  -3    1.41    0.16
  -4   4  -3    1.31    0.17
   4  -4   3    1.38    0.15
   4  -4   3    1.44    0.14
  -5   4  -3    0.41    0.11
  -5   4  -3    0.46    0.14
  -5   4  -3    0.50    0.12
   5  -4   3    0.31    0.09
   5  -4   3    0.44    0.10
  -6   4  -3    0.37    0.15
  -6   4  -3    0.62    0.14
  -6   4  -3    0.51    0.13
   6  -4   3    0.35    0.11
  -7   4  -3    0.18    0.12
  -7   4  -3   -0.02    0.13
   7  -4   3    0.01    0.12
   7   3  -3    1.54    0.25
   7   3  -3    1.24    0.24
  -7  -3   3    1.10    0.22
  -7  -3   3    0.82    0.19
   6   3  -3    1.63    0.23
   6   3  -3    2.10    0.27
  -6  -3   3    1.82    0.26
  -6  -3   3    1.42    0.21
   5   3  -3    2.41    0.27
  -5  -3   3    2.33    0.24
  -5  -3   3    2.08    0.26
   4   3  -3    0.32    0.11
   4   3  -3    0.38    0.07
  -4  -3   3    0.48    0.12
  -4  -3   3    0.40    0.10
  -4  -3   3    0.35    0.07
   3   3  -3    0.05    0.05
   3   3  -3    0.03    0.03
   3   3  -3   -0.02    0.05
  -3  -3   3   -0.02    0.05
  -3  -3   3   -0.02    0.04
  -3  -3   3    0.10    0.05
   2   3  -3   31.81    0.82
   2   3  -3   32.00    0.88
   2   3  -3   30.73    0.76
  -2  -3   3   31.46    0.84
  -2  -3   3   31.44    0.88
   1   3  -3   94.67    2.31
   1   3  -3   99.39    2.21
   1   3  -3   96.19    2.32
   1   3  -3   95.73    2.22
  -1  -3   3   94.57    2.31
  -1  -3   3   93.10    2.22
   0   3  -3   15.49    0.43
   0   3  -3   14.36    0.43
   0   3  -3   15.55    0.42
   0   3  -3   15.66    0.47
   0  -3   3   15.06    0.42
   0  -3   3   15.01    0.42
   0  -3   3   15.82    0.44
  -1   3  -3   16.17    0.48
  -1   3  -3   16.18    0.51
  -1   3  -3   16.76    0.50
   1  -3   3   17.45    0.47
   1  -3   3   16.95    0.46
  -2   3  -3    0.39    0.07
  -2   3  -3    0.43    0.09
  -2   3  -3    0.36    0.07
   2  -3   3    0.42    0.07
   2  -3   3    0.41    0.07
  -3   3  -3    0.13    0.07
  -3   3  -3    0.24    0.06
  -3   3  -3    0.07    0.03
  -3   3  -3    0.10    0.05
  -3   3  -3    0.00    0.04
   3  -3   3    0.23    0.06
   3  -3   3    0.15    0.03
   3  -3   3    0.11    0.05
  -4   3  -3   19.14    0.63
  -4   3  -3   20.46    0.60
  -4   3  -3   19.40    0.69
  -4   3  -3   18.80    0.59
   4  -3   3   19.71    0.60
   4  -3   3   18.63    0.59
  -5   3  -3    1.59    0.22
  -5   3  -3    2.69    0.20
  -5   3  -3    2.05    0.22
   5  -3   3    2.27    0.18
   5  -3   3    1.97    0.17
  -6   3  -3    0.07    0.09
  -6   3  -3    0.08    0.08
  -6   3  -3    0.01    0.08
   6  -3   3    0.07    0.07
   6  -3   3   -0.01    0.09
  -7   3  -3    1.99    0.26
  -7   3  -3    2.05    0.29
   7  -3   3    1.59    0.27
   7  -3   3    1.65    0.21
   7   2  -3    0.01    0.11
   7   2  -3    0.12    0.10
   7   2  -3    0.13    0.12
  -7  -2   3    0.05    0.09
  -7  -2   3    0.00    0.11
  -7  -2   3   -0.10    0.08
  -7  -2   3    0.18    0.13
   6   2  -3    0.04    0.08
   6   2  -3    0.13    0.11
  -6  -2   3   -0.03    0.08
  -6  -2   3    0.05    0.09
  -6  -2   3    0.14    0.09
  -6  -2   3    0.13    0.10
   5   2  -3    3.91    0.28
  -5  -2   3    3.78    0.28
  -5  -2   3    3.57    0.25
  -5  -2   3    3.42    0.24
  -5  -2   3    3.60    0.24
   4   2  -3    2.37    0.23
   4   2  -3    2.20    0.14
  -4  -2   3    2.16    0.17
  -4  -2   3    1.97    0.19
  -4  -2   3    2.59    0.18
  -4  -2   3    2.28    0.23
   3   2  -3   18.29    0.60
   3   2  -3   18.45    0.49
  -3  -2   3   19.18    0.56
  -3  -2   3   17.68    0.55
  -3  -2   3   18.18    0.60
   2   2  -3    4.59    0.20
   2   2  -3    4.45    0.14
   2   2  -3    4.77    0.22
  -2  -2   3    4.25    0.21
  -2  -2   3    4.60    0.19
  -2  -2   3    4.48    0.19
   1   2  -3    0.06    0.04
   1   2  -3    0.04    0.03
  -1  -2   3    0.02    0.03
  -1  -2   3    0.04    0.03
   0   2  -3    0.70    0.05
   0   2  -3    0.83    0.06
   0   2  -3    0.75    0.07
   0   2  -3    0.70    0.08
   0  -2   3    0.67    0.05
   0  -2   3    0.82    0.06
   0  -2   3    0.68    0.05
  -1   2  -3   28.35    0.73
  -1   2  -3   28.87    0.77
  -1   2  -3   29.70    0.77
   1  -2   3   28.17    0.72
   1  -2   3   30.63    0.74
  -2   2  -3    3.54    0.17
  -2   2  -3    3.55    0.17
  -2   2  -3    3.38    0.19
  -2   2  -3    3.33    0.11
   2  -2   3    3.37    0.15
   2  -2   3    3.51    0.16
  -3   2  -3    5.05    0.27
  -3   2  -3    6.02    0.25
  -3   2  -3    5.29    0.19
  -3   2  -3    5.68    0.23
  -3   2  -3    5.56    0.23
  -3   2  -3    5.53    0.24
   3  -2   3    5.65    0.23
   3  -2   3    5.35    0.23
   3  -2   3    5.57    0.20
  -4   2  -3   20.48    0.63
  -4   2  -3   20.52    0.59
  -4   2  -3   19.71    0.61
  -4   2  -3   19.66    0.57
  -4   2  -3   19.20    0.57
  -4   2  -3   19.97    0.69
   4  -2   3   20.09    0.57
   4  -2   3   19.52    0.61
   4  -2   3   19.95    0.61
  -5   2  -3   10.83    0.50
  -5   2  -3   10.79    0.36
  -5   2  -3   10.66    0.41
  -5   2  -3   11.14    0.45
  -5   2  -3   10.40    0.43
   5  -2   3   10.69    0.43
   5  -2   3   10.71    0.43
   5  -2   3   11.50    0.50
  -6   2  -3   -0.02    0.07
  -6   2  -3    0.06    0.09
  -6   2  -3   -0.07    0.05
   6  -2   3   -0.04    0.08
   6  -2   3    0.06    0.07
   6  -2   3    0.09    0.08
  -7   2  -3    0.94    0.20
  -7   2  -3    1.03    0.18
   7  -2   3    1.07    0.18
   7  -2   3    1.23    0.23
   7   1  -3    0.01    0.10
   7   1  -3   -0.09    0.10
   7   1  -3    0.15    0.10
  -7  -1   3   -0.08    0.10
  -7  -1   3    0.04    0.10
  -7  -1   3    0.04    0.10
  -7  -1   3   -0.09    0.08
   6   1  -3    5.54    0.34
   6   1  -3    5.48    0.34
  -6  -1   3    5.70    0.32
  -6  -1   3    5.81    0.33
  -6  -1   3    5.56    0.32
  -6  -1   3    5.37    0.35
   5   1  -3   -0.01    0.07
   5   1  -3    0.08    0.10
   5   1  -3   -0.09    0.06
  -5  -1   3    0.09    0.08
  -5  -1   3   -0.04    0.06
  -5  -1   3   -0.06    0.08
  -5  -1   3    0.11    0.08
  -5  -1   3    0.09    0.08
   4   1  -3   54.27    1.47
   4   1  -3   54.31    1.37
  -4  -1   3   55.79    1.41
  -4  -1   3   54.12    1.48
  -4  -1   3   53.86    1.39
  -4  -1   3   54.03    1.38
  -4  -1   3   55.51    1.40
   3   1  -3    4.58    0.24
   3   1  -3    4.79    0.19
  -3  -1   3    4.67    0.19
  -3  -1   3    5.22    0.24
  -3  -1   3    4.65    0.21
  -3  -1   3    4.59    0.24
  -3  -1   3    5.29    0.23
   2   1  -3    7.94    0.22
   2   1  -3    8.07    0.30
  -2  -1   3    8.02    0.23
  -2  -1   3    8.24    0.28
  -2  -1   3    8.31    0.27
  -2  -1   3    7.89    0.30
  -2  -1   3    7.64    0.28
   1   1  -3   33.50    0.82
   1   1  -3   33.07    0.85
  -1  -1   3   33.24    0.80
  -1  -1   3   32.77    0.85
   0   1  -3    2.53    0.12
   0   1  -3    2.61    0.11
   0   1  -3    2.45    0.11
   0  -1   3    2.36    0.11
   0  -1   3    2.47    0.11
   0  -1   3    2.43    0.11
  -1   1  -3    0.08    0.02
  -1   1  -3    0.16    0.04
   1  -1   3    0.01    0.02
   1  -1   3    0.02    0.02
  -2   1  -3    2.45    0.16
  -2   1  -3    2.52    0.11
  -2   1  -3    2.66    0.13
  -2   1  -3    2.68    0.11
  -2   1  -3    2.44    0.14
   2  -1   3    2.69    0.14
   2  -1   3    2.68    0.14
  -3   1  -3    0.63    0.09
  -3   1  -3    0.60    0.08
  -3   1  -3    0.62    0.11
  -3   1  -3    0.58    0.08
  -3   1  -3    0.64    0.09
   3  -1   3    0.43    0.08
   3  -1   3    0.51    0.08
   3  -1   3    0.69    0.11
  -4   1  -3    2.31    0.16
  -4   1  -3    2.46    0.16
  -4   1  -3    2.41    0.18
  -4   1  -3    2.21    0.23
  -4   1  -3    2.50    0.13
  -4   1  -3    2.30    0.15
   4  -1   3    2.31    0.23
   4  -1   3    2.56    0.18
   4  -1   3    2.37    0.17
  -5   1  -3    1.34    0.20
  -5   1  -3    1.65    0.18
  -5   1  -3    1.42    0.11
  -5   1  -3    1.57    0.18
  -5   1  -3    1.42    0.15
  -5   1  -3    1.70    0.18
   5  -1   3    1.60    0.19
   5  -1   3    1.66    0.17
   5  -1   3    1.31    0.17
   5  -1   3    1.54    0.21
  -6   1  -3    2.68    0.22
  -6   1  -3    2.72    0.29
  -6   1  -3    2.68    0.26
   6  -1   3    2.65    0.29
   6  -1   3    2.47    0.25
   6  -1   3    2.99    0.23
  -7   1  -3    0.06    0.10
  -7   1  -3    0.21    0.11
   7  -1   3    0.09    0.11
   7  -1   3    0.16    0.11
   7  -1   3    0.17    0.11
   7   0  -3    1.22    0.22
  -7   0   3    0.93    0.18
  -7   0   3    0.71    0.17
  -7   0   3    0.75    0.16
   6   0  -3    4.76    0.31
   6   0  -3    5.48    0.33
   6   0  -3    5.39    0.31
   6   0  -3    5.37    0.31
  -6   0   3    4.83    0.31
  -6   0   3    5.24    0.33
  -6   0   3    5.54    0.31
  -6   0   3    4.75    0.30
  -6   0   3    5.41    0.32
   5   0  -3    1.53    0.17
   5   0  -3    1.52    0.18
   5   0  -3    1.05    0.17
  -5   0   3    1.32    0.16
  -5   0   3    1.26    0.17
  -5   0   3    1.58    0.18
  -5   0   3    1.54    0.19
  -5   0   3    1.25    0.18
   4   0  -3   19.45    0.64
   4   0  -3   20.80    0.66
   4   0  -3   20.55    0.61
  -4   0   3   20.71    0.65
  -4   0   3   20.54    0.64
  -4   0   3   20.41    0.62
  -4   0   3   20.17    0.66
  -4   0   3   20.79    0.62
   3   0  -3    4.79    0.24
  -3   0   3    5.54    0.25
  -3   0   3    5.74    0.22
  -3   0   3    5.37    0.24
  -3   0   3    4.93    0.24
  -3   0   3    5.27    0.21
   2   0  -3   52.42    1.34
  -2   0   3   52.08    1.34
  -2   0   3   54.32    1.29
  -2   0   3   54.35    1.26
  -2   0   3   53.19    1.27
  -2   0   3   55.06    1.31
   1   0  -3    2.93    0.11
   1   0  -3    2.64    0.12
  -1   0   3    2.73    0.10
  -1   0   3    2.66    0.12
  -1   0   3    2.52    0.12
  -1   0   3    2.22    0.12
   0   0  -3    0.09    0.02
   0   0  -3    0.08    0.02
   0   0   3    0.10    0.02
   0   0   3    0.09    0.02
   0   0   3    0.11    0.02
  -1   0  -3   43.72    1.00
  -1   0  -3   40.86    1.02
  -1   0  -3   42.67    0.99
   1   0   3   40.70    1.02
   1   0   3   40.28    0.99
   1   0   3   40.92    1.01
  -2   0  -3   15.29    0.47
  -2   0  -3   15.61    0.41
  -2   0  -3   15.27    0.44
  -2   0  -3   15.67    0.39
  -2   0  -3   15.15    0.43
   2   0   3   15.52    0.46
   2   0   3   15.37    0.45
   2   0   3   14.77    0.46
  -3   0  -3    1.42    0.10
  -3   0  -3    1.41    0.09
  -3   0  -3    1.33    0.14
  -3   0  -3    1.69    0.13
  -3   0  -3    1.52    0.12
   3   0   3    1.38    0.14
   3   0   3    1.27    0.13
   3   0   3    1.46    0.12
  -4   0  -3   15.76    0.57
  -4   0  -3   15.59    0.52
  -4   0  -3   16.05    0.50
  -4   0  -3   16.69    0.48
  -4   0  -3   14.79    0.52
   4   0   3   15.76    0.56
   4   0   3   16.97    0.56
   4   0   3   16.14    0.54
  -5   0  -3    9.52    0.36
  -5   0  -3    9.75    0.41
  -5   0  -3   10.33    0.39
  -5   0  -3    9.95    0.45
  -5   0  -3    9.66    0.42
   5   0   3    9.65    0.44
   5   0   3    9.29    0.41
   5   0   3    9.29    0.40
   5   0   3    8.88    0.41
  -6   0  -3    1.01    0.18
  -6   0  -3    1.11    0.17
  -6   0  -3    0.68    0.13
  -6   0  -3    0.92    0.17
   6   0   3    0.78    0.18
   6   0   3    0.98    0.17
   6   0   3    0.92    0.16
   6   0   3    0.87    0.16
  -7   0  -3    0.24    0.11
  -7   0  -3    0.14    0.12
   7   0   3    0.35    0.15
   7   0   3    0.22    0.12
   7   0   3    0.14    0.11
   7  -1  -3    1.07    0.20
  -7   1   3    0.41    0.15
  -7   1   3    0.57    0.16
  -7   1   3    0.69    0.16
   6  -1  -3    2.48    0.25
   6  -1  -3    2.35    0.24
   6  -1  -3    2.71    0.22
   6  -1  -3    2.84    0.24
  -6   1   3    3.06    0.25
  -6   1   3    2.53    0.21
  -6   1   3    2.40    0.26
  -6   1   3    2.51    0.26
   5  -1  -3    0.18    0.09
   5  -1  -3   -0.11    0.06
   5  -1  -3    0.05    0.07
  -5   1   3    0.05    0.07
  -5   1   3   -0.01    0.07
  -5   1   3    0.05    0.08
  -5   1   3   -0.04    0.04
  -5   1   3   -0.04    0.06
   4  -1  -3   12.54    0.45
   4  -1  -3   13.65    0.48
   4  -1  -3   12.73    0.43
  -4   1   3   12.63    0.47
  -4   1   3   13.22    0.47
  -4   1   3   12.99    0.43
  -4   1   3   13.29    0.48
   3  -1  -3    1.52    0.12
  -3   1   3    1.70    0.13
  -3   1   3    1.59    0.15
  -3   1   3    1.05    0.11
  -3   1   3    1.55    0.11
  -3   1   3    1.37    0.14
   2  -1  -3   53.00    1.28
  -2   1   3   52.59    1.27
  -2   1   3   50.83    1.20
  -2   1   3   50.36    1.24
  -2   1   3   51.12    1.29
  -2   1   3   50.48    1.23
   1  -1  -3   10.34    0.31
   1  -1  -3   10.68    0.28
  -1   1   3   10.38    0.28
  -1   1   3    9.97    0.31
  -1   1   3   10.33    0.31
   0  -1  -3    3.37    0.11
   0  -1  -3    3.57    0.12
   0  -1  -3    3.47    0.13
   0   1   3    3.46    0.12
   0   1   3    3.50    0.12
   0   1   3    3.48    0.11
  -1  -1  -3    2.84    0.12
  -1  -1  -3    3.01    0.12
   1   1   3    3.11    0.13
   1   1   3    2.85    0.12
   1   1   3    2.75    0.13
  -2  -1  -3   84.71    2.04
  -2  -1  -3   85.42    1.86
   2   1   3   84.41    2.04
   2   1   3   81.26    2.02
   2   1   3   86.77    1.86
  -3  -1  -3    0.23    0.05
  -3  -1  -3    0.14    0.04
  -3  -1  -3    0.12    0.06
  -3  -1  -3    0.14    0.06
  -3  -1  -3    0.22    0.06
   3   1   3    0.20    0.06
   3   1   3    0.08    0.05
   3   1   3    0.17    0.06
  -4  -1  -3   42.19    1.14
  -4  -1  -3   42.40    1.03
  -4  -1  -3   41.38    1.12
  -4  -1  -3   40.39    1.05
  -4  -1  -3   40.68    1.15
   4   1   3   40.93    1.14
   4   1   3   42.68    1.13
   4   1   3   40.24    1.15
  -5  -1  -3    0.45    0.12
  -5  -1  -3    0.60    0.13
  -5  -1  -3    0.61    0.13
  -5  -1  -3    0.43    0.09
  -5  -1  -3    0.30    0.09
   5   1   3    0.47    0.12
   5   1   3    0.59    0.14
   5   1   3    0.53    0.13
  -6  -1  -3    8.94    0.43
  -6  -1  -3    8.33    0.43
  -6  -1  -3    7.96    0.41
   6   1   3    8.79    0.43
   6   1   3    8.45    0.43
   6   1   3    8.24    0.42
   6   1   3    8.13    0.42
  -7  -1  -3    2.85    0.30
   7   1   3    2.57    0.30
   7   1   3    2.67    0.29
   7   1   3    2.62    0.29
   7  -2  -3    1.72    0.25
  -7   2   3    1.66    0.24
  -7   2   3    2.39    0.28
  -7   2   3    1.20    0.21
   6  -2  -3    0.40    0.12
  -6   2   3    0.51    0.14
  -6   2   3    0.33    0.11
  -6   2   3    0.55    0.13
  -6   2   3    0.49    0.13
   5  -2  -3    3.12    0.22
   5  -2  -3    3.07    0.21
   5  -2  -3    3.26    0.20
  -5   2   3    3.49    0.25
  -5   2   3    3.31    0.24
  -5   2   3    2.94    0.23
  -5   2   3    3.04    0.20
  -5   2   3    3.75    0.24
   4  -2  -3    1.34    0.15
   4  -2  -3    1.15    0.13
   4  -2  -3    1.33    0.13
  -4   2   3    1.17    0.15
  -4   2   3    1.58    0.17
  -4   2   3    1.24    0.16
  -4   2   3    1.32    0.15
  -4   2   3    1.27    0.13
   3  -2  -3    0.02    0.03
   3  -2  -3   -0.01    0.03
   3  -2  -3    0.01    0.04
  -3   2   3   -0.02    0.04
  -3   2   3    0.05    0.04
  -3   2   3    0.02    0.04
  -3   2   3    0.08    0.05
  -3   2   3    0.00    0.03
   2  -2  -3   12.42    0.37
   2  -2  -3   11.63    0.31
  -2   2   3   11.92    0.38
  -2   2   3   11.84    0.39
  -2   2   3   11.90    0.37
  -2   2   3   12.29    0.31
   1  -2  -3   18.05    0.42
   1  -2  -3   17.30    0.47
  -1   2   3   18.54    0.48
  -1   2   3   17.84    0.49
  -1   2   3   17.49    0.47
   0  -2  -3    0.75    0.05
   0  -2  -3    0.78    0.05
   0  -2  -3    0.62    0.06
   0   2   3    0.70    0.05
   0   2   3    0.71    0.06
   0   2   3    0.59    0.06
   0   2   3    0.66    0.05
  -1  -2  -3   12.33    0.36
  -1  -2  -3   11.97    0.35
   1   2   3   12.47    0.35
   1   2   3   12.29    0.36
  -2  -2  -3   12.60    0.40
  -2  -2  -3   12.68    0.40
   2   2   3   12.73    0.39
   2   2   3   12.85    0.33
   2   2   3   12.36    0.41
  -3  -2  -3    4.20    0.16
  -3  -2  -3    4.04    0.21
  -3  -2  -3    3.94    0.21
   3   2   3    4.27    0.21
   3   2   3    3.85    0.22
   3   2   3    3.99    0.22
  -4  -2  -3   44.82    1.18
  -4  -2  -3   44.07    1.21
  -4  -2  -3   42.63    1.08
  -4  -2  -3   42.29    1.05
   4   2   3   41.59    1.17
   4   2   3   43.73    1.22
   4   2   3   43.99    1.19
  -5  -2  -3    1.39    0.18
  -5  -2  -3    1.53    0.20
  -5  -2  -3    1.44    0.15
  -5  -2  -3    1.63    0.15
   5   2   3    1.42    0.19
   5   2   3    1.26    0.18
   5   2   3    1.67    0.20
  -6  -2  -3    8.24    0.43
  -6  -2  -3    7.72    0.41
   6   2   3    7.85    0.41
   6   2   3    8.09    0.42
   6   2   3    7.63    0.42
  -7  -2  -3   -0.03    0.12
  -7  -2  -3   -0.06    0.09
   7   2   3    0.01    0.11
   7   2   3   -0.03    0.12
   7   2   3    0.01    0.09
   7   2   3   -0.07    0.09
   7  -3  -3    1.26    0.23
  -7   3   3    1.18    0.21
  -7   3   3    1.25    0.21
  -7   3   3    1.46    0.24
  -6   3   3    0.05    0.08
  -6   3   3    0.05    0.07
  -6   3   3   -0.01    0.08
  -6   3   3   -0.01    0.07
   5  -3  -3    2.01    0.19
  -5   3   3    2.22    0.18
  -5   3   3    1.28    0.18
  -5   3   3    1.69    0.21
  -5   3   3    1.30    0.19
   4  -3  -3    2.55    0.15
   4  -3  -3    2.65    0.15
   4  -3  -3    2.60    0.17
  -4   3   3    2.63    0.15
  -4   3   3    2.82    0.20
  -4   3   3    2.08    0.21
  -4   3   3    2.71    0.20
   3  -3  -3    2.02    0.10
   3  -3  -3    2.20    0.13
   3  -3  -3    1.96    0.11
  -3   3   3    1.94    0.15
  -3   3   3    1.64    0.17
  -3   3   3    1.86    0.10
  -3   3   3    1.86    0.14
   2  -3  -3   10.67    0.27
   2  -3  -3   11.20    0.27
   2  -3  -3   11.42    0.33
  -2   3   3   10.43    0.37
  -2   3   3    9.74    0.35
  -2   3   3   10.01    0.35
   1  -3  -3    4.62    0.17
  -1   3   3    4.32    0.19
  -1   3   3    4.31    0.18
  -1   3   3    4.43    0.18
   0  -3  -3    3.51    0.15
   0  -3  -3    3.81    0.13
   0  -3  -3    3.64    0.13
   0   3   3    3.78    0.13
   0   3   3    3.28    0.13
   0   3   3    3.39    0.15
  -1  -3  -3    1.72    0.11
  -1  -3  -3    1.76    0.11
   1   3   3    1.94    0.11
   1   3   3    1.59    0.10
  -2  -3  -3    2.94    0.16
  -2  -3  -3    2.64    0.16
   2   3   3    2.76    0.15
   2   3   3    2.60    0.16
  -3  -3  -3    6.08    0.28
  -3  -3  -3    6.76    0.29
   3   3   3    5.82    0.29
   3   3   3    6.09    0.26
  -4  -3  -3    0.88    0.09
  -4  -3  -3    0.78    0.13
  -4  -3  -3    0.84    0.14
   4   3   3    0.81    0.14
   4   3   3    0.93    0.12
   4   3   3    0.95    0.14
  -5  -3  -3    2.44    0.26
  -5  -3  -3    2.03    0.23
   5   3   3    1.62    0.21
   5   3   3    1.83    0.23
   5   3   3    2.16    0.22
  -6  -3  -3    6.65    0.37
  -6  -3  -3    5.80    0.37
   6   3   3    5.73    0.37
   6   3   3    6.69    0.36
   6   3   3    6.13    0.37
  -7  -3  -3    0.66    0.17
  -7  -3  -3    1.19    0.23
   7   3   3    0.20    0.13
   7   3   3    0.74    0.17
   7   3   3    0.62    0.16
   7   3   3    0.94    0.21
  -7   4   3    0.09    0.11
  -7   4   3    0.04    0.11
  -7   4   3    0.17    0.12
  -6   4   3    0.05    0.08
  -6   4   3    0.03    0.08
  -6   4   3   -0.04    0.08
   5  -4  -3    2.46    0.19
  -5   4   3    2.85    0.28
  -5   4   3    2.07    0.24
  -5   4   3    2.38    0.24
   4  -4  -3    0.56    0.07
   4  -4  -3    0.47    0.08
  -4   4   3    0.38    0.10
  -4   4   3    0.54    0.11
  -4   4   3    0.54    0.12
   3  -4  -3    3.51    0.17
   3  -4  -3    3.69    0.13
   3  -4  -3    3.24    0.13
  -3   4   3    3.36    0.21
  -3   4   3    3.04    0.21
  -3   4   3    3.26    0.21
   2  -4  -3    0.41    0.06
   2  -4  -3    0.40    0.04
  -2   4   3    0.42    0.09
  -2   4   3    0.34    0.07
  -2   4   3    0.56    0.09
   1  -4  -3   24.49    0.63
   1  -4  -3   23.96    0.57
  -1   4   3   23.74    0.66
  -1   4   3   23.76    0.64
  -1   4   3   23.82    0.65
   0   4   3    0.40    0.06
   0   4   3    0.32    0.06
   0   4   3    0.33    0.04
  -1  -4  -3    4.08    0.18
  -1  -4  -3    4.27    0.19
   1   4   3    4.13    0.19
   1   4   3    3.89    0.18
   1   4   3    4.67    0.15
  -2  -4  -3    0.14    0.05
  -2  -4  -3    0.07    0.05
   2   4   3    0.04    0.04
   2   4   3    0.06    0.05
  -3  -4  -3    3.55    0.22
  -3  -4  -3    3.66    0.22
   3   4   3    3.62    0.20
   3   4   3    3.72    0.23
   3   4   3    3.70    0.14
  -4  -4  -3    0.55    0.12
  -4  -4  -3    0.45    0.12
   4   4   3    0.44    0.11
   4   4   3    0.48    0.10
   4   4   3    0.47    0.07
  -5  -4  -3    1.23    0.19
  -5  -4  -3    1.65    0.22
   5   4   3    1.18    0.19
   5   4   3    1.49    0.18
  -6  -4  -3    1.23    0.21
  -6  -4  -3    1.14    0.19
   6   4   3    1.68    0.24
   6   4   3    1.48    0.22
  -7  -4  -3    0.06    0.11
  -7  -4  -3    0.04    0.12
   7   4   3    0.14    0.11
   7   4   3    0.06    0.11
   7   4   3    0.11    0.14
   7   4   3    0.19    0.13
  -7   5   3    0.15    0.12
  -7   5   3    0.25    0.14
  -7   5   3    0.17    0.13
  -6   5   3    0.10    0.11
  -6   5   3    0.28    0.13
  -6   5   3    0.30    0.12
  -5   5   3    3.49    0.28
  -5   5   3    3.16    0.29
  -5   5   3    3.54    0.28
   4  -5  -3    6.92    0.27
  -4   5   3    6.74    0.35
  -4   5   3    6.73    0.34
  -4   5   3    6.69    0.36
   3  -5  -3    6.91    0.19
   3  -5  -3    7.08    0.22
   3  -5  -3    7.19    0.26
  -3   5   3    6.92    0.32
  -3   5   3    7.03    0.32
  -3   5   3    6.40    0.33
   2  -5  -3    0.42    0.04
  -2   5   3    0.27    0.08
  -2   5   3    0.50    0.10
   1  -5  -3   16.47    0.46
   1  -5  -3   15.44    0.41
  -1   5   3   15.49    0.49
  -1   5   3   15.84    0.39
  -1   5   3   15.55    0.47
  -1   5   3   15.30    0.48
   0  -5  -3    0.73    0.08
   0  -5  -3    0.73    0.09
   0   5   3    0.81    0.09
   0   5   3    0.62    0.07
   0   5   3    0.62    0.09
  -1  -5  -3    0.05    0.04
  -1  -5  -3    0.04    0.03
   1   5   3    0.07    0.03
   1   5   3    0.08    0.04
   1   5   3    0.09    0.04
  -2  -5  -3   21.89    0.65
  -2  -5  -3   22.30    0.69
   2   5   3   22.41    0.64
   2   5   3   22.53    0.56
   2   5   3   22.54    0.69
  -3  -5  -3    0.26    0.09
  -3  -5  -3    0.07    0.05
   3   5   3   -0.03    0.04
   3   5   3    0.00    0.03
   3   5   3   -0.01    0.04
  -4  -5  -3    7.01    0.36
  -4  -5  -3    6.76    0.36
   4   5   3    7.01    0.37
   4   5   3    7.07    0.31
  -5  -5  -3    1.08    0.18
  -5  -5  -3    0.88    0.19
   5   5   3    0.88    0.14
   5   5   3    1.14    0.19
  -6  -5  -3   -0.12    0.08
  -6  -5  -3   -0.02    0.08
   6   5   3    0.00    0.08
   6   5   3   -0.06    0.09
   6   5   3   -0.07    0.07
  -7  -5  -3   -0.09    0.11
  -7  -5  -3    0.13    0.11
   7   5   3    0.11    0.12
   7   5   3    0.03    0.11
   7   5   3    0.09    0.11
  -6   6   3    0.71    0.17
  -6   6   3    0.37    0.14
  -6   6   3    0.66    0.17
  -5   6   3    0.03    0.09
  -5   6   3    0.10    0.11
  -5   6   3    0.01    0.08
  -4   6   3    1.64    0.20
  -4   6   3    1.88    0.23
  -4   6   3    1.76    0.22
   3  -6  -3    2.30    0.14
  -3   6   3    2.32    0.22
  -3   6   3    1.99    0.21
  -3   6   3    2.05    0.21
   2  -6  -3    3.22    0.13
   2  -6  -3    3.28    0.16
  -2   6   3    3.40    0.22
  -2   6   3    2.79    0.20
  -2   6   3    2.94    0.20
   1  -6  -3    0.12    0.05
  -1   6   3    0.12    0.07
  -1   6   3    0.04    0.02
  -1   6   3    0.03    0.06
   0  -6  -3   24.93    0.70
   0  -6  -3   24.62    0.66
   0   6   3   25.13    0.68
   0   6   3   23.79    0.71
  -1  -6  -3   33.13    0.90
  -1  -6  -3   34.32    0.95
   1   6   3   34.41    0.93
   1   6   3   35.22    0.87
  -2  -6  -3    0.25    0.09
  -2  -6  -3    0.38    0.10
   2   6   3    0.42    0.06
   2   6   3    0.27    0.08
   2   6   3    0.16    0.07
  -3  -6  -3    0.58    0.12
  -3  -6  -3    0.63    0.13
   3   6   3    0.57    0.12
   3   6   3    0.66    0.08
   3   6   3    0.59    0.10
  -4  -6  -3    0.19    0.10
  -4  -6  -3    0.33    0.10
   4   6   3    0.20    0.08
   4   6   3    0.14    0.09
  -5  -6  -3    0.03    0.09
  -5  -6  -3   -0.03    0.09
   5   6   3   -0.01    0.07
   5   6   3    0.15    0.09
  -6  -6  -3    1.00    0.19
  -6  -6  -3    0.99    0.21
   6   6   3    0.85    0.17
   6   6   3    0.97    0.17
  -7  -6  -3    0.70    0.18
  -7  -6  -3    0.26    0.17
   7   6   3    0.32    0.16
  -6   7   3    0.14    0.12
  -6   7   3    0.17    0.12
  -6   7   3    0.11    0.11
  -5   7   3    0.04    0.10
  -5   7   3   -0.01    0.09
  -5   7   3   -0.05    0.08
  -4   7   3    0.31    0.11
  -4   7   3    0.40    0.13
  -4   7   3    0.46    0.14
  -3   7   3    2.27    0.22
  -3   7   3    1.49    0.20
  -3   7   3    1.82    0.21
   2  -7  -3    2.22    0.12
   2  -7  -3    2.26    0.14
  -2   7   3    1.74    0.19
  -2   7   3    1.82    0.19
  -2   7   3    1.90    0.19
   1  -7  -3   12.37    0.38
   1  -7  -3   12.34    0.41
  -1   7   3   11.94    0.44
  -1   7   3   12.24    0.46
   0  -7  -3    7.21    0.28
   0  -7  -3    7.78    0.31
   0   7   3    7.27    0.31
   0   7   3    6.75    0.29
  -1  -7  -3   38.75    1.08
  -1  -7  -3   38.84    1.03
   1   7   3   39.19    0.99
   1   7   3   37.20    1.04
  -2  -7  -3   33.06    0.94
  -2  -7  -3   32.35    0.98
   2   7   3   32.97    0.91
   2   7   3   31.53    0.96
   2   7   3   32.88    0.84
  -3  -7  -3    7.04    0.36
  -3  -7  -3    7.19    0.37
   3   7   3    7.19    0.37
   3   7   3    7.44    0.32
  -4  -7  -3    3.93    0.28
  -4  -7  -3    3.60    0.28
   4   7   3    3.47    0.23
   4   7   3    3.43    0.27
  -5  -7  -3    1.71    0.25
  -5  -7  -3    2.12    0.26
   5   7   3    1.58    0.19
   5   7   3    1.31    0.21
  -6  -7  -3    0.51    0.17
  -6  -7  -3    0.48    0.14
   6   7   3    0.72    0.15
   6   7   3    0.71    0.17
  -7  -7  -3    0.78    0.20
  -7  -7  -3    0.54    0.20
  -6   8   3    0.49    0.17
  -6   8   3    0.86    0.20
  -6   8   3    0.88    0.20
  -5   8   3    0.01    0.08
  -5   8   3   -0.11    0.09
  -5   8   3    0.03    0.10
  -4   8   3    0.98    0.18
  -4   8   3    0.97    0.19
  -4   8   3    0.75    0.17
  -3   8   3   10.27    0.45
  -3   8   3   11.47    0.49
  -3   8   3   10.42    0.49
   2  -8  -3    0.50    0.09
  -2   8   3    0.24    0.10
  -2   8   3    0.49    0.12
  -2   8   3    0.46    0.11
   1  -8  -3    6.05    0.27
   1  -8  -3    5.94    0.25
  -1   8   3    6.34    0.31
  -1   8   3    5.62    0.30
   0  -8  -3    3.29    0.19
   0  -8  -3    3.53    0.21
   0   8   3    3.36    0.21
   0   8   3    3.27    0.21
  -1  -8  -3    5.51    0.29
  -1  -8  -3    5.46    0.27
   1   8   3    5.35    0.25
   1   8   3    5.38    0.27
  -2  -8  -3    5.19    0.30
  -2  -8  -3    5.23    0.28
   2   8   3    4.82    0.23
   2   8   3    4.51    0.25
   2   8   3    4.43    0.27
  -3  -8  -3    0.08    0.07
  -3  -8  -3    0.11    0.10
   3   8   3    0.15    0.07
   3   8   3    0.09    0.08
  -4  -8  -3    2.80    0.30
  -4  -8  -3    2.96    0.29
   4   8   3    2.59    0.20
   4   8   3    2.08    0.24
  -5  -8  -3    0.15    0.13
  -5  -8  -3    0.21    0.12
   5   8   3    0.26    0.11
   5   8   3    0.12    0.11
  -6  -8  -3    0.71    0.20
  -6  -8  -3    0.68    0.18
  -5   9   3    0.76    0.18
  -5   9   3    0.61    0.18
  -5   9   3    0.71    0.19
  -4   9   3    0.69    0.18
  -4   9   3    0.69    0.16
  -4   9   3    0.72    0.17
  -3   9   3    4.11    0.30
  -3   9   3    2.76    0.26
  -3   9   3    2.80    0.29
  -2   9   3    0.15    0.10
  -2   9   3    0.06    0.08
  -2   9   3    0.10    0.09
   1  -9  -3    0.39    0.10
   1  -9  -3    0.44    0.09
  -1   9   3    0.48    0.12
  -1   9   3    0.55    0.12
   0  -9  -3    1.19    0.14
   0  -9  -3    1.10    0.15
   0   9   3    1.33    0.16
   0   9   3    0.70    0.13
  -1  -9  -3    4.52    0.26
  -1  -9  -3    4.55    0.28
   1   9   3    4.98    0.25
   1   9   3    4.81    0.28
  -2  -9  -3    0.07    0.07
  -2  -9  -3    0.06    0.08
   2   9   3    0.05    0.06
   2   9   3    0.09    0.07
  -3  -9  -3    1.60    0.22
  -3  -9  -3    1.49    0.20
   3   9   3    1.63    0.19
   3   9   3    1.17    0.18
  -4  -9  -3    5.30    0.35
  -4  -9  -3    5.55    0.37
   4   9   3    4.42    0.33
   4   9   3    5.25    0.30
  -5  -9  -3    0.01    0.08
  -5  -9  -3    0.14    0.12
   5   9   3    0.16    0.10
   5   9   3   -0.02    0.09
  -6  -9  -3    0.17    0.15
  -6  -9  -3    0.13    0.12
  -5  10   3    0.13    0.14
  -5  10   3    0.37    0.17
  -4  10   3    0.30    0.14
  -4  10   3    0.02    0.09
  -4  10   3    0.03    0.11
  -3  10   3    1.51    0.23
  -3  10   3    1.50    0.22
  -3  10   3    1.06    0.18
  -2  10   3   -0.07    0.07
  -2  10   3    0.02    0.08
  -2  10   3    0.00    0.08
  -1  10   3    0.16    0.09
  -1  10   3    0.10    0.09
   0 -10  -3    3.77    0.25
   0 -10  -3    3.57    0.23
   0  10   3    3.78    0.26
   0  10   3    3.49    0.26
  -1 -10  -3    0.14    0.10
  -1 -10  -3    0.48    0.11
   1  10   3    0.48    0.12
   1  10   3    0.32    0.09
  -2 -10  -3    1.29    0.19
  -2 -10  -3    1.24    0.20
   2  10   3    1.07    0.17
   2  10   3    1.11    0.15
  -3 -10  -3    0.02    0.08
  -3 -10  -3    0.04    0.11
   3  10   3    0.16    0.10
   3  10   3    0.12    0.09
  -4 -10  -3    2.84    0.33
  -4 -10  -3    2.68    0.30
   4  10   3    2.37    0.25
   4  10   3    1.67    0.23
  -5 -10  -3   -0.01    0.10
  -5 -10  -3    0.08    0.12
   5  10   3   -0.07    0.08
  -4  11   3   -0.06    0.08
  -4  11   3    0.16    0.14
  -4  11   3   -0.09    0.09
  -3  11   3    2.18    0.26
  -3  11   3    2.34    0.30
  -3  11   3    2.28    0.29
  -2  11   3    3.06    0.32
  -2  11   3    3.24    0.31
  -2  11   3    4.02    0.30
  -1  11   3    7.07    0.40
  -1  11   3    6.55    0.38
   0 -11  -3    0.21    0.09
   0  11   3    0.18    0.11
   0  11   3    0.16    0.11
  -1 -11  -3    4.29    0.29
  -1 -11  -3    4.87    0.32
   1  11   3    4.75    0.31
   1  11   3    4.17    0.28
  -2 -11  -3   13.89    0.59
  -2 -11  -3   12.19    0.54
   2  11   3   13.37    0.55
   2  11   3   13.12    0.56
  -3 -11  -3    0.94    0.21
  -3 -11  -3    1.11    0.20
   3  11   3    0.87    0.18
   3  11   3    0.60    0.15
  -4 -11  -3    1.14    0.24
  -4 -11  -3    1.10    0.21
   4  11   3    0.73    0.18
   4  11   3    1.19    0.19
  -5 -11  -3   -0.05    0.09
  -5 -11  -3   -0.07    0.12
  -3  12   3    0.24    0.13
  -3  12   3    0.09    0.11
  -2  12   3    0.73    0.17
  -2  12   3    0.58    0.17
  -2  12   3    0.48    0.16
  -1  12   3    0.04    0.10
  -1  12   3    0.05    0.11
   0  12   3    3.50    0.34
   0  12   3    3.41    0.28
  -1 -12  -3    4.10    0.31
  -1 -12  -3    4.07    0.29
   1  12   3    4.51    0.32
   1  12   3    3.64    0.27
  -2 -12  -3    0.71    0.16
  -2 -12  -3    0.83    0.19
   2  12   3    1.09    0.19
  -3 -12  -3    0.47    0.15
  -3 -12  -3    0.22    0.14
   3  12   3    0.43    0.13
   3  12   3    0.34    0.14
  -4 -12  -3    1.02    0.24
  -4 -12  -3    1.03    0.21
  -2  13   3    0.23    0.13
  -1  13   3    0.31    0.15
  -1  13   3    0.33    0.14
   0  13   3    0.11    0.12
   0  13   3    0.01    0.10
   1  13   3    0.04    0.10
  -2 -13  -3    1.91    0.28
  -2 -13  -3    1.77    0.25
   2  13   3    1.27    0.22
   2  12  -4    0.46    0.15
  -2 -12   4    0.24    0.13
   1  12  -4    0.16    0.12
  -1 -12   4    0.12    0.11
   0  12  -4    0.00    0.11
   0 -12   4    0.01    0.09
  -1  12  -4    0.39    0.16
  -1  12  -4    0.44    0.15
   1 -12   4    0.29    0.13
   3  11  -4    0.37    0.17
   3  11  -4    0.33    0.14
  -3 -11   4    0.39    0.14
  -3 -11   4    0.46    0.17
   2  11  -4    2.44    0.26
  -2 -11   4    2.21    0.27
   1  11  -4    1.90    0.24
  -1 -11   4    1.52    0.23
   0  11  -4   -0.01    0.10
   0  11  -4    0.17    0.11
   0 -11   4    0.09    0.09
  -1  11  -4    0.40    0.14
  -1  11  -4    0.26    0.14
   1 -11   4    0.31    0.12
  -2  11  -4   -0.02    0.09
  -2  11  -4    0.12    0.12
   2 -11   4    0.01    0.09
  -3  11  -4    0.27    0.15
  -3  11  -4    0.16    0.13
   4  10  -4    0.42    0.14
   4  10  -4    0.38    0.18
  -4 -10   4    0.37    0.14
  -4 -10   4    0.21    0.16
   3  10  -4    2.18    0.24
   3  10  -4    3.10    0.33
  -3 -10   4    2.73    0.31
  -3 -10   4    2.38    0.28
   2  10  -4   -0.02    0.12
   2  10  -4    0.17    0.12
  -2 -10   4   -0.12    0.10
  -2 -10   4    0.10    0.10
   1  10  -4    0.15    0.10
  -1 -10   4    0.25    0.12
   0  10  -4    0.11    0.10
   0  10  -4    0.05    0.10
   0 -10   4    0.07    0.09
  -1  10  -4    6.80    0.39
  -1  10  -4    7.12    0.41
   1 -10   4    6.77    0.36
  -2  10  -4    0.03    0.10
  -2  10  -4    0.18    0.10
   2 -10   4    0.11    0.09
  -3  10  -4    1.52    0.23
  -3  10  -4    1.39    0.25
   3 -10   4    2.07    0.22
  -4  10  -4   -0.09    0.09
  -4  10  -4    0.02    0.11
  -4  10  -4   -0.05    0.11
   5   9  -4    1.05    0.23
  -5  -9   4    0.98    0.21
  -5  -9   4    0.70    0.20
   4   9  -4    2.27    0.24
   4   9  -4    2.51    0.31
  -4  -9   4    2.34    0.30
  -4  -9   4    2.22    0.28
   3   9  -4    0.25    0.13
   3   9  -4    0.50    0.13
  -3  -9   4    0.43    0.13
  -3  -9   4    0.36    0.14
   2   9  -4    0.04    0.09
   2   9  -4   -0.07    0.10
  -2  -9   4    0.09    0.10
  -2  -9   4   -0.03    0.10
   1   9  -4    0.04    0.09
   1   9  -4    0.19    0.11
   1   9  -4    0.11    0.09
  -1  -9   4    0.15    0.10
  -1  -9   4    0.14    0.10
   0   9  -4    2.02    0.23
   0   9  -4    2.37    0.24
   0  -9   4    2.40    0.24
  -1   9  -4    0.86    0.17
  -1   9  -4    0.75    0.16
   1  -9   4    1.07    0.16
  -2   9  -4    3.42    0.27
  -2   9  -4    3.44    0.29
   2  -9   4    3.06    0.23
  -3   9  -4    1.20    0.21
  -3   9  -4    0.89    0.19
   3  -9   4    0.78    0.13
  -4   9  -4    1.61    0.25
  -4   9  -4    1.10    0.23
  -4   9  -4    1.54    0.22
   6   8  -4    0.00    0.14
  -6  -8   4    0.07    0.10
  -6  -8   4    0.19    0.16
   5   8  -4    0.13    0.13
  -5  -8   4    0.12    0.13
  -5  -8   4    0.02    0.10
   4   8  -4    1.28    0.22
   4   8  -4    0.83    0.14
  -4  -8   4    0.90    0.17
  -4  -8   4    1.14    0.21
   3   8  -4    0.51    0.12
   3   8  -4    0.56    0.15
  -3  -8   4    0.23    0.10
  -3  -8   4    0.44    0.14
   2   8  -4    0.58    0.12
   2   8  -4    0.41    0.13
  -2  -8   4    0.27    0.10
  -2  -8   4    0.15    0.10
   1   8  -4    0.22    0.09
   1   8  -4    0.17    0.10
   1   8  -4    0.15    0.08
  -1  -8   4    0.20    0.09
  -1  -8   4    0.16    0.08
   0   8  -4    2.25    0.23
   0   8  -4    2.22    0.19
   0  -8   4    1.79    0.20
  -1   8  -4   18.19    0.65
  -1   8  -4   18.19    0.65
   1  -8   4   17.82    0.60
  -2   8  -4    0.31    0.11
  -2   8  -4    0.32    0.10
   2  -8   4    0.39    0.09
   2  -8   4    0.45    0.09
  -3   8  -4    1.40    0.22
  -3   8  -4    0.93    0.17
   3  -8   4    1.22    0.15
  -4   8  -4    0.17    0.10
  -4   8  -4    0.06    0.11
  -4   8  -4    0.10    0.09
   4  -8   4    0.06    0.07
  -5   8  -4    0.07    0.10
  -5   8  -4    0.05    0.10
  -5   8  -4   -0.15    0.10
   6   7  -4   -0.12    0.12
  -6  -7   4   -0.04    0.12
  -6  -7   4   -0.20    0.06
   5   7  -4    0.03    0.07
   5   7  -4    0.12    0.11
  -5  -7   4    0.02    0.10
  -5  -7   4    0.01    0.08
   4   7  -4    0.11    0.08
   4   7  -4   -0.11    0.09
  -4  -7   4    0.00    0.07
  -4  -7   4   -0.04    0.09
   3   7  -4    4.68    0.31
   3   7  -4    4.60    0.26
  -3  -7   4    5.32    0.32
  -3  -7   4    4.57    0.29
   2   7  -4    1.22    0.17
   2   7  -4    1.33    0.16
  -2  -7   4    1.07    0.16
  -2  -7   4    1.29    0.18
   1   7  -4    3.90    0.21
   1   7  -4    3.36    0.21
   1   7  -4    3.51    0.22
  -1  -7   4    3.90    0.23
  -1  -7   4    3.60    0.22
   0   7  -4    0.71    0.10
   0   7  -4    0.76    0.12
   0   7  -4    0.43    0.10
   0  -7   4    0.47    0.10
   0  -7   4    0.73    0.10
  -1   7  -4    1.29    0.17
  -1   7  -4    1.73    0.19
   1  -7   4    1.46    0.16
   1  -7   4    1.96    0.15
  -2   7  -4   11.22    0.48
  -2   7  -4   10.71    0.46
   2  -7   4   11.15    0.41
   2  -7   4   11.67    0.41
  -3   7  -4    4.07    0.28
  -3   7  -4    4.83    0.32
   3  -7   4    4.31    0.23
   3  -7   4    4.55    0.23
  -4   7  -4    0.00    0.09
  -4   7  -4   -0.08    0.07
  -4   7  -4    0.02    0.07
   4  -7   4   -0.02    0.06
  -5   7  -4    1.60    0.24
  -5   7  -4    1.78    0.28
  -5   7  -4    1.75    0.22
   5  -7   4    1.79    0.19
  -6   7  -4    0.18    0.14
  -6   7  -4    0.27    0.14
   6   6  -4    0.01    0.08
   6   6  -4    0.07    0.13
  -6  -6   4    0.13    0.13
  -6  -6   4    0.13    0.10
   5   6  -4    0.03    0.07
   5   6  -4   -0.02    0.09
  -5  -6   4    0.00    0.07
  -5  -6   4   -0.01    0.10
   4   6  -4   -0.08    0.08
   4   6  -4    0.07    0.08
  -4  -6   4   -0.03    0.06
  -4  -6   4   -0.08    0.08
   3   6  -4    1.65    0.17
   3   6  -4    1.74    0.21
  -3  -6   4    1.80    0.22
  -3  -6   4    1.67    0.20
   2   6  -4    3.22    0.22
   2   6  -4    3.08    0.16
   2   6  -4    2.39    0.18
  -2  -6   4    2.85    0.20
  -2  -6   4    3.00    0.22
   1   6  -4   10.96    0.40
   1   6  -4   10.71    0.36
  -1  -6   4   10.19    0.39
  -1  -6   4    9.98    0.39
   0   6  -4    6.22    0.29
   0   6  -4    7.14    0.27
   0   6  -4    7.46    0.30
   0  -6   4    7.02    0.30
   0  -6   4    6.81    0.27
  -1   6  -4    0.10    0.06
  -1   6  -4    0.01    0.06
  -1   6  -4    0.02    0.04
  -1   6  -4    0.03    0.05
   1  -6   4    0.15    0.06
   1  -6   4    0.13    0.05
  -2   6  -4    0.07    0.07
  -2   6  -4    0.13    0.07
  -2   6  -4    0.14    0.08
   2  -6   4    0.08    0.05
   2  -6   4    0.13    0.06
  -3   6  -4    7.64    0.37
  -3   6  -4    8.27    0.41
   3  -6   4    7.81    0.31
   3  -6   4    7.52    0.32
  -4   6  -4    1.29    0.17
  -4   6  -4    1.28    0.19
  -4   6  -4    1.56    0.23
   4  -6   4    1.35    0.15
  -5   6  -4    0.29    0.11
  -5   6  -4    0.08    0.11
  -5   6  -4    0.08    0.09
   5  -6   4    0.12    0.08
  -6   6  -4    0.69    0.20
  -6   6  -4    0.91    0.20
   7   5  -4    2.13    0.32
  -7  -5   4    2.65    0.35
  -7  -5   4    2.14    0.29
   6   5  -4    0.48    0.13
   6   5  -4    0.30    0.15
  -6  -5   4    0.61    0.15
  -6  -5   4    0.46    0.16
   5   5  -4    1.30    0.22
   5   5  -4    1.61    0.19
  -5  -5   4    1.59    0.21
  -5  -5   4    1.70    0.24
   4   5  -4    1.81    0.23
   4   5  -4    1.09    0.15
  -4  -5   4    0.96    0.18
  -4  -5   4    0.99    0.16
   3   5  -4    8.14    0.38
   3   5  -4    7.24    0.32
  -3  -5   4    7.94    0.38
  -3  -5   4    7.22    0.35
   2   5  -4   13.38    0.44
   2   5  -4   12.90    0.37
   2   5  -4   12.58    0.47
  -2  -5   4   12.70    0.47
  -2  -5   4   12.25    0.45
   1   5  -4    0.14    0.05
   1   5  -4    0.22    0.08
   1   5  -4    0.11    0.05
   1   5  -4    0.15    0.06
  -1  -5   4    0.12    0.06
  -1  -5   4    0.15    0.06
   0   5  -4   13.67    0.45
   0   5  -4   13.19    0.49
   0   5  -4   13.27    0.43
   0   5  -4   13.28    0.41
   0  -5   4   13.74    0.42
   0  -5   4   13.80    0.45
   0  -5   4   13.22    0.43
  -1   5  -4    0.10    0.06
  -1   5  -4    0.21    0.04
  -1   5  -4    0.12    0.06
  -1   5  -4    0.18    0.06
   1  -5   4    0.18    0.05
   1  -5   4    0.17    0.04
   1  -5   4    0.24    0.06
  -2   5  -4    3.27    0.20
  -2   5  -4    2.99    0.21
  -2   5  -4    3.40    0.22
   2  -5   4    3.05    0.17
   2  -5   4    3.02    0.16
  -3   5  -4   11.69    0.49
  -3   5  -4   11.67    0.46
  -3   5  -4   12.14    0.46
   3  -5   4   11.74    0.40
   3  -5   4   10.96    0.40
  -4   5  -4    3.13    0.21
  -4   5  -4    3.17    0.26
  -4   5  -4    3.39    0.24
   4  -5   4    3.16    0.20
   4  -5   4    3.34    0.19
  -5   5  -4    2.99    0.32
  -5   5  -4    2.79    0.22
  -5   5  -4    2.53    0.26
   5  -5   4    2.64    0.20
  -6   5  -4    1.47    0.23
  -6   5  -4    1.67    0.27
   6  -5   4    1.48    0.19
   7   4  -4    2.11    0.31
   7   4  -4    2.12    0.29
  -7  -4   4    2.06    0.30
  -7  -4   4    1.98    0.27
   6   4  -4    0.06    0.12
   6   4  -4    0.01    0.07
  -6  -4   4   -0.03    0.11
  -6  -4   4   -0.05    0.06
   5   4  -4    0.28    0.13
   5   4  -4    0.36    0.11
  -5  -4   4    0.34    0.11
  -5  -4   4    0.33    0.13
   4   4  -4    2.03    0.23
   4   4  -4    2.00    0.19
  -4  -4   4    2.42    0.23
  -4  -4   4    2.06    0.24
   3   4  -4    9.98    0.29
   3   4  -4    9.82    0.37
   3   4  -4    9.90    0.42
  -3  -4   4   10.19    0.43
  -3  -4   4    9.14    0.38
   2   4  -4    0.20    0.04
   2   4  -4    0.16    0.08
   2   4  -4    0.23    0.07
  -2  -4   4    0.28    0.07
  -2  -4   4    0.23    0.08
   1   4  -4    2.41    0.17
   1   4  -4    2.59    0.16
   1   4  -4    2.48    0.12
   1   4  -4    2.35    0.15
  -1  -4   4    2.83    0.16
  -1  -4   4    2.22    0.16
   0   4  -4   26.69    0.73
   0   4  -4   27.69    0.73
   0   4  -4   28.23    0.81
   0   4  -4   27.31    0.75
   0  -4   4   27.58    0.73
   0  -4   4   27.82    0.76
   0  -4   4   27.91    0.73
  -1   4  -4   10.30    0.28
  -1   4  -4    9.87    0.36
  -1   4  -4    9.93    0.35
  -1   4  -4   11.05    0.40
   1  -4   4    9.96    0.34
   1  -4   4   10.16    0.28
   1  -4   4   10.07    0.33
  -2   4  -4    4.71    0.23
  -2   4  -4    5.15    0.25
  -2   4  -4    4.44    0.25
   2  -4   4    4.98    0.21
   2  -4   4    4.53    0.20
  -3   4  -4    8.48    0.35
  -3   4  -4    8.58    0.32
  -3   4  -4    8.41    0.39
  -3   4  -4    8.59    0.36
   3  -4   4    8.19    0.31
   3  -4   4    8.40    0.32
  -4   4  -4    8.15    0.35
  -4   4  -4    8.05    0.37
  -4   4  -4    8.18    0.34
  -4   4  -4    8.14    0.42
   4  -4   4    7.95    0.33
   4  -4   4    8.10    0.32
  -5   4  -4    0.13    0.08
  -5   4  -4    0.03    0.07
  -5   4  -4    0.13    0.10
   5  -4   4    0.23    0.08
   5  -4   4    0.07    0.07
  -6   4  -4    0.12    0.09
  -6   4  -4    0.01    0.10
   6  -4   4   -0.02    0.07
   6  -4   4    0.04    0.11
  -7   4  -4    0.06    0.10
  -7   4  -4    0.03    0.12
   7  -4   4    0.02    0.12
   7   3  -4    0.44    0.17
   7   3  -4    0.31    0.13
  -7  -3   4    0.81    0.18
  -7  -3   4    0.50    0.19
   6   3  -4    0.26    0.14
   6   3  -4    0.16    0.10
  -6  -3   4    0.15    0.12
  -6  -3   4    0.25    0.11
   5   3  -4    7.22    0.40
  -5  -3   4    7.59    0.41
  -5  -3   4    6.35    0.35
   4   3  -4    3.00    0.24
   4   3  -4    2.97    0.20
  -4  -3   4    3.24    0.22
  -4  -3   4    3.12    0.24
   3   3  -4   15.55    0.41
   3   3  -4   15.64    0.56
   3   3  -4   15.80    0.51
  -3  -3   4   16.64    0.53
  -3  -3   4   15.64    0.56
   2   3  -4  103.80    2.46
   2   3  -4  103.14    2.58
   2   3  -4  106.14    2.40
  -2  -3   4  105.83    2.47
  -2  -3   4  104.35    2.58
   1   3  -4    0.54    0.08
   1   3  -4    0.42    0.05
   1   3  -4    0.42    0.07
   1   3  -4    0.41    0.08
  -1  -3   4    0.53    0.08
  -1  -3   4    0.41    0.07
   0   3  -4    0.62    0.07
   0   3  -4    0.53    0.08
   0   3  -4    0.62    0.07
   0   3  -4    0.61    0.08
   0  -3   4    0.58    0.07
   0  -3   4    0.62    0.08
   0  -3   4    0.47    0.06
  -1   3  -4    0.09    0.05
  -1   3  -4    0.10    0.04
  -1   3  -4    0.10    0.05
  -1   3  -4    0.07    0.02
   1  -3   4    0.11    0.04
   1  -3   4    0.07    0.03
  -2   3  -4   40.95    1.07
  -2   3  -4   40.83    1.03
  -2   3  -4   40.39    1.09
   2  -3   4   37.48    0.99
   2  -3   4   39.45    1.02
  -3   3  -4   15.61    0.52
  -3   3  -4   15.38    0.56
  -3   3  -4   16.49    0.48
  -3   3  -4   16.56    0.53
   3  -3   4   16.28    0.50
   3  -3   4   15.83    0.50
  -4   3  -4   10.55    0.42
  -4   3  -4   10.51    0.39
  -4   3  -4   10.90    0.48
  -4   3  -4   10.72    0.39
   4  -3   4   10.83    0.39
   4  -3   4   10.98    0.40
  -5   3  -4    6.95    0.32
  -5   3  -4    6.13    0.29
  -5   3  -4    7.96    0.42
  -5   3  -4    7.28    0.36
   5  -3   4    7.13    0.33
   5  -3   4    7.30    0.33
  -6   3  -4    0.00    0.10
  -6   3  -4    0.08    0.08
   6  -3   4    0.04    0.11
   6  -3   4    0.05    0.08
  -7   3  -4    1.90    0.25
  -7   3  -4    1.99    0.30
   7  -3   4    1.79    0.30
   7  -3   4    1.57    0.21
   7   2  -4    1.71    0.28
   7   2  -4    1.66    0.24
  -7  -2   4    1.30    0.21
  -7  -2   4    1.22    0.20
  -7  -2   4    1.42    0.22
  -7  -2   4    1.30    0.24
   6   2  -4    0.26    0.11
   6   2  -4    0.55    0.16
  -6  -2   4    0.23    0.11
  -6  -2   4    0.32    0.11
  -6  -2   4    0.15    0.11
  -6  -2   4    0.40    0.12
   5   2  -4   17.33    0.66
  -5  -2   4   17.46    0.61
  -5  -2   4   18.36    0.67
  -5  -2   4   16.69    0.61
  -5  -2   4   17.32    0.61
   4   2  -4    5.03    0.20
   4   2  -4    4.96    0.29
  -4  -2   4    5.35    0.27
  -4  -2   4    4.77    0.26
  -4  -2   4    5.15    0.27
  -4  -2   4    4.71    0.29
   3   2  -4   12.99    0.48
   3   2  -4   13.03    0.36
  -3  -2   4   14.39    0.45
  -3  -2   4   13.28    0.49
  -3  -2   4   14.01    0.46
   2   2  -4    1.67    0.12
   2   2  -4    1.92    0.14
  -2  -2   4    2.01    0.15
  -2  -2   4    1.61    0.12
   1   2  -4    1.37    0.10
   1   2  -4    1.65    0.10
   1   2  -4    1.60    0.11
  -1  -2   4    1.72    0.10
  -1  -2   4    1.66    0.11
   0   2  -4  117.44    2.78
   0   2  -4  118.04    2.69
   0   2  -4  114.20    2.72
   0   2  -4  114.87    2.66
   0  -2   4  114.00    2.64
   0  -2   4  113.42    2.72
   0  -2   4  119.14    2.72
  -1   2  -4    8.19    0.22
  -1   2  -4    8.76    0.30
  -1   2  -4    8.30    0.27
  -1   2  -4    8.15    0.29
   1  -2   4    8.29    0.27
   1  -2   4    8.01    0.26
  -2   2  -4  156.26    3.76
  -2   2  -4  159.00    3.64
  -2   2  -4  161.90    3.68
  -2   2  -4  159.28    3.77
   2  -2   4  157.03    3.63
   2  -2   4  161.18    3.72
  -3   2  -4    0.56    0.08
  -3   2  -4    0.81    0.13
  -3   2  -4    0.57    0.09
  -3   2  -4    0.67    0.09
  -3   2  -4    0.69    0.07
   3  -2   4    0.61    0.09
   3  -2   4    0.64    0.09
  -4   2  -4    5.27    0.26
  -4   2  -4    4.73    0.25
  -4   2  -4    4.55    0.22
  -4   2  -4    5.00    0.21
  -4   2  -4    4.76    0.23
  -4   2  -4    4.74    0.29
   4  -2   4    5.16    0.25
   4  -2   4    5.05    0.25
   4  -2   4    4.66    0.21
   4  -2   4    4.88    0.29
  -5   2  -4    0.76    0.10
  -5   2  -4    0.44    0.11
  -5   2  -4    0.48    0.12
  -5   2  -4    0.51    0.11
  -5   2  -4    0.68    0.16
   5  -2   4    0.41    0.10
   5  -2   4    0.62    0.12
   5  -2   4    0.44    0.14
  -6   2  -4    0.01    0.07
  -6   2  -4    0.08    0.05
  -6   2  -4    0.02    0.08
  -6   2  -4    0.15    0.10
   6  -2   4    0.03    0.08
   6  -2   4    0.00    0.09
   6  -2   4    0.08    0.08
  -7   2  -4    1.23    0.24
  -7   2  -4    1.52    0.21
   7  -2   4    1.61    0.21
   7  -2   4    1.94    0.28
   7   1  -4    0.04    0.10
   7   1  -4    0.04    0.13
  -7  -1   4   -0.16    0.09
  -7  -1   4    0.00    0.09
  -7  -1   4    0.02    0.09
  -7  -1   4    0.00    0.10
   6   1  -4    5.24    0.34
   6   1  -4    5.28    0.34
  -6  -1   4    5.36    0.31
  -6  -1   4    5.71    0.34
  -6  -1   4    4.96    0.34
  -6  -1   4    5.28    0.33
   5   1  -4    9.44    0.44
  -5  -1   4    9.62    0.42
  -5  -1   4    9.49    0.41
  -5  -1   4    8.81    0.36
  -5  -1   4    8.99    0.39
  -5  -1   4    9.41    0.44
   4   1  -4   13.28    0.51
   4   1  -4   13.69    0.43
  -4  -1   4   13.81    0.50
  -4  -1   4   14.77    0.48
  -4  -1   4   13.76    0.50
  -4  -1   4   14.60    0.54
  -4  -1   4   13.78    0.44
   3   1  -4   11.04    0.34
   3   1  -4   12.22    0.43
  -3  -1   4   12.07    0.41
  -3  -1   4   11.43    0.43
  -3  -1   4   11.41    0.34
  -3  -1   4   12.16    0.41
  -3  -1   4   11.72    0.38
   2   1  -4   57.26    1.46
  -2  -1   4   56.93    1.46
  -2  -1   4   57.69    1.40
  -2  -1   4   55.79    1.37
  -2  -1   4   58.81    1.37
   1   1  -4   12.80    0.38
   1   1  -4   11.63    0.36
  -1  -1   4   12.27    0.34
  -1  -1   4   12.68    0.37
  -1  -1   4   11.75    0.37
   0   1  -4    8.76    0.26
   0   1  -4    8.25    0.24
   0  -1   4    8.25    0.24
   0  -1   4    8.29    0.26
   0  -1   4    8.19    0.24
  -1   1  -4    8.97    0.27
  -1   1  -4    8.46    0.29
  -1   1  -4    9.21    0.25
   1  -1   4    8.97    0.29
   1  -1   4    9.39    0.28
   1  -1   4    8.45    0.27
  -2   1  -4   10.60    0.30
  -2   1  -4   10.55    0.37
  -2   1  -4   10.64    0.34
  -2   1  -4   10.84    0.32
   2  -1   4    9.96    0.36
   2  -1   4   10.58    0.34
   2  -1   4   10.56    0.34
  -3   1  -4   38.32    0.96
  -3   1  -4   37.20    1.04
  -3   1  -4   37.29    0.90
  -3   1  -4   36.93    0.95
  -3   1  -4   37.31    0.98
   3  -1   4   37.71    0.98
   3  -1   4   36.28    1.03
   3  -1   4   35.87    0.99
  -4   1  -4   15.86    0.50
  -4   1  -4   15.86    0.51
  -4   1  -4   16.13    0.59
  -4   1  -4   16.13    0.48
  -4   1  -4   16.63    0.54
   4  -1   4   15.71    0.53
   4  -1   4   15.78    0.54
   4  -1   4   15.82    0.58
  -5   1  -4    1.08    0.14
  -5   1  -4    1.38    0.17
  -5   1  -4    0.99    0.14
  -5   1  -4    1.26    0.12
  -5   1  -4    1.12    0.16
  -5   1  -4    0.83    0.17
   5  -1   4    0.98    0.15
   5  -1   4    1.09    0.16
   5  -1   4    1.00    0.18
   5  -1   4    1.17    0.15
  -6   1  -4    0.07    0.05
  -6   1  -4   -0.06    0.06
  -6   1  -4    0.10    0.08
  -6   1  -4    0.02    0.09
   6  -1   4    0.12    0.09
   6  -1   4   -0.02    0.09
   6  -1   4    0.08    0.08
  -7   1  -4    0.17    0.13
  -7   1  -4    0.26    0.12
   7  -1   4    0.22    0.11
   7  -1   4    0.14    0.11
   7  -1   4    0.15    0.13
   7   0  -4    1.90    0.27
  -7   0   4    1.71    0.23
  -7   0   4    1.73    0.24
  -7   0   4    1.80    0.26
   6   0  -4    6.05    0.34
   6   0  -4    6.34    0.36
   6   0  -4    6.39    0.37
  -6   0   4    6.65    0.37
  -6   0   4    6.52    0.34
  -6   0   4    5.99    0.35
  -6   0   4    7.65    0.41
   5   0  -4    7.08    0.32
   5   0  -4    6.60    0.34
   5   0  -4    6.68    0.36
  -5   0   4    7.15    0.32
  -5   0   4    6.57    0.35
  -5   0   4    7.05    0.32
  -5   0   4    7.48    0.38
  -5   0   4    6.69    0.35
   4   0  -4  110.52    2.70
   4   0  -4  114.66    2.82
  -4   0   4  110.29    2.67
  -4   0   4  115.92    2.68
  -4   0   4  115.39    2.74
  -4   0   4  114.95    2.83
  -4   0   4  112.42    2.71
   3   0  -4    6.46    0.29
  -3   0   4    6.33    0.29
  -3   0   4    7.24    0.26
  -3   0   4    6.88    0.29
  -3   0   4    7.12    0.25
  -3   0   4    6.67    0.29
   2   0  -4    7.47    0.28
  -2   0   4    7.01    0.21
  -2   0   4    7.40    0.24
  -2   0   4    7.05    0.27
  -2   0   4    7.02    0.27
  -2   0   4    6.74    0.26
   1   0  -4    9.34    0.30
  -1   0   4    9.37    0.28
  -1   0   4    9.19    0.29
  -1   0   4    9.42    0.26
  -1   0   4    9.04    0.29
  -1   0   4    9.11    0.29
   0   0  -4   54.81    1.22
   0   0  -4   51.36    1.25
   0   0   4   52.17    1.20
   0   0   4   48.40    1.22
   0   0   4   53.86    1.25
  -1   0  -4   10.46    0.27
  -1   0  -4    8.82    0.27
  -1   0  -4    9.70    0.31
  -1   0  -4    9.59    0.29
   1   0   4    9.59    0.29
   1   0   4   10.41    0.31
   1   0   4   10.43    0.30
  -2   0  -4    6.32    0.22
  -2   0  -4    6.35    0.18
  -2   0  -4    6.02    0.26
  -2   0  -4    6.56    0.21
  -2   0  -4    6.20    0.24
   2   0   4    6.80    0.25
   2   0   4    6.04    0.25
   2   0   4    6.18    0.24
  -3   0  -4   15.17    0.44
  -3   0  -4   15.63    0.49
  -3   0  -4   15.21    0.52
  -3   0  -4   15.90    0.42
  -3   0  -4   15.32    0.47
   3   0   4   14.84    0.49
   3   0   4   15.39    0.50
   3   0   4   16.21    0.52
  -4   0  -4    0.49    0.10
  -4   0  -4    0.48    0.12
  -4   0  -4    0.77    0.12
  -4   0  -4    0.49    0.09
  -4   0  -4    0.56    0.08
   4   0   4    0.27    0.10
   4   0   4    0.41    0.10
   4   0   4    0.46    0.10
  -5   0  -4   16.86    0.56
  -5   0  -4   17.36    0.53
  -5   0  -4   17.38    0.61
  -5   0  -4   17.45    0.60
  -5   0  -4   17.38    0.65
   5   0   4   17.49    0.65
   5   0   4   17.40    0.61
   5   0   4   16.85    0.61
  -6   0  -4    0.29    0.06
  -6   0  -4    0.32    0.13
  -6   0  -4    0.19    0.11
   6   0   4    0.10    0.10
   6   0   4    0.30    0.13
   6   0   4    0.34    0.12
  -7   0  -4    0.40    0.15
  -7   0  -4    0.54    0.17
   7   0   4    0.55    0.14
   7   0   4    0.66    0.19
   7   0   4    0.65    0.16
   7  -1  -4    1.95    0.26
  -7   1   4    1.76    0.24
  -7   1   4    1.94    0.26
  -7   1   4    1.98    0.26
   6  -1  -4   -0.06    0.09
  -6   1   4    0.08    0.09
  -6   1   4    0.14    0.10
  -6   1   4    0.10    0.10
  -6   1   4    0.07    0.09
   5  -1  -4   13.96    0.52
   5  -1  -4   14.41    0.55
   5  -1  -4   13.79    0.49
  -5   1   4   14.54    0.56
  -5   1   4   14.37    0.55
  -5   1   4   15.17    0.56
  -5   1   4   15.40    0.53
  -5   1   4   14.15    0.49
   4  -1  -4   10.34    0.38
   4  -1  -4    9.02    0.38
  -4   1   4    9.21    0.39
  -4   1   4    9.14    0.39
  -4   1   4    9.01    0.34
  -4   1   4    9.22    0.39
  -4   1   4    9.56    0.37
   3  -1  -4   18.06    0.56
  -3   1   4   18.19    0.56
  -3   1   4   17.85    0.56
  -3   1   4   17.98    0.53
  -3   1   4   18.86    0.51
  -3   1   4   18.93    0.58
   2  -1  -4    0.05    0.04
  -2   1   4    0.05    0.03
  -2   1   4    0.17    0.06
  -2   1   4    0.14    0.05
  -2   1   4    0.16    0.05
  -2   1   4    0.07    0.03
   1  -1  -4   18.15    0.49
   1  -1  -4   17.99    0.45
  -1   1   4   17.95    0.45
  -1   1   4   17.33    0.42
  -1   1   4   17.56    0.47
  -1   1   4   17.90    0.46
  -1   1   4   16.89    0.48
   0  -1  -4  837.47   20.10
   0  -1  -4  899.89   19.89
   0   1   4  852.19   18.86
   0   1   4  883.99   19.89
   0   1   4  851.70   19.29
   0   1   4  862.48   19.37
  -1  -1  -4   21.67    0.56
  -1  -1  -4   20.64    0.55
   1   1   4   21.15    0.55
   1   1   4   21.93    0.57
   1   1   4   21.03    0.57
  -2  -1  -4    0.05    0.04
  -2  -1  -4    0.06    0.04
  -2  -1  -4    0.06    0.02
   2   1   4    0.00    0.03
   2   1   4    0.05    0.02
   2   1   4   -0.02    0.03
   2   1   4    0.02    0.04
  -3  -1  -4    0.08    0.05
  -3  -1  -4    0.15    0.04
  -3  -1  -4    0.08    0.05
  -3  -1  -4    0.08    0.04
  -3  -1  -4    0.09    0.05
   3   1   4    0.09    0.05
   3   1   4    0.09    0.05
   3   1   4    0.04    0.05
  -4  -1  -4   45.42    1.23
  -4  -1  -4   36.85    1.17
  -4  -1  -4   45.33    1.11
  -4  -1  -4   46.27    1.07
  -4  -1  -4   45.46    1.20
   4   1   4   44.42    1.22
   4   1   4   45.30    1.20
   4   1   4   43.64    1.22
  -5  -1  -4    5.41    0.25
  -5  -1  -4    6.34    0.33
  -5  -1  -4    5.99    0.34
  -5  -1  -4    5.89    0.27
   5   1   4    5.49    0.32
   5   1   4    5.63    0.32
   5   1   4    6.22    0.33
  -6  -1  -4    6.31    0.37
   6   1   4    7.19    0.39
   6   1   4    6.64    0.39
   6   1   4    6.68    0.38
  -7  -1  -4    1.09    0.20
   7   1   4    1.34    0.21
   7   1   4    1.05    0.20
   7   1   4    1.17    0.21
  -7   2   4    0.18    0.13
  -7   2   4    0.09    0.11
  -7   2   4   -0.04    0.10
   6  -2  -4    0.08    0.09
  -6   2   4    0.02    0.08
  -6   2   4   -0.04    0.08
  -6   2   4   -0.01    0.07
  -6   2   4    0.05    0.09
   5  -2  -4    0.46    0.11
   5  -2  -4    0.48    0.10
  -5   2   4    0.53    0.13
  -5   2   4    0.15    0.07
  -5   2   4    0.61    0.10
  -5   2   4    0.42    0.11
  -5   2   4    0.48    0.12
   4  -2  -4   53.17    1.37
   4  -2  -4   51.58    1.27
   4  -2  -4   50.87    1.32
  -4   2   4   51.50    1.26
  -4   2   4   52.52    1.37
  -4   2   4   50.08    1.38
  -4   2   4   50.47    1.34
   3  -2  -4    2.88    0.17
   3  -2  -4    2.47    0.12
  -3   2   4    2.60    0.17
  -3   2   4    2.80    0.13
  -3   2   4    2.72    0.17
  -3   2   4    2.32    0.17
   2  -2  -4    0.00    0.03
   2  -2  -4    0.01    0.02
  -2   2   4    0.04    0.04
  -2   2   4    0.02    0.02
  -2   2   4    0.06    0.04
  -2   2   4    0.03    0.02
   1  -2  -4   38.43    0.97
   1  -2  -4   40.18    0.91
  -1   2   4   38.42    0.91
  -1   2   4   39.28    0.94
  -1   2   4   38.16    0.94
  -1   2   4   37.14    0.96
   0  -2  -4  196.89    4.41
   0  -2  -4  197.63    4.61
   0  -2  -4  203.54    4.54
   0   2   4  195.61    4.41
   0   2   4  204.91    4.56
   0   2   4  192.35    4.32
   0   2   4  192.12    4.53
   0   2   4  200.28    4.44
  -1  -2  -4  159.56    3.79
  -1  -2  -4  159.88    3.65
   1   2   4  164.93    3.74
   1   2   4  164.51    3.76
   1   2   4  159.79    3.65
   1   2   4  161.58    3.50
  -2  -2  -4    6.59    0.26
  -2  -2  -4    6.31    0.25
   2   2   4    6.90    0.26
   2   2   4    6.96    0.27
   2   2   4    7.04    0.27
   2   2   4    6.83    0.18
  -3  -2  -4    7.98    0.33
  -3  -2  -4    8.00    0.32
  -3  -2  -4    8.36    0.25
   3   2   4    8.49    0.34
   3   2   4    8.01    0.34
   3   2   4    8.29    0.33
  -4  -2  -4    1.26    0.17
  -4  -2  -4    1.63    0.18
  -4  -2  -4    1.42    0.11
  -4  -2  -4    1.38    0.12
   4   2   4    1.51    0.18
   4   2   4    1.18    0.16
   4   2   4    1.57    0.17
  -5  -2  -4   13.84    0.53
  -5  -2  -4   13.92    0.43
  -5  -2  -4   13.40    0.53
   5   2   4   13.11    0.53
   5   2   4   13.24    0.55
   5   2   4   13.48    0.53
  -6  -2  -4    1.27    0.21
  -6  -2  -4    0.84    0.17
   6   2   4    0.76    0.17
   6   2   4    1.10    0.19
   6   2   4    0.79    0.17
  -7  -2  -4   -0.02    0.10
  -7  -2  -4    0.11    0.13
   7   2   4   -0.03    0.12
   7   2   4    0.10    0.12
   7   2   4   -0.02    0.10
   7   2   4   -0.03    0.10
  -7   3   4    1.51    0.23
  -7   3   4    1.39    0.23
  -7   3   4    1.96    0.26
   6  -3  -4    0.92    0.16
  -6   3   4    0.76    0.16
  -6   3   4    1.04    0.18
  -6   3   4    0.90    0.17
   5  -3  -4    6.25    0.31
  -5   3   4    6.47    0.35
  -5   3   4    6.01    0.33
  -5   3   4    6.52    0.35
   4  -3  -4    4.74    0.21
   4  -3  -4    4.61    0.20
   4  -3  -4    5.06    0.25
  -4   3   4    4.80    0.27
  -4   3   4    4.71    0.26
  -4   3   4    5.47    0.21
  -4   3   4    4.48    0.27
   3  -3  -4    3.73    0.19
   3  -3  -4    3.61    0.15
   3  -3  -4    3.70    0.14
  -3   3   4    3.70    0.14
  -3   3   4    3.61    0.21
  -3   3   4    3.69    0.22
  -3   3   4    3.72    0.20
   2  -3  -4   32.63    0.85
   2  -3  -4   33.23    0.77
  -2   3   4   32.78    0.87
  -2   3   4   32.88    0.89
  -2   3   4   32.60    0.86
   1  -3  -4   13.68    0.34
   1  -3  -4   13.44    0.39
  -1   3   4   13.95    0.40
  -1   3   4   13.57    0.41
  -1   3   4   13.82    0.33
  -1   3   4   13.68    0.40
   0  -3  -4  370.23    8.46
   0  -3  -4  362.53    8.18
   0  -3  -4  363.76    8.53
   0   3   4  371.15    8.20
   0   3   4  372.48    8.45
   0   3   4  362.77    8.02
   0   3   4  365.84    8.36
  -1  -3  -4    1.55    0.10
  -1  -3  -4    2.03    0.12
   1   3   4    1.91    0.11
   1   3   4    1.87    0.11
  -2  -3  -4    5.79    0.25
  -2  -3  -4    5.95    0.25
   2   3   4    6.04    0.26
   2   3   4    5.91    0.24
  -3  -3  -4   21.24    0.66
  -3  -3  -4   22.29    0.68
   3   3   4   21.83    0.69
   3   3   4   21.89    0.67
   3   3   4   21.82    0.65
  -4  -3  -4   14.14    0.53
  -4  -3  -4   13.60    0.51
  -4  -3  -4   13.57    0.39
   4   3   4   13.22    0.52
   4   3   4   14.33    0.52
   4   3   4   12.66    0.48
  -5  -3  -4   19.32    0.68
  -5  -3  -4   19.26    0.69
   5   3   4   20.01    0.67
   5   3   4   19.00    0.69
   5   3   4   17.88    0.69
  -6  -3  -4    0.10    0.09
  -6  -3  -4    0.08    0.11
   6   3   4   -0.05    0.09
   6   3   4    0.01    0.07
   6   3   4   -0.02    0.10
  -7  -3  -4    2.58    0.30
  -7  -3  -4    3.22    0.35
   7   3   4    2.50    0.30
   7   3   4    2.86    0.31
   7   3   4    2.15    0.28
  -7   4   4    1.28    0.24
  -7   4   4    1.54    0.25
  -7   4   4    1.61    0.25
  -6   4   4   -0.10    0.07
  -6   4   4    0.12    0.10
  -6   4   4   -0.06    0.08
   5  -4  -4   12.41    0.46
  -5   4   4   11.95    0.51
  -5   4   4   12.44    0.54
  -5   4   4   13.04    0.53
   4  -4  -4    7.72    0.31
  -4   4   4    7.81    0.36
  -4   4   4    7.36    0.36
  -4   4   4    7.47    0.37
   3  -4  -4   11.65    0.31
   3  -4  -4   11.81    0.38
   3  -4  -4   11.65    0.31
  -3   4   4   11.19    0.44
  -3   4   4   11.66    0.43
  -3   4   4   11.13    0.42
   2  -4  -4   12.85    0.39
  -2   4   4   12.03    0.42
  -2   4   4   13.19    0.42
  -2   4   4   12.14    0.43
   1  -4  -4    0.37    0.06
  -1   4   4    0.43    0.07
  -1   4   4    0.29    0.06
  -1   4   4    0.19    0.05
   0  -4  -4   10.76    0.34
   0  -4  -4   10.31    0.30
   0   4   4   10.98    0.34
   0   4   4   10.19    0.31
   0   4   4   10.23    0.30
  -1  -4  -4   19.98    0.55
  -1  -4  -4   20.28    0.58
   1   4   4   19.77    0.56
   1   4   4   19.81    0.57
  -2  -4  -4   79.16    1.97
  -2  -4  -4   77.35    1.90
   2   4   4   78.55    1.95
   2   4   4   78.64    1.91
  -3  -4  -4    0.15    0.07
  -3  -4  -4    0.12    0.06
   3   4   4    0.21    0.06
   3   4   4    0.12    0.06
  -4  -4  -4    2.86    0.21
  -4  -4  -4    2.48    0.21
   4   4   4    2.90    0.20
   4   4   4    2.47    0.21
  -5  -4  -4    0.63    0.15
  -5  -4  -4    0.25    0.10
   5   4   4    0.63    0.14
   5   4   4    0.76    0.14
   5   4   4    0.30    0.12
  -6  -4  -4    0.97    0.19
  -6  -4  -4    0.70    0.15
   6   4   4    1.06    0.19
   6   4   4    1.47    0.21
   6   4   4    1.23    0.21
  -7  -4  -4   -0.15    0.09
  -7  -4  -4    0.05    0.10
   7   4   4   -0.06    0.09
   7   4   4   -0.02    0.09
   7   4   4   -0.04    0.10
  -7   5   4    0.00    0.10
  -7   5   4   -0.01    0.11
  -7   5   4    0.30    0.14
  -6   5   4    0.00    0.08
  -6   5   4   -0.01    0.09
  -6   5   4    0.00    0.09
  -5   5   4    0.94    0.18
  -5   5   4    1.08    0.17
  -5   5   4    1.23    0.19
   4  -5  -4   11.03    0.39
  -4   5   4   10.36    0.47
  -4   5   4   12.01    0.48
  -4   5   4   10.65    0.45
   3  -5  -4    6.31    0.24
  -3   5   4    5.70    0.29
  -3   5   4    6.13    0.30
  -3   5   4    5.54    0.30
   2  -5  -4   19.34    0.55
   2  -5  -4   18.89    0.46
  -2   5   4   18.27    0.58
  -2   5   4   18.79    0.59
  -2   5   4   19.23    0.60
   1  -5  -4    0.38    0.06
   1  -5  -4    0.50    0.05
  -1   5   4    0.32    0.07
  -1   5   4    0.41    0.03
  -1   5   4    0.36    0.07
  -1   5   4    0.53    0.09
   0  -5  -4    5.82    0.21
   0  -5  -4    6.20    0.24
   0   5   4    5.87    0.21
   0   5   4    6.06    0.23
   0   5   4    5.84    0.24
  -1  -5  -4    4.51    0.21
  -1  -5  -4    3.84    0.19
   1   5   4    4.02    0.19
   1   5   4    4.16    0.16
   1   5   4    3.99    0.19
  -2  -5  -4    3.39    0.20
  -2  -5  -4    3.24    0.20
   2   5   4    3.58    0.21
   2   5   4    3.60    0.19
   2   5   4    3.35    0.13
  -3  -5  -4   13.46    0.51
  -3  -5  -4   13.05    0.49
   3   5   4   14.05    0.47
   3   5   4   13.37    0.51
   3   5   4   13.94    0.36
  -4  -5  -4    3.75    0.26
  -4  -5  -4    3.39    0.25
   4   5   4    3.07    0.24
   4   5   4    3.74    0.23
  -5  -5  -4    9.46    0.46
  -5  -5  -4    8.81    0.44
   5   5   4    8.44    0.45
   5   5   4    8.82    0.40
  -6  -5  -4    0.38    0.15
  -6  -5  -4    0.40    0.13
   6   5   4    0.62    0.16
   6   5   4    0.38    0.13
   6   5   4    0.42    0.13
  -7  -5  -4    0.24    0.15
  -7  -5  -4    0.17    0.12
   7   5   4    0.28    0.13
   7   5   4    0.11    0.11
  -6   6   4    0.19    0.12
  -6   6   4    0.16    0.12
  -6   6   4    0.20    0.13
  -5   6   4    2.64    0.27
  -5   6   4    2.52    0.28
  -5   6   4    2.67    0.29
   4  -6  -4    4.61    0.22
  -4   6   4    4.55    0.30
  -4   6   4    4.49    0.29
  -4   6   4    4.23    0.28
   3  -6  -4    0.11    0.06
  -3   6   4    0.15    0.09
  -3   6   4    0.22    0.09
  -3   6   4    0.00    0.07
   2  -6  -4    5.99    0.25
   2  -6  -4    6.41    0.19
  -2   6   4    6.54    0.30
  -2   6   4    5.76    0.30
  -2   6   4    6.14    0.30
   1  -6  -4    0.52    0.08
   1  -6  -4    0.35    0.05
  -1   6   4    0.45    0.04
  -1   6   4    0.40    0.09
  -1   6   4    0.40    0.04
  -1   6   4    0.40    0.09
  -1   6   4    0.43    0.09
   0  -6  -4   58.47    1.53
   0  -6  -4   60.78    1.45
   0   6   4   61.42    1.54
   0   6   4   60.01    1.48
   0   6   4   62.44    1.48
  -1  -6  -4    4.88    0.23
  -1  -6  -4    4.92    0.25
   1   6   4    5.30    0.21
   1   6   4    5.02    0.24
   1   6   4    5.18    0.24
  -2  -6  -4    3.32    0.21
  -2  -6  -4    3.07    0.20
   2   6   4    2.98    0.20
   2   6   4    3.26    0.14
   2   6   4    3.17    0.19
  -3  -6  -4   21.43    0.70
  -3  -6  -4   21.46    0.73
   3   6   4   21.63    0.73
   3   6   4   22.41    0.67
  -4  -6  -4    4.26    0.30
  -4  -6  -4    4.79    0.30
   4   6   4    4.51    0.26
   4   6   4    4.90    0.31
  -5  -6  -4    3.31    0.33
  -5  -6  -4    2.83    0.29
   5   6   4    3.22    0.28
   5   6   4    3.24    0.24
  -6  -6  -4   -0.11    0.09
  -6  -6  -4    0.03    0.09
   6   6   4    0.04    0.11
   6   6   4   -0.07    0.08
   6   6   4   -0.02    0.07
  -7  -6  -4    2.66    0.32
  -7  -6  -4    3.23    0.38
   7   6   4    2.85    0.35
   7   6   4    2.74    0.29
  -6   7   4    1.47    0.25
  -6   7   4    1.13    0.21
  -6   7   4    1.88    0.28
  -5   7   4    2.60    0.30
  -5   7   4    2.38    0.27
  -5   7   4    1.68    0.25
  -4   7   4    2.69    0.28
  -4   7   4    2.49    0.27
  -4   7   4    2.21    0.24
   3  -7  -4    4.85    0.22
  -3   7   4    4.09    0.28
  -3   7   4    4.39    0.27
  -3   7   4    4.40    0.28
   2  -7  -4    0.70    0.10
  -2   7   4    0.41    0.10
  -2   7   4    0.37    0.11
  -2   7   4    0.36    0.10
  -1   7   4    0.60    0.11
   0  -7  -4   15.75    0.51
   0  -7  -4   15.47    0.47
   0   7   4   15.36    0.53
   0   7   4   15.53    0.50
   0   7   4   15.33    0.47
  -1  -7  -4   31.53    0.94
  -1  -7  -4   33.79    0.90
   1   7   4   33.57    0.92
   1   7   4   32.26    0.92
   1   7   4   32.19    0.86
  -2  -7  -4    2.47    0.24
  -2  -7  -4    2.73    0.20
   2   7   4    2.74    0.18
   2   7   4    2.89    0.21
   2   7   4    2.28    0.14
  -3  -7  -4    0.12    0.09
  -3  -7  -4    0.06    0.07
   3   7   4    0.19    0.08
   3   7   4    0.21    0.09
  -4  -7  -4    0.06    0.09
  -4  -7  -4    0.07    0.08
   4   7   4   -0.01    0.07
   4   7   4   -0.02    0.06
  -5  -7  -4    1.42    0.22
  -5  -7  -4    1.76    0.25
   5   7   4    1.51    0.22
   5   7   4    1.57    0.20
  -6  -7  -4    0.21    0.14
  -6  -7  -4    0.12    0.10
   6   7   4    0.28    0.13
   6   7   4    0.21    0.11
  -7  -7  -4    0.34    0.16
  -7  -7  -4    0.70    0.21
   7   7   4    0.60    0.20
  -6   8   4    0.12    0.13
  -6   8   4    0.11    0.13
  -6   8   4    0.14    0.13
  -5   8   4    0.15    0.10
  -5   8   4    0.00    0.10
  -5   8   4    0.01    0.10
  -4   8   4    3.69    0.30
  -4   8   4    3.89    0.30
  -4   8   4    3.23    0.26
  -3   8   4    4.07    0.27
  -3   8   4    3.44    0.27
  -3   8   4    3.55    0.27
   2  -8  -4    9.50    0.35
  -2   8   4    8.97    0.40
  -2   8   4    9.61    0.42
  -2   8   4    8.26    0.40
   1  -8  -4    1.03    0.13
   1  -8  -4    1.04    0.11
  -1   8   4    0.82    0.14
  -1   8   4    0.86    0.14
   0  -8  -4   15.82    0.49
   0  -8  -4   15.64    0.53
   0   8   4   15.86    0.52
   0   8   4   15.80    0.49
   0   8   4   15.25    0.55
  -1  -8  -4    3.24    0.22
  -1  -8  -4    3.60    0.22
   1   8   4    2.82    0.18
   1   8   4    3.11    0.21
   1   8   4    3.52    0.21
  -2  -8  -4   -0.06    0.06
  -2  -8  -4    0.01    0.06
   2   8   4    0.05    0.06
   2   8   4    0.00    0.05
   2   8   4    0.04    0.06
  -3  -8  -4    2.89    0.23
  -3  -8  -4    2.55    0.26
   3   8   4    2.80    0.20
   3   8   4    2.76    0.23
  -4  -8  -4    2.54    0.29
  -4  -8  -4    2.01    0.25
   4   8   4    2.80    0.21
   4   8   4    2.30    0.26
  -5  -8  -4   10.03    0.51
  -5  -8  -4   10.06    0.53
   5   8   4   10.08    0.45
   5   8   4    9.34    0.51
  -6  -8  -4    0.07    0.11
  -6  -8  -4   -0.01    0.11
   6   8   4    0.06    0.09
  -5   9   4    0.44    0.17
  -5   9   4    0.52    0.17
  -5   9   4    0.23    0.13
  -4   9   4    0.71    0.16
  -4   9   4    0.82    0.18
  -4   9   4    0.70    0.17
  -3   9   4    0.82    0.17
  -3   9   4    0.89    0.17
  -3   9   4    0.86    0.16
  -2   9   4    3.21    0.24
  -2   9   4    2.97    0.25
  -2   9   4    3.78    0.27
   1  -9  -4    0.07    0.07
  -1   9   4    0.06    0.07
  -1   9   4    0.09    0.07
   0  -9  -4    3.00    0.21
   0  -9  -4    2.70    0.18
   0   9   4    2.89    0.21
   0   9   4    2.80    0.18
   0   9   4    2.98    0.22
  -1  -9  -4    1.62    0.18
  -1  -9  -4    1.27    0.17
   1   9   4    1.42    0.16
   1   9   4    1.67    0.17
   1   9   4    1.37    0.18
  -2  -9  -4    3.64    0.27
  -2  -9  -4    3.65    0.25
   2   9   4    3.42    0.25
   2   9   4    3.91    0.24
  -3  -9  -4    0.22    0.12
  -3  -9  -4    0.14    0.09
   3   9   4    0.22    0.09
   3   9   4    0.28    0.11
  -4  -9  -4    0.84    0.17
   4   9   4    0.62    0.16
   4   9   4    0.89    0.15
  -5  -9  -4    0.55    0.17
  -5  -9  -4    0.70    0.19
   5   9   4    0.31    0.12
   5   9   4    0.69    0.17
  -6  -9  -4    0.11    0.12
  -6  -9  -4    0.08    0.10
  -5  10   4    2.68    0.34
  -5  10   4    2.58    0.33
  -4  10   4   -0.07    0.07
  -4  10   4   -0.06    0.09
  -4  10   4   -0.07    0.08
  -3  10   4    2.77    0.30
  -3  10   4    2.72    0.28
  -3  10   4    2.68    0.30
  -2  10   4   -0.07    0.07
  -2  10   4   -0.02    0.08
  -2  10   4    0.05    0.08
   1 -10  -4    0.10    0.08
  -1  10   4   -0.03    0.06
  -1  10   4    0.05    0.07
   0 -10  -4    0.27    0.09
   0 -10  -4    0.41    0.11
   0  10   4    0.30    0.10
   0  10   4    0.31    0.10
  -1 -10  -4    1.63    0.19
  -1 -10  -4    1.37    0.19
   1  10   4    1.17    0.16
   1  10   4    1.17    0.17
   1  10   4    1.26    0.16
  -2 -10  -4    1.07    0.18
  -2 -10  -4    0.99    0.16
   2  10   4    0.98    0.16
   2  10   4    0.79    0.15
  -3 -10  -4    0.40    0.14
  -3 -10  -4    0.50    0.14
   3  10   4    0.65    0.14
   3  10   4    0.57    0.14
  -4 -10  -4    1.24    0.23
  -4 -10  -4    1.53    0.23
   4  10   4    1.56    0.23
   4  10   4    1.44    0.20
  -5 -10  -4    0.18    0.13
  -5 -10  -4    0.15    0.13
   5  10   4    0.11    0.11
   5  10   4    0.12    0.10
  -4  11   4    0.16    0.12
  -4  11   4    0.31    0.14
  -4  11   4    0.20    0.13
  -3  11   4    0.04    0.10
  -3  11   4    0.05    0.10
  -3  11   4    0.14    0.11
  -2  11   4    2.69    0.29
  -2  11   4    2.63    0.27
  -2  11   4    2.49    0.29
  -1  11   4   -0.01    0.08
  -1  11   4   -0.05    0.09
   0 -11  -4    0.15    0.11
   0  11   4    0.09    0.09
   0  11   4    0.07    0.11
  -1 -11  -4    0.02    0.11
  -1 -11  -4    0.01    0.08
   1  11   4    0.11    0.10
   1  11   4    0.08    0.09
  -2 -11  -4    0.80    0.17
  -2 -11  -4    0.51    0.16
   2  11   4    0.79    0.16
   2  11   4    0.87    0.17
  -3 -11  -4    4.31    0.32
  -3 -11  -4    4.43    0.34
   3  11   4    4.27    0.32
   3  11   4    4.59    0.31
  -4 -11  -4    0.09    0.11
  -4 -11  -4    0.04    0.13
   4  11   4    0.11    0.10
   4  11   4   -0.08    0.09
  -5 -11  -4   -0.01    0.10
  -5 -11  -4    0.06    0.13
  -3  12   4    0.09    0.12
  -3  12   4    0.13    0.12
  -2  12   4   -0.01    0.09
  -2  12   4    0.21    0.13
  -2  12   4    0.08    0.10
  -1  12   4    1.11    0.20
  -1  12   4    0.81    0.18
   0  12   4    0.54    0.16
   0  12   4    0.98    0.18
  -1 -12  -4    0.61    0.16
  -1 -12  -4    0.54    0.14
   1  12   4    0.69    0.16
  -2 -12  -4    1.11    0.20
  -2 -12  -4    0.85    0.20
   2  12   4    0.79    0.18
  -3 -12  -4    0.38    0.17
  -3 -12  -4    0.59    0.16
   3  12   4    0.31    0.13
   3  12   4    0.43    0.15
  -4 -12  -4   -0.05    0.12
  -4 -12  -4    0.05    0.11
   4  12   4    0.11    0.12
   4  12   4    0.02    0.11
  -2  13   4    0.12    0.13
  -2  13   4   -0.02    0.10
  -1  13   4   -0.04    0.09
  -1  13   4    0.29    0.13
   0  13   4    1.48    0.23
   0  13   4    2.08    0.26
   1  13   4    0.05    0.11
  -2 -13  -4   -0.02    0.09
  -2 -13  -4    0.12    0.13
   2  13   4    0.19    0.13
   1  12  -5    0.16    0.12
  -1 -12   5    0.11    0.11
   0  12  -5    0.83    0.18
   0 -12   5    0.45    0.14
   3  11  -5    0.43    0.14
   3  11  -5    0.41    0.16
  -3 -11   5    0.35    0.15
   2  11  -5    0.21    0.12
  -2 -11   5    0.17    0.11
   1  11  -5    1.55    0.22
  -1 -11   5    1.28    0.21
   0  11  -5    0.45    0.15
   0 -11   5    0.57    0.15
  -1  11  -5    3.52    0.35
  -1  11  -5    3.13    0.33
   1 -11   5    3.57    0.28
  -2  11  -5    0.60    0.17
  -2  11  -5    0.76    0.19
   2 -11   5    0.55    0.15
   4  10  -5    9.09    0.53
   4  10  -5    8.53    0.44
  -4 -10   5    9.14    0.53
  -4 -10   5    8.09    0.48
   3  10  -5    0.02    0.10
   3  10  -5    0.28    0.15
  -3 -10   5    0.17    0.14
  -3 -10   5    0.18    0.11
   2  10  -5   -0.04    0.08
  -2 -10   5    0.18    0.11
   1  10  -5    1.46    0.21
  -1 -10   5    1.83    0.23
   0  10  -5    0.93    0.18
   0  10  -5    0.94    0.17
   0 -10   5    0.75    0.16
  -1  10  -5    2.51    0.28
  -1  10  -5    1.94    0.25
   1 -10   5    2.24    0.24
  -2  10  -5   -0.07    0.09
  -2  10  -5    0.00    0.09
   2 -10   5   -0.04    0.08
  -3  10  -5    3.02    0.35
  -3  10  -5    2.73    0.32
   3 -10   5    2.60    0.26
   5   9  -5    0.22    0.16
  -5  -9   5   -0.10    0.09
  -5  -9   5   -0.14    0.12
   4   9  -5    6.98    0.45
   4   9  -5    8.25    0.41
  -4  -9   5    8.04    0.46
  -4  -9   5    8.46    0.49
   3   9  -5    0.68    0.17
   3   9  -5    0.47    0.14
  -3  -9   5    0.46    0.14
  -3  -9   5    0.29    0.13
   2   9  -5    7.36    0.38
   2   9  -5    7.85    0.41
  -2  -9   5    7.42    0.41
  -2  -9   5    7.86    0.41
   1   9  -5    3.93    0.27
  -1  -9   5    3.82    0.28
   0   9  -5   23.94    0.79
   0   9  -5   21.53    0.75
   0  -9   5   22.40    0.75
  -1   9  -5    0.16    0.11
  -1   9  -5    0.22    0.12
   1  -9   5    0.35    0.11
  -2   9  -5    8.12    0.43
  -2   9  -5    8.99    0.47
   2  -9   5    9.50    0.41
  -3   9  -5    0.41    0.15
  -3   9  -5    0.13    0.11
   3  -9   5    0.39    0.11
  -4   9  -5    0.08    0.10
  -4   9  -5    0.12    0.11
  -4   9  -5    0.08    0.13
   4  -9   5   -0.03    0.07
   5   8  -5    1.30    0.19
   5   8  -5    2.12    0.30
  -5  -8   5    1.66    0.24
  -5  -8   5    1.92    0.28
   4   8  -5    0.09    0.12
   4   8  -5    0.06    0.08
  -4  -8   5   -0.07    0.06
  -4  -8   5   -0.11    0.10
   3   8  -5    0.93    0.18
   3   8  -5    0.86    0.15
  -3  -8   5    0.78    0.17
  -3  -8   5    0.83    0.15
   2   8  -5   18.70    0.70
   2   8  -5   20.13    0.68
  -2  -8   5   21.27    0.73
  -2  -8   5   20.33    0.71
   1   8  -5   24.95    0.80
   1   8  -5   25.33    0.79
   1   8  -5   25.08    0.76
  -1  -8   5   24.67    0.79
  -1  -8   5   24.40    0.79
   0   8  -5   15.11    0.55
   0   8  -5   15.02    0.56
   0  -8   5   14.70    0.54
  -1   8  -5    0.74    0.14
   1  -8   5    0.40    0.11
   1  -8   5    0.39    0.10
  -2   8  -5   14.22    0.60
  -2   8  -5   13.79    0.57
   2  -8   5   15.10    0.53
   2  -8   5   14.85    0.52
  -3   8  -5    1.46    0.22
  -3   8  -5    1.01    0.18
   3  -8   5    1.14    0.16
  -4   8  -5    0.05    0.11
  -4   8  -5    0.12    0.11
  -4   8  -5    0.12    0.09
   4  -8   5    0.25    0.09
  -5   8  -5    0.24    0.15
  -5   8  -5    0.62    0.16
  -5   8  -5    0.48    0.15
   6   7  -5    1.44    0.21
   6   7  -5    1.86    0.30
  -6  -7   5    1.60    0.28
  -6  -7   5    1.50    0.24
   5   7  -5    0.70    0.18
   5   7  -5    0.64    0.14
  -5  -7   5    0.60    0.18
  -5  -7   5    0.65    0.16
   4   7  -5    5.44    0.36
   4   7  -5    5.30    0.30
  -4  -7   5    4.91    0.33
  -4  -7   5    5.23    0.36
   3   7  -5    3.51    0.27
   3   7  -5    3.45    0.23
  -3  -7   5    3.39    0.25
  -3  -7   5    3.45    0.27
   2   7  -5   13.93    0.51
   2   7  -5   13.97    0.54
  -2  -7   5   14.39    0.55
  -2  -7   5   13.75    0.54
   1   7  -5    5.03    0.27
   1   7  -5    5.08    0.25
   1   7  -5    5.28    0.28
  -1  -7   5    5.34    0.28
  -1  -7   5    4.81    0.27
   0   7  -5    0.30    0.08
   0   7  -5    0.34    0.09
   0   7  -5    0.25    0.09
   0  -7   5    0.26    0.09
   0  -7   5    0.35    0.08
  -1   7  -5   12.00    0.47
  -1   7  -5   11.12    0.45
   1  -7   5   12.34    0.44
   1  -7   5   10.70    0.42
  -2   7  -5    0.59    0.13
  -2   7  -5    0.80    0.14
   2  -7   5    0.66    0.11
   2  -7   5    0.64    0.11
  -3   7  -5    3.16    0.25
  -3   7  -5    3.17    0.31
   3  -7   5    3.19    0.20
   3  -7   5    3.08    0.20
  -4   7  -5    0.78    0.17
  -4   7  -5    0.73    0.14
  -4   7  -5    0.73    0.18
   4  -7   5    0.66    0.12
  -5   7  -5    0.73    0.19
  -5   7  -5    0.62    0.17
  -5   7  -5    0.78    0.16
   5  -7   5    0.74    0.14
   6   6  -5    0.14    0.13
   6   6  -5    0.09    0.10
  -6  -6   5    0.01    0.12
  -6  -6   5    0.21    0.12
   5   6  -5    0.02    0.07
   5   6  -5    0.02    0.09
  -5  -6   5    0.05    0.08
  -5  -6   5    0.08    0.10
   4   6  -5    0.60    0.12
   4   6  -5    0.69    0.16
  -4  -6   5    0.16    0.12
  -4  -6   5    0.58    0.13
   3   6  -5    2.40    0.19
   3   6  -5    2.44    0.25
  -3  -6   5    2.02    0.24
  -3  -6   5    2.32    0.23
   2   6  -5   -0.05    0.05
   2   6  -5    0.08    0.08
  -2  -6   5   -0.07    0.04
  -2  -6   5    0.01    0.07
   1   6  -5   19.96    0.63
   1   6  -5   19.64    0.57
  -1  -6   5   19.54    0.63
  -1  -6   5   19.26    0.62
   0   6  -5    0.49    0.08
   0   6  -5    0.39    0.09
   0   6  -5    0.51    0.09
   0   6  -5    0.60    0.12
   0  -6   5    0.49    0.09
   0  -6   5    0.45    0.09
   0  -6   5    0.36    0.07
  -1   6  -5    0.85    0.15
  -1   6  -5    0.73    0.13
  -1   6  -5    0.85    0.13
   1  -6   5    0.85    0.11
   1  -6   5    0.97    0.12
  -2   6  -5    6.18    0.33
  -2   6  -5    5.71    0.31
  -2   6  -5    5.42    0.31
   2  -6   5    5.94    0.26
   2  -6   5    5.51    0.26
  -3   6  -5    0.28    0.10
  -3   6  -5    0.24    0.10
  -3   6  -5    0.36    0.12
   3  -6   5    0.25    0.07
   3  -6   5    0.29    0.08
  -4   6  -5    1.98    0.25
  -4   6  -5    1.51    0.18
  -4   6  -5    1.63    0.21
   4  -6   5    1.33    0.16
   4  -6   5    1.87    0.15
  -5   6  -5    0.04    0.08
  -5   6  -5    0.27    0.14
  -5   6  -5    0.18    0.10
   5  -6   5    0.22    0.09
  -6   6  -5    0.86    0.21
  -6   6  -5    0.98    0.20
   7   5  -5    0.15    0.15
  -7  -5   5    0.22    0.16
  -7  -5   5    0.04    0.11
   6   5  -5    2.83    0.33
   6   5  -5    1.92    0.23
  -6  -5   5    1.86    0.25
  -6  -5   5    2.29    0.31
   5   5  -5    0.25    0.12
   5   5  -5    0.05    0.08
  -5  -5   5    0.00    0.10
  -5  -5   5    0.11    0.08
   4   5  -5   11.32    0.44
   4   5  -5   10.70    0.50
  -4  -5   5   11.39    0.48
  -4  -5   5   11.20    0.51
   3   5  -5   12.39    0.50
   3   5  -5   11.84    0.44
  -3  -5   5   11.82    0.50
  -3  -5   5   11.57    0.46
   2   5  -5    0.73    0.13
   2   5  -5    0.79    0.08
   2   5  -5    0.54    0.10
  -2  -5   5    0.40    0.09
  -2  -5   5    0.63    0.12
   1   5  -5    6.49    0.32
   1   5  -5    6.20    0.23
   1   5  -5    6.00    0.27
  -1  -5   5    6.29    0.28
  -1  -5   5    6.18    0.28
   0   5  -5    1.77    0.12
   0   5  -5    1.76    0.18
   0   5  -5    2.10    0.15
   0   5  -5    2.08    0.14
   0  -5   5    2.10    0.15
   0  -5   5    1.98    0.13
   0  -5   5    2.07    0.15
  -1   5  -5   22.49    0.74
  -1   5  -5   23.80    0.59
  -1   5  -5   23.29    0.69
  -1   5  -5   22.90    0.70
   1  -5   5   23.23    0.66
   1  -5   5   23.20    0.67
   1  -5   5   23.04    0.59
  -2   5  -5    6.16    0.31
  -2   5  -5    6.00    0.31
  -2   5  -5    5.38    0.28
   2  -5   5    5.87    0.26
   2  -5   5    5.71    0.25
  -3   5  -5   13.97    0.51
  -3   5  -5   13.69    0.52
  -3   5  -5   13.85    0.55
   3  -5   5   13.55    0.46
   3  -5   5   12.68    0.45
  -4   5  -5    0.29    0.09
  -4   5  -5    0.34    0.10
  -4   5  -5    0.28    0.12
  -4   5  -5    0.14    0.09
   4  -5   5    0.28    0.08
   4  -5   5    0.40    0.10
  -5   5  -5    0.39    0.11
  -5   5  -5    0.13    0.11
  -5   5  -5    0.36    0.12
   5  -5   5    0.35    0.09
  -6   5  -5    0.81    0.17
  -6   5  -5    0.78    0.19
   6  -5   5    0.83    0.14
   7   4  -5    0.11    0.12
   7   4  -5   -0.09    0.12
  -7  -4   5    0.04    0.11
  -7  -4   5   -0.21    0.11
   6   4  -5    0.68    0.18
   6   4  -5    0.79    0.15
  -6  -4   5    0.28    0.15
  -6  -4   5    0.66    0.15
   5   4  -5    1.00    0.15
   5   4  -5    1.07    0.20
  -5  -4   5    1.34    0.19
  -5  -4   5    1.27    0.21
   4   4  -5    7.51    0.35
   4   4  -5    7.12    0.38
  -4  -4   5    7.02    0.39
  -4  -4   5    7.62    0.36
   3   4  -5    8.42    0.39
   3   4  -5    8.28    0.34
  -3  -4   5    7.96    0.35
  -3  -4   5    8.76    0.40
   2   4  -5    0.58    0.10
   2   4  -5    0.69    0.12
   2   4  -5    0.58    0.05
  -2  -4   5    0.56    0.10
  -2  -4   5    0.56    0.11
   1   4  -5    5.53    0.25
   1   4  -5    5.77    0.20
   1   4  -5    5.64    0.25
   1   4  -5    6.06    0.28
  -1  -4   5    5.41    0.24
  -1  -4   5    5.83    0.26
   0   4  -5   10.82    0.38
   0   4  -5   11.21    0.37
   0   4  -5   11.84    0.36
   0   4  -5   11.86    0.43
   0  -4   5   11.43    0.36
   0  -4   5   11.76    0.39
   0  -4   5   11.08    0.37
  -1   4  -5   21.36    0.63
  -1   4  -5   22.41    0.65
  -1   4  -5   22.48    0.69
  -1   4  -5   21.66    0.55
   1  -4   5   21.87    0.62
   1  -4   5   20.83    0.61
  -2   4  -5    4.04    0.22
  -2   4  -5    3.84    0.23
  -2   4  -5    4.16    0.24
   2  -4   5    3.64    0.19
   2  -4   5    3.95    0.19
  -3   4  -5    0.27    0.08
  -3   4  -5    0.14    0.08
  -3   4  -5    0.12    0.07
   3  -4   5    0.17    0.06
   3  -4   5    0.12    0.06
  -4   4  -5    0.10    0.07
  -4   4  -5   -0.03    0.06
  -4   4  -5   -0.02    0.05
  -4   4  -5    0.01    0.08
   4  -4   5    0.01    0.06
   4  -4   5    0.03    0.05
  -5   4  -5    0.24    0.12
  -5   4  -5    0.36    0.12
  -5   4  -5    0.70    0.13
  -5   4  -5    0.41    0.10
   5  -4   5    0.52    0.11
   5  -4   5    0.25    0.09
  -6   4  -5    0.09    0.09
  -6   4  -5    0.24    0.14
   6  -4   5   -0.03    0.10
   6  -4   5    0.08    0.08
  -7   4  -5    0.25    0.16
  -7   4  -5    0.01    0.11
   7  -4   5    0.36    0.17
   7  -4   5    0.33    0.12
   7   3  -5    0.05    0.10
   7   3  -5   -0.02    0.12
  -7  -3   5   -0.05    0.12
  -7  -3   5   -0.02    0.10
   6   3  -5    0.36    0.15
  -6  -3   5    0.23    0.11
  -6  -3   5    0.29    0.14
   5   3  -5    0.30    0.12
  -5  -3   5    0.24    0.10
  -5  -3   5    0.35    0.13
   4   3  -5    1.90    0.20
   4   3  -5    2.08    0.22
  -4  -3   5    1.78    0.22
  -4  -3   5    1.62    0.18
   3   3  -5   21.15    0.70
   3   3  -5   22.15    0.66
  -3  -3   5   22.32    0.72
  -3  -3   5   21.30    0.66
   2   3  -5    0.07    0.04
   2   3  -5    0.06    0.06
  -2  -3   5    0.03    0.05
  -2  -3   5    0.08    0.06
   1   3  -5    3.15    0.12
   1   3  -5    3.16    0.18
   1   3  -5    3.36    0.18
   1   3  -5    3.45    0.20
  -1  -3   5    3.41    0.18
  -1  -3   5    3.26    0.17
  -1  -3   5    3.50    0.18
   0   3  -5   11.78    0.36
   0   3  -5   11.48    0.36
   0   3  -5   12.20    0.42
   0   3  -5   11.62    0.38
   0  -3   5   11.88    0.37
   0  -3   5   12.32    0.39
   0  -3   5   11.79    0.36
  -1   3  -5    7.31    0.21
  -1   3  -5    7.27    0.28
  -1   3  -5    7.62    0.30
  -1   3  -5    7.41    0.31
   1  -3   5    7.51    0.27
   1  -3   5    7.85    0.28
  -2   3  -5   87.62    2.13
  -2   3  -5   90.14    2.22
  -2   3  -5   90.68    2.23
   2  -3   5   88.58    2.16
   2  -3   5   89.88    2.11
  -3   3  -5    9.76    0.33
  -3   3  -5    8.44    0.40
  -3   3  -5   10.21    0.37
  -3   3  -5    9.53    0.37
   3  -3   5    9.74    0.36
   3  -3   5    9.75    0.35
  -4   3  -5    0.03    0.05
  -4   3  -5   -0.05    0.05
  -4   3  -5    0.07    0.09
  -4   3  -5    0.00    0.05
   4  -3   5    0.06    0.06
   4  -3   5   -0.02    0.05
  -5   3  -5    0.41    0.10
  -5   3  -5    0.66    0.15
  -5   3  -5    0.66    0.12
  -5   3  -5    0.74    0.14
   5  -3   5    0.43    0.10
   5  -3   5    0.51    0.15
   5  -3   5    0.85    0.13
  -6   3  -5    1.81    0.18
  -6   3  -5    1.62    0.22
  -6   3  -5    2.05    0.29
   6  -3   5    2.33    0.30
   6  -3   5    1.71    0.20
   6  -3   5    1.76    0.21
  -7   3  -5    0.21    0.13
   7  -3   5    0.35    0.17
   7  -3   5    0.26    0.11
   7   2  -5   -0.02    0.13
   7   2  -5    0.18    0.12
  -7  -2   5   -0.03    0.10
  -7  -2   5   -0.03    0.09
  -7  -2   5    0.17    0.11
  -7  -2   5   -0.12    0.12
   6   2  -5    2.70    0.30
  -6  -2   5    3.10    0.32
  -6  -2   5    2.71    0.27
  -6  -2   5    2.38    0.25
  -6  -2   5    2.37    0.25
   5   2  -5    0.26    0.12
  -5  -2   5    0.35    0.10
  -5  -2   5    0.22    0.09
  -5  -2   5    0.29    0.11
  -5  -2   5    0.48    0.14
   4   2  -5    6.86    0.34
  -4  -2   5    5.94    0.30
  -4  -2   5    5.90    0.33
  -4  -2   5    6.49    0.30
   3   2  -5   33.58    0.81
   3   2  -5   34.39    0.99
  -3  -2   5   35.15    0.93
  -3  -2   5   34.25    0.99
   2   2  -5    6.18    0.26
   2   2  -5    5.87    0.27
  -2  -2   5    6.32    0.25
  -2  -2   5    5.96    0.27
   1   2  -5    5.44    0.23
   1   2  -5    5.92    0.24
   1   2  -5    5.80    0.24
  -1  -2   5    6.11    0.22
  -1  -2   5    5.80    0.24
  -1  -2   5    5.56    0.23
   0   2  -5   11.69    0.39
   0   2  -5   11.04    0.35
   0   2  -5   10.32    0.33
   0   2  -5   11.23    0.33
   0  -2   5   11.79    0.36
   0  -2   5   11.04    0.33
   0  -2   5   11.19    0.34
  -1   2  -5   55.50    1.37
  -1   2  -5   58.44    1.43
  -1   2  -5   56.57    1.36
   1  -2   5   59.27    1.41
   1  -2   5   56.41    1.37
  -2   2  -5    6.25    0.29
  -2   2  -5    6.21    0.19
  -2   2  -5    6.31    0.25
   2  -2   5    6.17    0.25
   2  -2   5    6.80    0.25
  -3   2  -5    4.06    0.21
  -3   2  -5    3.86    0.25
  -3   2  -5    4.73    0.22
  -3   2  -5    4.63    0.17
  -3   2  -5    4.89    0.20
   3  -2   5    4.28    0.21
   3  -2   5    4.59    0.22
  -4   2  -5   -0.01    0.06
  -4   2  -5    0.00    0.05
  -4   2  -5    0.01    0.05
  -4   2  -5   -0.01    0.04
   4  -2   5    0.01    0.05
   4  -2   5    0.03    0.07
   4  -2   5    0.02    0.05
  -5   2  -5    5.07    0.25
  -5   2  -5    4.72    0.32
  -5   2  -5    4.66    0.28
  -5   2  -5    5.06    0.25
  -5   2  -5    4.76    0.28
   5  -2   5    5.15    0.33
   5  -2   5    5.12    0.28
   5  -2   5    5.00    0.28
  -6   2  -5    4.77    0.30
  -6   2  -5    5.02    0.36
  -6   2  -5    4.37    0.23
  -6   2  -5    5.02    0.31
   6  -2   5    4.49    0.28
   6  -2   5    4.78    0.35
   6  -2   5    4.89    0.29
  -7   2  -5    1.23    0.20
  -7   2  -5    1.25    0.24
   7  -2   5    1.20    0.19
   7  -2   5    1.43    0.26
   7   1  -5    0.02    0.10
   7   1  -5    0.20    0.15
  -7  -1   5    0.03    0.10
  -7  -1   5   -0.02    0.11
  -7  -1   5   -0.02    0.10
   6   1  -5    3.42    0.28
   6   1  -5    3.43    0.27
  -6  -1   5    3.24    0.33
  -6  -1   5    3.31    0.26
  -6  -1   5    3.16    0.25
  -6  -1   5    3.81    0.28
   5   1  -5    2.89    0.24
  -5  -1   5    2.28    0.23
  -5  -1   5    2.70    0.22
  -5  -1   5    2.72    0.22
  -5  -1   5    2.38    0.26
   4   1  -5    2.06    0.13
   4   1  -5    2.09    0.21
  -4  -1   5    1.68    0.16
  -4  -1   5    1.80    0.20
  -4  -1   5    1.72    0.19
  -4  -1   5    2.00    0.13
  -4  -1   5    1.42    0.17
   3   1  -5    0.75    0.06
   3   1  -5    0.80    0.12
  -3  -1   5    0.67    0.10
  -3  -1   5    0.57    0.10
  -3  -1   5    0.86    0.07
  -3  -1   5    0.94    0.13
  -3  -1   5    0.76    0.10
   2   1  -5    9.81    0.36
  -2  -1   5   11.16    0.34
  -2  -1   5   10.06    0.35
  -2  -1   5   10.08    0.37
   1   1  -5    3.36    0.16
   1   1  -5    3.40    0.16
  -1  -1   5    3.68    0.16
  -1  -1   5    3.53    0.17
  -1  -1   5    3.60    0.15
   0   1  -5    0.05    0.03
   0   1  -5    0.15    0.04
   0   1  -5    0.22    0.05
   0  -1   5    0.19    0.04
   0  -1   5    0.16    0.04
   0  -1   5    0.09    0.03
  -1   1  -5    2.92    0.12
  -1   1  -5    2.90    0.15
  -1   1  -5    2.82    0.13
   1  -1   5    2.88    0.14
   1  -1   5    2.90    0.15
   1  -1   5    3.02    0.14
  -2   1  -5    1.99    0.15
  -2   1  -5    2.41    0.11
  -2   1  -5    2.32    0.13
   2  -1   5    2.40    0.16
   2  -1   5    2.39    0.14
   2  -1   5    1.97    0.13
  -3   1  -5    5.40    0.25
  -3   1  -5    5.63    0.20
  -3   1  -5    5.27    0.21
  -3   1  -5    5.38    0.28
  -3   1  -5    5.05    0.22
   3  -1   5    5.01    0.24
   3  -1   5    5.58    0.24
   3  -1   5    5.11    0.27
  -4   1  -5    0.21    0.07
  -4   1  -5    0.18    0.07
  -4   1  -5    0.18    0.06
  -4   1  -5    0.13    0.07
  -4   1  -5   -0.01    0.07
   4  -1   5    0.20    0.09
   4  -1   5    0.15    0.07
   4  -1   5    0.05    0.06
  -5   1  -5    0.06    0.07
  -5   1  -5    0.01    0.06
  -5   1  -5   -0.02    0.08
  -5   1  -5    0.05    0.05
   5  -1   5    0.10    0.10
   5  -1   5   -0.01    0.07
   5  -1   5    0.04    0.07
  -6   1  -5    0.00    0.05
  -6   1  -5    0.03    0.08
  -6   1  -5    0.05    0.08
   6  -1   5    0.00    0.08
   6  -1   5   -0.06    0.06
   6  -1   5    0.10    0.08
  -7   1  -5    0.08    0.10
  -7   1  -5   -0.03    0.11
   7  -1   5    0.06    0.10
   7  -1   5   -0.20    0.09
   7  -1   5    0.10    0.10
   7   0  -5    0.17    0.13
  -7   0   5   -0.05    0.09
  -7   0   5   -0.07    0.09
  -7   0   5    0.12    0.12
   6   0  -5    6.33    0.36
   6   0  -5    5.77    0.36
  -6   0   5    6.04    0.36
  -6   0   5    5.66    0.35
  -6   0   5    6.20    0.33
  -6   0   5    6.47    0.38
   5   0  -5    4.20    0.29
  -5   0   5    3.93    0.27
  -5   0   5    4.52    0.26
  -5   0   5    4.55    0.30
  -5   0   5    4.54    0.29
   4   0  -5   12.86    0.49
  -4   0   5   12.09    0.47
  -4   0   5   12.26    0.41
  -4   0   5   12.53    0.49
  -4   0   5   11.84    0.47
  -4   0   5   12.61    0.43
   3   0  -5    9.95    0.38
  -3   0   5   10.30    0.33
  -3   0   5   10.21    0.38
  -3   0   5    9.94    0.38
  -3   0   5    9.84    0.31
  -3   0   5    9.56    0.38
   2   0  -5   18.19    0.56
  -2   0   5   18.86    0.57
  -2   0   5   19.58    0.57
  -2   0   5   19.14    0.48
  -2   0   5   20.24    0.52
  -2   0   5   19.49    0.56
   1   0  -5   25.78    0.70
  -1   0   5   25.62    0.64
  -1   0   5   24.95    0.66
  -1   0   5   27.69    0.68
   0   0  -5   11.45    0.33
   0   0  -5   11.29    0.33
   0   0   5   12.17    0.34
   0   0   5   11.51    0.32
   0   0   5   11.37    0.32
  -1   0  -5   18.60    0.46
  -1   0  -5   18.13    0.51
   1   0   5   18.24    0.51
   1   0   5   17.92    0.50
   1   0   5   17.54    0.49
  -2   0  -5    0.19    0.05
  -2   0  -5    0.19    0.06
  -2   0  -5    0.23    0.03
  -2   0  -5    0.25    0.04
  -2   0  -5    0.28    0.06
   2   0   5    0.21    0.06
   2   0   5    0.29    0.06
   2   0   5    0.25    0.06
  -3   0  -5    5.39    0.21
  -3   0  -5    5.02    0.22
  -3   0  -5    5.00    0.24
  -3   0  -5    5.16    0.26
  -3   0  -5    5.19    0.18
   3   0   5    4.98    0.24
   3   0   5    5.18    0.26
   3   0   5    5.67    0.25
  -4   0  -5   12.92    0.50
  -4   0  -5   12.71    0.38
  -4   0  -5   12.83    0.44
  -4   0  -5   12.35    0.47
  -4   0  -5   12.51    0.42
   4   0   5   13.61    0.48
   4   0   5   12.14    0.49
   4   0   5   12.41    0.47
  -5   0  -5    9.53    0.45
  -5   0  -5    8.59    0.36
  -5   0  -5    8.64    0.40
  -5   0  -5    9.38    0.40
   5   0   5    9.79    0.45
   5   0   5    9.06    0.41
   5   0   5    8.72    0.41
  -6   0  -5    1.56    0.21
  -6   0  -5    1.84    0.13
  -6   0  -5    2.14    0.26
   6   0   5    1.86    0.22
   6   0   5    1.45    0.20
   6   0   5    2.43    0.29
  -7   0  -5    1.75    0.24
  -7   0  -5    2.06    0.28
  -7   0  -5    1.74    0.12
   7   0   5    1.95    0.24
   7   0   5    1.30    0.21
   7   0   5    1.82    0.27
   7  -1  -5    0.20    0.14
  -7   1   5    0.25    0.13
  -7   1   5    0.40    0.15
  -7   1   5    0.13    0.12
   6  -1  -5    3.63    0.27
  -6   1   5    3.92    0.28
  -6   1   5    2.94    0.29
  -6   1   5    3.49    0.28
   5  -1  -5    0.81    0.14
   5  -1  -5    0.97    0.16
  -5   1   5    0.92    0.14
  -5   1   5    0.96    0.17
  -5   1   5    0.82    0.15
  -5   1   5    0.94    0.14
  -5   1   5    0.92    0.16
   4  -1  -5   40.26    1.10
  -4   1   5   37.70    1.04
  -4   1   5   39.95    1.11
  -4   1   5   39.21    1.10
  -4   1   5   38.51    1.01
  -4   1   5   37.79    1.07
   3  -1  -5    0.12    0.06
  -3   1   5    0.31    0.06
  -3   1   5    0.20    0.07
  -3   1   5    0.30    0.08
  -3   1   5    0.25    0.07
  -3   1   5    0.24    0.05
   2  -1  -5    4.42    0.20
  -2   1   5    4.24    0.20
  -2   1   5    4.29    0.21
  -2   1   5    4.47    0.16
  -2   1   5    4.52    0.21
  -2   1   5    4.21    0.16
   1  -1  -5    2.40    0.13
  -1   1   5    2.23    0.09
  -1   1   5    2.34    0.13
  -1   1   5    2.42    0.11
  -1   1   5    2.39    0.10
  -1   1   5    2.06    0.12
   0  -1  -5    0.50    0.06
   0   1   5    0.70    0.06
   0   1   5    0.67    0.06
   0   1   5    0.69    0.05
  -1  -1  -5    8.58    0.21
  -1  -1  -5    8.08    0.27
  -1  -1  -5    8.69    0.27
   1   1   5    9.23    0.29
   1   1   5    8.48    0.27
   1   1   5    8.38    0.28
  -2  -1  -5   38.66    0.98
  -2  -1  -5   38.82    0.98
   2   1   5   38.68    1.00
   2   1   5   37.28    0.97
   2   1   5   36.67    0.99
  -3  -1  -5    1.55    0.08
  -3  -1  -5    1.25    0.14
  -3  -1  -5    1.55    0.10
   3   1   5    1.76    0.14
   3   1   5    1.33    0.14
   3   1   5    1.80    0.15
  -4  -1  -5    4.44    0.27
  -4  -1  -5    5.48    0.20
  -4  -1  -5    5.16    0.29
  -4  -1  -5    5.32    0.22
   4   1   5    5.07    0.28
   4   1   5    5.07    0.29
   4   1   5    5.22    0.29
  -5  -1  -5    0.33    0.12
  -5  -1  -5    0.18    0.07
  -5  -1  -5    0.47    0.12
   5   1   5    0.40    0.12
   5   1   5    0.42    0.12
   5   1   5    0.56    0.14
  -6  -1  -5    0.14    0.10
  -6  -1  -5    0.00    0.09
   6   1   5   -0.16    0.07
   6   1   5    0.02    0.09
   6   1   5    0.10    0.10
  -7  -1  -5    1.24    0.20
  -7  -1  -5    1.29    0.10
   7   1   5    1.65    0.23
   7   1   5    1.63    0.25
   7   1   5    1.93    0.25
   7  -2  -5    0.07    0.12
  -7   2   5    0.03    0.10
  -7   2   5    0.07    0.12
  -7   2   5   -0.11    0.09
   6  -2  -5    0.41    0.13
  -6   2   5    0.27    0.11
  -6   2   5    0.28    0.11
  -6   2   5    0.43    0.13
  -6   2   5    0.53    0.13
   5  -2  -5    0.73    0.12
   5  -2  -5    0.43    0.11
  -5   2   5    0.44    0.12
  -5   2   5    0.63    0.12
  -5   2   5    0.48    0.12
   4  -2  -5    6.34    0.25
   4  -2  -5    6.31    0.30
   4  -2  -5    7.06    0.29
  -4   2   5    6.46    0.29
  -4   2   5    6.04    0.30
  -4   2   5    6.42    0.33
  -4   2   5    6.39    0.32
  -4   2   5    6.29    0.25
   3  -2  -5    0.42    0.08
  -3   2   5    0.48    0.08
  -3   2   5    0.27    0.08
  -3   2   5    0.49    0.10
  -3   2   5    0.32    0.05
   2  -2  -5    3.72    0.18
   2  -2  -5    3.63    0.14
  -2   2   5    4.01    0.13
  -2   2   5    3.63    0.16
  -2   2   5    3.69    0.20
  -2   2   5    3.83    0.20
   1  -2  -5   33.39    0.78
   1  -2  -5   31.40    0.83
  -1   2   5   31.89    0.77
  -1   2   5   31.38    0.82
  -1   2   5   31.37    0.80
   0  -2  -5    0.43    0.05
   0  -2  -5    0.42    0.06
   0  -2  -5    0.40    0.05
   0   2   5    0.57    0.05
   0   2   5    0.42    0.06
   0   2   5    0.54    0.06
   0   2   5    0.61    0.05
   0   2   5    0.40    0.05
  -1  -2  -5    5.42    0.20
  -1  -2  -5    5.60    0.21
   1   2   5    4.84    0.19
   1   2   5    5.10    0.14
   1   2   5    5.43    0.21
   1   2   5    4.95    0.20
  -2  -2  -5   30.58    0.82
  -2  -2  -5   30.49    0.83
   2   2   5   30.65    0.82
   2   2   5   30.59    0.83
   2   2   5   31.37    0.84
  -3  -2  -5    2.74    0.18
  -3  -2  -5    2.81    0.18
   3   2   5    3.59    0.21
   3   2   5    3.52    0.20
   3   2   5    3.46    0.20
   3   2   5    3.19    0.12
  -4  -2  -5   15.21    0.54
  -4  -2  -5   14.83    0.53
  -4  -2  -5   15.06    0.43
   4   2   5   14.36    0.54
   4   2   5   15.21    0.54
   4   2   5   14.91    0.54
  -5  -2  -5    0.04    0.08
  -5  -2  -5    0.06    0.09
   5   2   5    0.01    0.09
   5   2   5   -0.09    0.08
   5   2   5    0.02    0.08
  -6  -2  -5    8.92    0.45
  -6  -2  -5    9.96    0.47
   6   2   5    9.16    0.46
   6   2   5    9.01    0.46
   6   2   5    9.38    0.47
  -7  -2  -5    0.02    0.10
  -7  -2  -5   -0.02    0.11
   7   2   5    0.08    0.11
   7   2   5    0.23    0.13
   7   2   5    0.33    0.15
  -7   3   5    0.75    0.18
  -7   3   5    0.71    0.18
   6  -3  -5    0.02    0.08
  -6   3   5   -0.06    0.08
  -6   3   5    0.16    0.10
  -6   3   5    0.10    0.09
   5  -3  -5    0.15    0.09
  -5   3   5    0.28    0.10
  -5   3   5    0.17    0.10
  -5   3   5    0.19    0.11
   4  -3  -5    1.26    0.15
   4  -3  -5    1.27    0.12
  -4   3   5    1.42    0.17
  -4   3   5    1.66    0.19
  -4   3   5    1.27    0.17
   3  -3  -5    2.12    0.14
   3  -3  -5    2.29    0.10
  -3   3   5    1.56    0.17
  -3   3   5    2.21    0.17
  -3   3   5    2.27    0.15
  -3   3   5    2.21    0.10
   2  -3  -5    0.35    0.04
   2  -3  -5    0.39    0.07
  -2   3   5    0.29    0.08
  -2   3   5    0.34    0.07
  -2   3   5    0.30    0.08
   1  -3  -5    0.55    0.07
   1  -3  -5    0.54    0.04
  -1   3   5    0.49    0.07
  -1   3   5    0.52    0.04
  -1   3   5    0.52    0.08
  -1   3   5    0.50    0.07
   0  -3  -5    0.41    0.05
   0  -3  -5    0.35    0.05
   0  -3  -5    0.39    0.06
   0   3   5    0.30    0.06
   0   3   5    0.44    0.05
   0   3   5    0.47    0.06
   0   3   5    0.36    0.05
   0   3   5    0.26    0.05
  -1  -3  -5    5.68    0.22
  -1  -3  -5    5.85    0.23
   1   3   5    5.98    0.23
   1   3   5    5.65    0.17
   1   3   5    5.70    0.22
   1   3   5    5.85    0.22
  -2  -3  -5    9.00    0.34
  -2  -3  -5    9.88    0.35
   2   3   5    9.70    0.34
   2   3   5    9.09    0.34
   2   3   5    9.40    0.35
  -3  -3  -5    2.08    0.17
  -3  -3  -5    2.26    0.17
   3   3   5    2.27    0.17
   3   3   5    2.10    0.15
   3   3   5    1.99    0.17
  -4  -3  -5    8.62    0.38
  -4  -3  -5    8.75    0.39
   4   3   5    8.74    0.37
   4   3   5    9.14    0.41
   4   3   5    9.04    0.40
  -5  -3  -5    4.26    0.29
  -5  -3  -5    3.78    0.27
   5   3   5    4.29    0.30
   5   3   5    4.25    0.29
   5   3   5    4.24    0.28
  -6  -3  -5    1.42    0.22
  -6  -3  -5    1.92    0.25
   6   3   5    1.56    0.22
   6   3   5    1.72    0.23
   6   3   5    1.39    0.22
  -7  -3  -5    1.38    0.23
  -7  -3  -5    2.08    0.28
   7   3   5    1.70    0.25
   7   3   5    2.33    0.29
   7   3   5    1.86    0.26
  -7   4   5   -0.07    0.10
  -7   4   5   -0.04    0.10
  -6   4   5    0.17    0.10
  -6   4   5    0.21    0.11
  -6   4   5    0.04    0.08
   5  -4  -5    2.87    0.21
  -5   4   5    2.31    0.25
  -5   4   5    2.17    0.26
  -5   4   5    2.91    0.24
   4  -4  -5    0.56    0.10
  -4   4   5    0.45    0.11
  -4   4   5    0.49    0.12
  -4   4   5    0.71    0.13
   3  -4  -5    8.06    0.23
   3  -4  -5    8.36    0.24
   3  -4  -5    8.21    0.31
  -3   4   5    8.52    0.34
  -3   4   5    8.28    0.37
  -3   4   5    8.17    0.35
   2  -4  -5    1.69    0.12
  -2   4   5    1.91    0.15
  -2   4   5    1.79    0.13
  -2   4   5    2.10    0.15
   1  -4  -5    0.41    0.04
   1  -4  -5    0.46    0.07
  -1   4   5    0.55    0.08
  -1   4   5    0.54    0.08
  -1   4   5    0.53    0.08
  -1   4   5    0.47    0.03
   0  -4  -5    0.05    0.03
   0  -4  -5    0.02    0.03
   0  -4  -5    0.05    0.03
   0   4   5   -0.01    0.03
   0   4   5    0.02    0.02
   0   4   5    0.04    0.03
   0   4   5    0.05    0.03
  -1  -4  -5   13.69    0.44
  -1  -4  -5   13.15    0.41
   1   4   5   13.40    0.42
   1   4   5   13.93    0.42
  -2  -4  -5    3.47    0.19
  -2  -4  -5    3.03    0.19
   2   4   5    3.13    0.17
   2   4   5    3.01    0.19
  -3  -4  -5    0.11    0.06
  -3  -4  -5    0.00    0.05
   3   4   5   -0.02    0.05
   3   4   5    0.08    0.05
   3   4   5    0.05    0.05
  -4  -4  -5    0.46    0.11
  -4  -4  -5    0.66    0.13
   4   4   5    0.38    0.10
   4   4   5    0.61    0.12
   4   4   5    0.73    0.14
  -5  -4  -5    0.86    0.17
  -5  -4  -5    1.18    0.18
   5   4   5    1.08    0.18
   5   4   5    1.02    0.18
   5   4   5    0.81    0.15
  -6  -4  -5    0.18    0.10
   6   4   5    0.06    0.10
   6   4   5    0.11    0.10
   6   4   5    0.03    0.08
  -7  -4  -5    0.04    0.10
  -7  -4  -5    0.40    0.14
   7   4   5    0.06    0.12
   7   4   5    0.18    0.12
   7   4   5    0.06    0.10
  -7   5   5    0.27    0.14
  -7   5   5    0.40    0.15
  -7   5   5    0.44    0.17
  -6   5   5    0.15    0.11
  -6   5   5    0.37    0.14
  -6   5   5    0.32    0.13
   5  -5  -5    0.16    0.09
  -5   5   5    0.17    0.10
  -5   5   5    0.20    0.10
  -5   5   5    0.22    0.11
   4  -5  -5    0.19    0.07
  -4   5   5    0.10    0.08
  -4   5   5    0.21    0.09
  -4   5   5    0.14    0.10
   3  -5  -5    2.26    0.15
  -3   5   5    2.08    0.17
  -3   5   5    1.86    0.20
  -3   5   5    2.10    0.20
   2  -5  -5    0.24    0.06
  -2   5   5    0.26    0.07
  -2   5   5    0.29    0.08
  -2   5   5    0.17    0.07
   1  -5  -5    1.73    0.12
   1  -5  -5    1.74    0.08
  -1   5   5    1.77    0.13
  -1   5   5    1.62    0.13
  -1   5   5    1.66    0.06
  -1   5   5    1.57    0.13
   0  -5  -5    3.71    0.19
   0  -5  -5    3.66    0.16
   0   5   5    3.93    0.16
   0   5   5    3.90    0.19
   0   5   5    3.56    0.17
   0   5   5    3.75    0.17
  -1  -5  -5    1.50    0.13
  -1  -5  -5    1.54    0.12
   1   5   5    1.42    0.09
   1   5   5    1.31    0.11
   1   5   5    1.37    0.11
  -2  -5  -5    2.45    0.17
  -2  -5  -5    2.33    0.17
   2   5   5    2.22    0.17
   2   5   5    2.58    0.16
  -3  -5  -5    1.69    0.18
  -3  -5  -5    1.46    0.18
   3   5   5    1.60    0.18
   3   5   5    1.58    0.16
  -4  -5  -5    0.88    0.15
  -4  -5  -5    1.15    0.17
   4   5   5    0.99    0.16
   4   5   5    0.91    0.14
  -5  -5  -5    0.42    0.12
  -5  -5  -5    0.40    0.14
   5   5   5    0.43    0.12
   5   5   5    0.41    0.14
   5   5   5    0.26    0.11
  -6  -5  -5    1.73    0.24
  -6  -5  -5    1.97    0.27
   6   5   5    2.22    0.27
   6   5   5    1.98    0.26
   6   5   5    1.81    0.23
  -7  -5  -5    0.03    0.12
  -7  -5  -5   -0.08    0.09
   7   5   5   -0.01    0.11
   7   5   5    0.07    0.10
  -6   6   5    0.94    0.19
  -6   6   5    1.22    0.22
  -6   6   5    1.54    0.24
  -5   6   5    3.44    0.28
  -5   6   5    3.73    0.29
  -5   6   5    3.39    0.28
   4  -6  -5   -0.04    0.06
  -4   6   5   -0.02    0.07
  -4   6   5    0.09    0.09
  -4   6   5   -0.03    0.06
   3  -6  -5    0.04    0.05
  -3   6   5    0.12    0.07
  -3   6   5    0.46    0.12
  -3   6   5   -0.03    0.05
   2  -6  -5    8.27    0.31
  -2   6   5    8.89    0.36
  -2   6   5    7.86    0.36
  -2   6   5    7.79    0.34
   1  -6  -5   12.40    0.41
   1  -6  -5   12.09    0.33
  -1   6   5   10.78    0.41
  -1   6   5   11.89    0.31
  -1   6   5   11.86    0.41
  -1   6   5   12.16    0.43
   0  -6  -5    1.50    0.14
   0  -6  -5    1.24    0.10
   0   6   5    1.27    0.13
   0   6   5    1.34    0.10
   0   6   5    1.37    0.15
  -1  -6  -5    0.47    0.08
  -1  -6  -5    0.48    0.09
   1   6   5    0.48    0.09
  -2  -6  -5    4.14    0.24
  -2  -6  -5    4.36    0.25
   2   6   5    4.18    0.16
   2   6   5    4.23    0.24
   2   6   5    4.08    0.23
  -3  -6  -5    0.42    0.11
  -3  -6  -5    0.27    0.09
   3   6   5    0.30    0.09
   3   6   5    0.19    0.08
  -4  -6  -5    2.28    0.25
  -4  -6  -5    1.80    0.21
   4   6   5    2.24    0.24
   4   6   5    2.08    0.20
  -5  -6  -5    3.84    0.29
  -5  -6  -5    3.35    0.29
   5   6   5    3.47    0.28
   5   6   5    3.48    0.25
  -6  -6  -5    0.81    0.19
  -6  -6  -5    0.62    0.16
   6   6   5    0.59    0.17
   6   6   5    0.68    0.17
   6   6   5    0.54    0.14
  -7  -6  -5    0.15    0.15
  -7  -6  -5    0.13    0.11
   7   6   5   -0.16    0.11
   7   6   5   -0.05    0.10
  -6   7   5   -0.01    0.10
  -6   7   5    0.01    0.12
  -6   7   5    0.14    0.12
  -5   7   5    1.76    0.25
  -5   7   5    1.66    0.24
  -5   7   5    1.50    0.22
  -4   7   5    1.85    0.24
  -4   7   5    1.79    0.22
  -4   7   5    2.15    0.25
   3  -7  -5    1.34    0.14
  -3   7   5    1.19    0.17
  -3   7   5    1.86    0.22
  -3   7   5    1.33    0.18
   2  -7  -5   11.34    0.39
  -2   7   5   10.55    0.44
  -2   7   5   11.05    0.43
  -2   7   5   10.92    0.44
   1  -7  -5   18.07    0.49
   1  -7  -5   18.62    0.57
  -1   7   5   18.78    0.47
  -1   7   5   17.40    0.58
  -1   7   5   18.31    0.60
  -1   7   5   17.17    0.57
   0  -7  -5   23.02    0.70
   0  -7  -5   23.54    0.65
   0   7   5   24.84    0.66
   0   7   5   22.91    0.72
   0   7   5   23.06    0.68
  -1  -7  -5    0.20    0.08
   1   7   5    0.32    0.09
  -2  -7  -5    2.02    0.19
  -2  -7  -5    2.27    0.19
   2   7   5    1.93    0.17
   2   7   5    2.02    0.17
   2   7   5    2.08    0.13
  -3  -7  -5    2.40    0.23
  -3  -7  -5    2.03    0.23
   3   7   5    2.22    0.18
   3   7   5    2.40    0.24
  -4  -7  -5    2.47    0.26
  -4  -7  -5    2.77    0.29
   4   7   5    3.16    0.22
   4   7   5    2.89    0.25
  -5  -7  -5    0.06    0.10
  -5  -7  -5    0.36    0.12
   5   7   5    0.05    0.09
   5   7   5    0.09    0.10
  -6  -7  -5    0.13    0.11
  -6  -7  -5    0.05    0.12
   6   7   5    0.17    0.13
   6   7   5    0.10    0.10
   6   7   5    0.10    0.10
  -7  -7  -5    0.08    0.11
  -7  -7  -5    0.03    0.14
   7   7   5    0.00    0.11
   7   7   5    0.03    0.12
  -6   8   5    1.90    0.29
  -6   8   5    1.47    0.26
  -5   8   5    2.28    0.30
  -5   8   5    2.14    0.27
  -5   8   5    2.15    0.28
  -4   8   5    1.56    0.23
  -4   8   5    1.15    0.19
  -4   8   5    1.59    0.23
  -3   8   5    0.13    0.09
  -3   8   5    0.04    0.08
  -3   8   5    0.17    0.10
   2  -8  -5    1.77    0.15
  -2   8   5    2.24    0.23
  -2   8   5    1.95    0.21
  -2   8   5    1.56    0.18
   1  -8  -5   17.11    0.55
  -1   8   5   16.29    0.57
  -1   8   5   16.72    0.57
  -1   8   5   17.50    0.60
   0  -8  -5    2.73    0.19
   0  -8  -5    2.73    0.17
   0   8   5    2.65    0.16
   0   8   5    2.75    0.20
   0   8   5    2.55    0.18
  -1  -8  -5    0.93    0.13
  -1  -8  -5    0.85    0.14
   1   8   5    0.96    0.14
  -2  -8  -5    4.95    0.29
  -2  -8  -5    4.77    0.27
   2   8   5    4.99    0.27
   2   8   5    4.61    0.27
  -3  -8  -5    0.38    0.11
  -3  -8  -5    0.73    0.16
   3   8   5    0.51    0.12
   3   8   5    0.25    0.10
  -4  -8  -5    0.47    0.14
  -4  -8  -5    0.84    0.17
   4   8   5    0.64    0.14
   4   8   5    0.48    0.13
  -5  -8  -5    1.34    0.22
  -5  -8  -5    1.22    0.22
   5   8   5    1.48    0.23
   5   8   5    1.23    0.19
  -6  -8  -5    0.96    0.20
  -6  -8  -5    1.53    0.27
   6   8   5    1.06    0.19
  -5   9   5    0.12    0.12
  -5   9   5   -0.04    0.12
  -5   9   5    0.33    0.14
  -4   9   5    0.67    0.17
  -4   9   5    0.63    0.16
  -4   9   5    0.71    0.18
  -3   9   5    3.09    0.29
  -3   9   5    3.26    0.27
  -3   9   5    2.81    0.29
   2  -9  -5    2.91    0.20
  -2   9   5    2.26    0.25
  -2   9   5    2.96    0.23
  -2   9   5    2.98    0.24
   1  -9  -5    6.18    0.30
  -1   9   5    6.01    0.33
  -1   9   5    6.96    0.34
  -1   9   5    6.62    0.33
   0  -9  -5    1.26    0.14
   0  -9  -5    0.93    0.14
   0   9   5    1.19    0.17
   0   9   5    1.16    0.15
  -1  -9  -5    0.32    0.10
  -1  -9  -5    0.29    0.09
   1   9   5    0.20    0.08
   1   9   5    0.34    0.09
   1   9   5    0.22    0.08
  -2  -9  -5    1.24    0.19
  -2  -9  -5    1.07    0.16
   2   9   5    0.96    0.16
   2   9   5    0.80    0.14
  -3  -9  -5    0.92    0.16
  -3  -9  -5    0.82    0.17
   3   9   5    0.61    0.14
   3   9   5    0.71    0.14
  -4  -9  -5    0.76    0.17
  -4  -9  -5    0.67    0.17
   4   9   5    1.19    0.18
   4   9   5    0.82    0.17
  -5  -9  -5   -0.13    0.09
  -5  -9  -5    0.12    0.10
   5   9   5   -0.02    0.08
   5   9   5   -0.08    0.08
  -6  -9  -5    1.47    0.24
  -6  -9  -5    1.58    0.28
   6   9   5    1.40    0.22
  -5  10   5    0.54    0.18
  -5  10   5    0.16    0.13
  -4  10   5    0.99    0.21
  -4  10   5    0.85    0.19
  -4  10   5    1.04    0.20
  -3  10   5   -0.02    0.09
  -3  10   5    0.07    0.09
  -3  10   5    0.11    0.11
  -2  10   5    2.97    0.30
  -2  10   5    2.36    0.25
  -2  10   5    3.04    0.25
   1 -10  -5    0.01    0.07
  -1  10   5    0.16    0.09
  -1  10   5   -0.10    0.07
  -1  10   5   -0.07    0.07
   0 -10  -5   -0.11    0.06
   0  10   5    0.04    0.07
   0  10   5    0.11    0.07
  -1 -10  -5    0.06    0.08
  -1 -10  -5    0.00    0.06
   1  10   5    0.04    0.07
   1  10   5    0.01    0.06
   1  10   5   -0.01    0.06
  -2 -10  -5    0.86    0.17
  -2 -10  -5    0.47    0.12
   2  10   5    0.70    0.14
   2  10   5    0.70    0.14
  -3 -10  -5    2.13    0.26
  -3 -10  -5    2.28    0.26
   3  10   5    2.11    0.23
   3  10   5    1.72    0.22
  -4 -10  -5    0.09    0.12
  -4 -10  -5   -0.11    0.08
   4  10   5    0.01    0.09
   4  10   5   -0.02    0.09
  -5 -10  -5    0.12    0.13
  -5 -10  -5    0.20    0.12
   5  10   5    0.05    0.11
   5  10   5    0.19    0.11
  -4  11   5    0.36    0.16
  -4  11   5    0.45    0.17
  -3  11   5    4.43    0.35
  -3  11   5    3.72    0.30
  -3  11   5    4.58    0.34
  -2  11   5    0.13    0.12
  -2  11   5    0.05    0.11
  -2  11   5    0.17    0.10
  -1  11   5    0.28    0.11
  -1  11   5    0.57    0.15
  -1  11   5    0.48    0.15
   0 -11  -5    7.08    0.37
   0  11   5    6.78    0.36
   0  11   5    6.56    0.37
  -1 -11  -5    3.14    0.27
  -1 -11  -5    3.74    0.26
   1  11   5    3.26    0.27
  -2 -11  -5    4.29    0.30
  -2 -11  -5    3.82    0.31
   2  11   5    3.64    0.28
   2  11   5    3.96    0.29
  -3 -11  -5    0.35    0.14
  -3 -11  -5    0.19    0.11
   3  11   5    0.17    0.12
   3  11   5    0.31    0.13
  -4 -11  -5    3.86    0.40
  -4 -11  -5    2.99    0.33
   4  11   5    2.86    0.31
   4  11   5    3.67    0.29
  -5 -11  -5    0.48    0.16
  -5 -11  -5    0.59    0.20
   5  11   5    0.48    0.15
  -3  12   5    0.35    0.15
  -3  12   5    0.31    0.14
  -2  12   5    1.02    0.20
  -2  12   5    0.61    0.17
  -2  12   5    0.48    0.15
  -1  12   5    2.93    0.29
  -1  12   5    2.31    0.27
  -1  12   5    2.26    0.28
   0  12   5    1.53    0.21
   0  12   5    1.63    0.24
  -1 -12  -5    1.42    0.22
   1  12   5    1.37    0.22
  -2 -12  -5    2.99    0.33
  -2 -12  -5    3.41    0.28
   2  12   5    2.49    0.28
  -3 -12  -5   -0.10    0.09
  -3 -12  -5    0.07    0.12
   3  12   5   -0.04    0.09
   3  12   5   -0.03    0.08
  -4 -12  -5    1.17    0.24
  -4 -12  -5    1.50    0.24
   4  12   5    1.19    0.22
   4  12   5    1.44    0.22
  -2  13   5    0.03    0.11
  -2  13   5    0.06    0.11
  -1  13   5   -0.04    0.08
  -1  13   5   -0.08    0.09
  -1  13   5    0.09    0.12
   0  13   5    0.31    0.12
   0  13   5    0.21    0.13
   1  13   5    0.17    0.12
  -2 -13  -5    3.00    0.33
  -2 -13  -5    2.58    0.28
   2  13   5    2.67    0.30
   3  13   5    0.26    0.12
   2  11  -6    0.05    0.10
  -2 -11   6    0.11    0.10
   1  11  -6    0.54    0.16
  -1 -11   6    0.60    0.15
   0  11  -6    0.03    0.10
   0 -11   6    0.26    0.12
  -1  11  -6   -0.05    0.10
   1 -11   6   -0.08    0.08
  -2  11  -6   -0.07    0.09
  -2  11  -6    0.03    0.12
   2 -11   6   -0.04    0.09
   4  10  -6    2.58    0.28
   4  10  -6    3.22    0.37
  -4 -10   6    2.54    0.33
  -4 -10   6    2.50    0.31
   3  10  -6    0.97    0.19
   3  10  -6    1.01    0.22
  -3 -10   6    0.78    0.19
  -3 -10   6    0.77    0.18
   2  10  -6   -0.02    0.09
  -2 -10   6    0.07    0.09
   1  10  -6    1.61    0.23
  -1 -10   6    1.17    0.20
   0  10  -6    0.34    0.12
   0 -10   6    0.48    0.14
  -1  10  -6    2.24    0.26
  -1  10  -6    1.86    0.24
   1 -10   6    1.93    0.23
  -2  10  -6    0.14    0.11
  -2  10  -6    0.28    0.13
   2 -10   6    0.15    0.10
  -3  10  -6    4.12    0.35
  -3  10  -6    4.54    0.35
   3 -10   6    3.97    0.30
   5   9  -6   -0.04    0.09
   4   9  -6    1.28    0.21
   4   9  -6    1.39    0.26
  -4  -9   6    1.22    0.22
  -4  -9   6    0.90    0.21
   3   9  -6    1.21    0.22
   3   9  -6    0.73    0.16
  -3  -9   6    1.03    0.19
  -3  -9   6    0.90    0.19
   2   9  -6    0.51    0.15
   2   9  -6    0.42    0.13
  -2  -9   6    0.55    0.15
  -2  -9   6    0.62    0.16
   1   9  -6    0.03    0.09
  -1  -9   6   -0.01    0.07
   0   9  -6    0.19    0.10
   0   9  -6    0.12    0.09
   0  -9   6    0.17    0.09
  -1   9  -6    0.01    0.10
  -1   9  -6    0.15    0.10
   1  -9   6   -0.05    0.06
  -2   9  -6   -0.03    0.09
  -2   9  -6   -0.12    0.07
   2  -9   6    0.13    0.10
  -3   9  -6    1.93    0.27
  -3   9  -6    2.59    0.30
   3  -9   6    2.76    0.22
  -4   9  -6    2.14    0.31
  -4   9  -6    1.33    0.20
  -4   9  -6    1.34    0.23
   4  -9   6    1.65    0.20
   5   8  -6    0.22    0.15
   5   8  -6   -0.03    0.10
  -5  -8   6    0.13    0.11
  -5  -8   6    0.33    0.15
   4   8  -6   -0.07    0.12
   4   8  -6    0.04    0.09
  -4  -8   6    0.04    0.13
  -4  -8   6    0.08    0.10
   3   8  -6    0.33    0.14
   3   8  -6    0.32    0.11
  -3  -8   6    0.51    0.14
  -3  -8   6    0.40    0.14
   2   8  -6    5.09    0.31
   2   8  -6    5.40    0.33
  -2  -8   6    4.83    0.31
  -2  -8   6    4.81    0.32
   1   8  -6    0.24    0.10
   1   8  -6    0.57    0.12
  -1  -8   6    0.41    0.10
  -1  -8   6    0.53    0.13
   0   8  -6    1.91    0.22
   0   8  -6    2.34    0.19
   0  -8   6    2.47    0.24
  -1   8  -6    6.10    0.34
   1  -8   6    6.16    0.32
   1  -8   6    5.87    0.31
  -2   8  -6    3.39    0.28
  -2   8  -6    4.09    0.29
   2  -8   6    3.37    0.23
   2  -8   6    3.62    0.24
  -3   8  -6    0.04    0.10
  -3   8  -6    0.07    0.09
   3  -8   6    0.02    0.07
  -4   8  -6    8.28    0.49
  -4   8  -6    7.71    0.45
  -4   8  -6    8.14    0.41
   4  -8   6    8.00    0.38
  -5   8  -6    0.83    0.19
  -5   8  -6    0.92    0.22
   5  -8   6    0.72    0.15
   6   7  -6   -0.01    0.12
   6   7  -6    0.19    0.12
  -6  -7   6   -0.03    0.13
  -6  -7   6   -0.09    0.10
   5   7  -6    1.41    0.20
   5   7  -6    1.26    0.23
  -5  -7   6    1.22    0.23
  -5  -7   6    0.88    0.18
   4   7  -6    1.16    0.21
   4   7  -6    1.24    0.18
  -4  -7   6    1.43    0.23
  -4  -7   6    0.87    0.18
   3   7  -6    0.09    0.10
   3   7  -6    0.08    0.08
  -3  -7   6    0.10    0.09
  -3  -7   6    0.03    0.06
   2   7  -6    0.30    0.10
   2   7  -6    0.09    0.10
  -2  -7   6    0.09    0.09
  -2  -7   6    0.21    0.09
   1   7  -6    2.33    0.23
   1   7  -6    2.62    0.20
  -1  -7   6    2.13    0.21
  -1  -7   6    2.62    0.21
   0   7  -6    3.92    0.29
   0   7  -6    3.94    0.25
   0   7  -6    4.36    0.24
   0  -7   6    3.73    0.23
  -1   7  -6    6.47    0.38
  -1   7  -6    6.91    0.35
  -1   7  -6    6.56    0.34
   1  -7   6    6.68    0.32
   1  -7   6    6.84    0.32
  -2   7  -6   17.91    0.69
  -2   7  -6   18.92    0.68
  -2   7  -6   17.99    0.66
   2  -7   6   18.14    0.60
   2  -7   6   18.86    0.61
  -3   7  -6    2.97    0.24
  -3   7  -6    3.11    0.26
  -3   7  -6    2.43    0.26
   3  -7   6    2.66    0.20
   3  -7   6    2.88    0.20
  -4   7  -6    2.17    0.26
  -4   7  -6    2.40    0.24
  -4   7  -6    2.68    0.31
   4  -7   6    2.58    0.21
  -5   7  -6    0.72    0.20
  -5   7  -6    0.55    0.16
   5  -7   6    0.63    0.13
   6   6  -6    0.29    0.12
   6   6  -6    0.00    0.13
  -6  -6   6    0.15    0.14
  -6  -6   6   -0.01    0.09
   5   6  -6   -0.01    0.07
   5   6  -6    0.12    0.12
  -5  -6   6    0.09    0.11
  -5  -6   6   -0.04    0.07
   4   6  -6   -0.01    0.06
   4   6  -6   -0.05    0.10
  -4  -6   6   -0.01    0.11
  -4  -6   6   -0.04    0.06
   3   6  -6    3.13    0.21
   3   6  -6    3.04    0.25
  -3  -6   6    2.95    0.29
  -3  -6   6    2.70    0.22
   2   6  -6    7.35    0.36
   2   6  -6    7.25    0.34
  -2  -6   6    7.77    0.35
  -2  -6   6    8.15    0.38
   1   6  -6    0.25    0.08
   1   6  -6    0.18    0.06
   1   6  -6    0.20    0.08
  -1  -6   6    0.18    0.08
  -1  -6   6    0.18    0.07
   0   6  -6    0.19    0.08
   0   6  -6    0.07    0.05
   0   6  -6    0.07    0.05
   0   6  -6    0.09    0.06
   0  -6   6    0.03    0.06
   0  -6   6    0.09    0.05
   0  -6   6    0.06    0.05
  -1   6  -6    1.14    0.15
  -1   6  -6    0.96    0.15
  -1   6  -6    1.46    0.19
   1  -6   6    1.49    0.15
   1  -6   6    1.11    0.14
  -2   6  -6    2.65    0.20
  -2   6  -6    2.35    0.24
  -2   6  -6    2.37    0.24
   2  -6   6    2.53    0.18
   2  -6   6    2.75    0.18
  -3   6  -6    4.86    0.32
  -3   6  -6    5.47    0.31
  -3   6  -6    5.39    0.32
   3  -6   6    5.11    0.26
   3  -6   6    5.46    0.26
  -4   6  -6    0.80    0.14
  -4   6  -6    0.54    0.13
  -4   6  -6    0.56    0.13
  -4   6  -6    0.69    0.17
   4  -6   6    0.68    0.11
   4  -6   6    1.00    0.14
  -5   6  -6    2.00    0.28
  -5   6  -6    1.95    0.25
   5  -6   6    1.58    0.19
  -6   6  -6    1.41    0.23
  -6   6  -6    0.84    0.21
   6  -6   6    1.38    0.19
   6   5  -6    0.21    0.14
   6   5  -6    0.14    0.11
  -6  -5   6    0.09    0.10
  -6  -5   6    0.14    0.13
   5   5  -6    0.36    0.14
   5   5  -6    0.21    0.10
  -5  -5   6    0.43    0.15
  -5  -5   6    0.25    0.11
   4   5  -6    0.01    0.07
   4   5  -6    0.00    0.09
  -4  -5   6    0.01    0.09
  -4  -5   6    0.02    0.07
   3   5  -6    2.10    0.20
   3   5  -6    2.57    0.25
  -3  -5   6    1.85    0.20
  -3  -5   6    2.10    0.23
   2   5  -6    1.13    0.15
   2   5  -6    1.51    0.17
  -2  -5   6    1.30    0.17
  -2  -5   6    1.22    0.15
   1   5  -6    1.48    0.17
   1   5  -6    1.24    0.10
   1   5  -6    1.37    0.15
  -1  -5   6    1.49    0.16
  -1  -5   6    1.36    0.15
   0   5  -6   15.64    0.50
   0   5  -6   15.84    0.52
   0   5  -6   15.62    0.57
   0   5  -6   15.52    0.48
   0  -5   6   15.63    0.52
   0  -5   6   15.52    0.48
   0  -5   6   15.53    0.50
  -1   5  -6   10.82    0.44
  -1   5  -6   10.08    0.31
  -1   5  -6   10.92    0.41
  -1   5  -6   10.46    0.40
   1  -5   6    9.92    0.38
   1  -5   6   10.70    0.38
  -2   5  -6    3.95    0.26
  -2   5  -6    4.50    0.27
  -2   5  -6    3.73    0.23
   2  -5   6    4.28    0.22
   2  -5   6    4.27    0.22
  -3   5  -6    0.27    0.09
  -3   5  -6    0.31    0.10
  -3   5  -6    0.23    0.10
   3  -5   6    0.23    0.07
   3  -5   6    0.20    0.07
  -4   5  -6    7.21    0.33
  -4   5  -6    6.37    0.39
  -4   5  -6    6.70    0.36
  -4   5  -6    6.95    0.36
   4  -5   6    6.64    0.31
   4  -5   6    6.44    0.31
  -5   5  -6   -0.07    0.06
  -5   5  -6    0.07    0.08
  -5   5  -6    0.03    0.10
   5  -5   6   -0.04    0.06
  -6   5  -6    2.52    0.34
  -6   5  -6    1.93    0.25
   6  -5   6    2.41    0.31
   6  -5   6    1.90    0.21
   7   4  -6    0.18    0.12
   7   4  -6    0.26    0.17
  -7  -4   6    0.13    0.15
  -7  -4   6    0.26    0.13
   6   4  -6    0.22    0.10
   6   4  -6   -0.01    0.12
  -6  -4   6    0.12    0.09
  -6  -4   6    0.08    0.13
   5   4  -6    2.69    0.30
   5   4  -6    3.28    0.24
  -5  -4   6    3.60    0.29
  -5  -4   6    2.85    0.28
   4   4  -6    0.37    0.11
   4   4  -6    0.29    0.12
  -4  -4   6    0.66    0.13
  -4  -4   6    0.35    0.13
   3   4  -6    7.90    0.34
   3   4  -6    7.73    0.37
  -3  -4   6    7.92    0.37
  -3  -4   6    6.20    0.31
   2   4  -6   -0.12    0.05
   2   4  -6   -0.03    0.05
  -2  -4   6    0.03    0.04
  -2  -4   6    0.01    0.06
   1   4  -6    0.17    0.07
   1   4  -6    0.23    0.05
   1   4  -6    0.23    0.07
   1   4  -6    0.24    0.07
  -1  -4   6    0.27    0.07
  -1  -4   6    0.13    0.06
   0   4  -6    2.71    0.16
   0   4  -6    3.23    0.19
   0   4  -6    2.73    0.20
   0   4  -6    3.25    0.16
   0  -4   6    2.90    0.17
   0  -4   6    2.78    0.16
   0  -4   6    3.12    0.16
  -1   4  -6    7.68    0.34
  -1   4  -6    7.53    0.30
  -1   4  -6    7.62    0.31
  -1   4  -6    7.25    0.23
   1  -4   6    7.91    0.30
   1  -4   6    7.34    0.29
  -2   4  -6    0.35    0.08
  -2   4  -6    0.28    0.09
  -2   4  -6    0.20    0.08
   2  -4   6    0.30    0.07
   2  -4   6    0.19    0.06
  -3   4  -6   12.31    0.46
  -3   4  -6   12.23    0.48
  -3   4  -6   12.81    0.51
   3  -4   6   11.78    0.43
   3  -4   6   12.31    0.43
  -4   4  -6    2.00    0.16
  -4   4  -6    2.26    0.22
  -4   4  -6    2.08    0.21
  -4   4  -6    2.09    0.25
   4  -4   6    1.87    0.16
   4  -4   6    1.85    0.18
  -5   4  -6   -0.04    0.08
  -5   4  -6    0.02    0.07
  -5   4  -6   -0.05    0.06
   5  -4   6   -0.03    0.08
   5  -4   6    0.01    0.06
   5  -4   6   -0.02    0.06
  -6   4  -6    0.06    0.08
  -6   4  -6    0.17    0.12
  -6   4  -6    0.17    0.10
   6  -4   6    0.04    0.08
   6  -4   6    0.10    0.12
   7   3  -6    1.90    0.29
   7   3  -6    2.26    0.29
  -7  -3   6    1.80    0.29
  -7  -3   6    1.79    0.25
   6   3  -6    1.50    0.25
  -6  -3   6    1.20    0.22
  -6  -3   6    0.68    0.15
   5   3  -6    0.87    0.15
   5   3  -6    0.96    0.19
  -5  -3   6    0.62    0.14
  -5  -3   6    0.54    0.15
   4   3  -6    7.72    0.39
   4   3  -6    8.27    0.37
  -4  -3   6    8.19    0.37
  -4  -3   6    8.02    0.40
   3   3  -6    3.40    0.21
   3   3  -6    3.73    0.24
  -3  -3   6    3.92    0.22
  -3  -3   6    3.69    0.25
   2   3  -6    1.41    0.16
   2   3  -6    1.28    0.14
  -2  -3   6    1.66    0.17
  -2  -3   6    1.57    0.15
   1   3  -6   44.28    1.16
   1   3  -6   43.68    1.19
   1   3  -6   42.81    1.12
   1   3  -6   44.02    1.06
  -1  -3   6   43.51    1.11
  -1  -3   6   45.00    1.16
  -1  -3   6   44.65    1.16
   0   3  -6   27.43    0.74
   0   3  -6   27.93    0.74
   0   3  -6   26.29    0.75
   0   3  -6   29.14    0.82
   0  -3   6   27.31    0.74
   0  -3   6   27.17    0.74
   0  -3   6   28.68    0.77
  -1   3  -6   28.95    0.83
  -1   3  -6   27.29    0.77
  -1   3  -6   28.45    0.79
  -1   3  -6   28.35    0.71
   1  -3   6   27.25    0.75
   1  -3   6   28.54    0.77
  -2   3  -6   25.63    0.73
  -2   3  -6   25.63    0.79
  -2   3  -6   26.25    0.78
   2  -3   6   26.01    0.72
   2  -3   6   26.38    0.74
  -3   3  -6    2.07    0.22
  -3   3  -6    1.70    0.17
   3  -3   6    2.09    0.16
   3  -3   6    1.92    0.14
  -4   3  -6    1.36    0.14
  -4   3  -6    1.52    0.17
  -4   3  -6    1.14    0.15
  -4   3  -6    1.54    0.21
   4  -3   6    1.47    0.20
   4  -3   6    1.16    0.14
   4  -3   6    1.26    0.15
  -5   3  -6    4.39    0.32
  -5   3  -6    4.86    0.29
  -5   3  -6    3.92    0.24
   5  -3   6    3.95    0.25
   5  -3   6    3.74    0.29
   5  -3   6    3.83    0.25
  -6   3  -6    1.40    0.20
  -6   3  -6    1.39    0.24
  -6   3  -6    1.85    0.18
   6  -3   6    1.75    0.20
   6  -3   6    1.60    0.25
   6  -3   6    1.66    0.20
  -7   3  -6   -0.08    0.11
   7  -3   6   -0.11    0.08
   7  -3   6   -0.17    0.09
   7   2  -6    3.69    0.38
   7   2  -6    3.07    0.33
  -7  -2   6    3.86    0.39
  -7  -2   6    3.03    0.32
   6   2  -6   -0.08    0.11
  -6  -2   6   -0.08    0.09
  -6  -2   6   -0.09    0.10
  -6  -2   6    0.12    0.09
   5   2  -6    1.97    0.24
  -5  -2   6    2.20    0.26
  -5  -2   6    1.68    0.19
  -5  -2   6    1.67    0.20
   4   2  -6    0.65    0.13
  -4  -2   6    0.22    0.09
  -4  -2   6    0.49    0.10
  -4  -2   6    0.38    0.12
   3   2  -6   28.59    0.87
   3   2  -6   27.22    0.82
  -3  -2   6   29.29    0.88
  -3  -2   6   30.88    0.82
   2   2  -6   22.48    0.66
   2   2  -6   22.16    0.68
  -2  -2   6   22.06    0.68
  -2  -2   6   23.07    0.64
   1   2  -6   67.07    1.63
   1   2  -6   66.54    1.67
   1   2  -6   69.74    1.71
  -1  -2   6   65.49    1.60
  -1  -2   6   67.39    1.68
  -1  -2   6   67.68    1.67
   0   2  -6  272.87    6.42
   0   2  -6  287.85    6.51
   0  -2   6  283.54    6.39
   0  -2   6  292.54    6.51
   0  -2   6  287.79    6.58
  -1   2  -6   23.71    0.67
  -1   2  -6   22.96    0.60
  -1   2  -6   22.31    0.63
   1  -2   6   24.46    0.66
   1  -2   6   23.25    0.63
  -2   2  -6   -0.05    0.04
  -2   2  -6    0.01    0.03
  -2   2  -6    0.01    0.03
   2  -2   6    0.03    0.04
   2  -2   6   -0.05    0.04
   2  -2   6    0.03    0.04
  -3   2  -6    0.96    0.12
  -3   2  -6    1.02    0.16
  -3   2  -6    1.01    0.10
  -3   2  -6    1.04    0.09
   3  -2   6    0.86    0.11
   3  -2   6    1.20    0.16
   3  -2   6    1.08    0.13
  -4   2  -6    6.43    0.30
  -4   2  -6    7.02    0.27
  -4   2  -6    6.98    0.36
  -4   2  -6    6.46    0.30
   4  -2   6    6.45    0.35
   4  -2   6    6.09    0.29
   4  -2   6    6.58    0.31
  -5   2  -6    4.73    0.27
  -5   2  -6    4.33    0.24
  -5   2  -6    4.07    0.30
   5  -2   6    4.23    0.25
   5  -2   6    3.93    0.26
   5  -2   6    3.40    0.28
  -6   2  -6    1.94    0.22
  -6   2  -6    2.27    0.28
  -6   2  -6    2.27    0.18
   6  -2   6    2.10    0.22
   6  -2   6    2.27    0.24
   6  -2   6    2.35    0.29
  -7   2  -6    1.48    0.15
  -7   2  -6    1.25    0.25
   7  -2   6    1.41    0.21
   7  -2   6    1.81    0.29
   7   1  -6    0.36    0.16
  -7  -1   6    0.40    0.16
  -7  -1   6    0.18    0.12
  -7  -1   6    0.14    0.13
   6   1  -6    2.84    0.30
  -6  -1   6    2.37    0.24
  -6  -1   6    1.87    0.23
  -6  -1   6    2.39    0.28
  -6  -1   6    1.99    0.24
   5   1  -6    7.51    0.40
  -5  -1   6    7.67    0.36
  -5  -1   6    7.66    0.38
  -5  -1   6    7.27    0.38
  -5  -1   6    7.59    0.40
   4   1  -6    1.97    0.21
  -4  -1   6    2.35    0.20
  -4  -1   6    2.23    0.17
  -4  -1   6    2.25    0.21
  -4  -1   6    1.91    0.20
   3   1  -6    8.35    0.35
   3   1  -6    7.69    0.23
  -3  -1   6    8.38    0.34
  -3  -1   6    7.94    0.35
  -3  -1   6    8.28    0.34
  -3  -1   6    8.50    0.31
   2   1  -6    3.46    0.19
  -2  -1   6    3.31    0.19
  -2  -1   6    3.30    0.16
  -2  -1   6    3.56    0.19
   1   1  -6    0.02    0.04
   1   1  -6    0.06    0.04
  -1  -1   6    0.06    0.04
  -1  -1   6    0.00    0.02
  -1  -1   6    0.08    0.04
   0   1  -6    3.71    0.15
   0   1  -6    3.33    0.15
   0   1  -6    4.08    0.17
   0  -1   6    4.02    0.16
   0  -1   6    3.70    0.17
   0  -1   6    3.81    0.15
  -1   1  -6    0.13    0.04
  -1   1  -6    0.12    0.04
  -1   1  -6    0.10    0.04
   1  -1   6    0.22    0.05
   1  -1   6    0.18    0.04
   1  -1   6    0.17    0.05
  -2   1  -6   22.79    0.69
  -2   1  -6   23.34    0.61
  -2   1  -6   23.36    0.62
   2  -1   6   22.86    0.69
   2  -1   6   23.22    0.66
   2  -1   6   24.20    0.65
  -3   1  -6   34.38    0.89
  -3   1  -6   33.41    0.82
  -3   1  -6   34.84    0.99
  -3   1  -6   34.59    0.93
  -3   1  -6   33.26    0.89
   3  -1   6   33.41    0.98
   3  -1   6   34.86    0.93
   3  -1   6   33.31    0.94
  -4   1  -6    0.11    0.06
  -4   1  -6    0.15    0.06
  -4   1  -6    0.07    0.07
  -4   1  -6    0.12    0.06
  -4   1  -6    0.05    0.07
   4  -1   6    0.02    0.06
   4  -1   6    0.08    0.06
   4  -1   6    0.12    0.07
  -5   1  -6    2.13    0.22
  -5   1  -6    2.33    0.27
  -5   1  -6    2.18    0.21
   5  -1   6    2.20    0.22
   5  -1   6    2.23    0.22
   5  -1   6    2.82    0.29
  -6   1  -6   -0.06    0.05
  -6   1  -6    0.04    0.11
  -6   1  -6   -0.04    0.08
   6  -1   6    0.11    0.08
   6  -1   6   -0.06    0.07
   6  -1   6   -0.06    0.09
  -7   1  -6    0.05    0.13
  -7   1  -6    0.10    0.07
  -7   1  -6    0.13    0.10
   7  -1   6    0.16    0.11
   7  -1   6    0.21    0.13
   7  -1   6    0.30    0.12
   7   0  -6    0.99    0.20
  -7   0   6    0.68    0.17
  -7   0   6    0.74    0.17
  -7   0   6    0.76    0.19
   6   0  -6    4.90    0.32
   6   0  -6    4.62    0.33
  -6   0   6    4.70    0.33
  -6   0   6    4.52    0.32
  -6   0   6    4.47    0.31
   5   0  -6    1.69    0.21
  -5   0   6    1.78    0.21
  -5   0   6    1.43    0.20
  -5   0   6    1.08    0.18
  -5   0   6    1.39    0.17
   4   0  -6    0.11    0.08
  -4   0   6    0.00    0.08
  -4   0   6    0.02    0.05
  -4   0   6    0.08    0.07
  -4   0   6   -0.01    0.07
  -4   0   6    0.07    0.05
   3   0  -6    0.31    0.08
  -3   0   6    0.34    0.07
  -3   0   6    0.38    0.09
  -3   0   6    0.39    0.06
  -3   0   6    0.42    0.09
  -3   0   6    0.30    0.09
   2   0  -6   81.82    2.05
  -2   0   6   81.24    1.99
  -2   0   6   83.74    1.91
  -2   0   6   83.04    1.95
  -2   0   6   83.50    1.92
  -2   0   6   82.70    2.05
   1   0  -6    3.65    0.17
  -1   0   6    3.55    0.14
  -1   0   6    3.86    0.18
  -1   0   6    3.61    0.16
  -1   0   6    3.71    0.12
   0   0  -6    4.91    0.19
   0   0  -6    5.12    0.19
   0   0   6    5.07    0.18
   0   0   6    5.65    0.20
   0   0   6    4.86    0.18
  -1   0  -6    2.64    0.12
   1   0   6    3.15    0.15
   1   0   6    2.60    0.14
   1   0   6    2.80    0.14
  -2   0  -6    4.38    0.21
  -2   0  -6    4.59    0.17
  -2   0  -6    4.62    0.18
  -2   0  -6    4.27    0.23
   2   0   6    4.19    0.20
   2   0   6    4.33    0.22
   2   0   6    3.90    0.20
  -3   0  -6    8.21    0.32
  -3   0  -6    8.06    0.35
  -3   0  -6    7.55    0.23
  -3   0  -6    8.11    0.27
  -3   0  -6    7.73    0.29
   3   0   6    7.50    0.34
   3   0   6    7.78    0.32
   3   0   6    7.71    0.31
  -4   0  -6    4.70    0.29
  -4   0  -6    4.44    0.26
  -4   0  -6    4.92    0.19
  -4   0  -6    4.85    0.24
  -4   0  -6    4.78    0.22
   4   0   6    4.70    0.29
   4   0   6    5.19    0.27
   4   0   6    4.55    0.26
  -5   0  -6    7.10    0.39
  -5   0  -6    7.34    0.36
  -5   0  -6    7.73    0.34
  -5   0  -6    6.99    0.31
   5   0   6    6.77    0.38
   5   0   6    6.70    0.35
   5   0   6    6.50    0.35
  -6   0  -6    0.29    0.12
  -6   0  -6    0.00    0.08
   6   0   6    0.02    0.08
   6   0   6    0.33    0.14
   6   0   6    0.21    0.11
  -7   0  -6    0.78    0.17
  -7   0  -6    1.04    0.11
  -7   0  -6    1.00    0.21
   7   0   6    1.65    0.26
   7   0   6    1.00    0.18
   7   0   6    0.67    0.16
   7  -1  -6    1.93    0.26
  -7   1   6    1.40    0.23
  -7   1   6    1.45    0.23
  -7   1   6    1.91    0.25
   6  -1  -6    1.83    0.23
  -6   1   6    1.33    0.21
  -6   1   6    1.52    0.21
  -6   1   6    1.18    0.20
   5  -1  -6   23.21    0.78
  -5   1   6   22.82    0.78
  -5   1   6   23.90    0.70
  -5   1   6   23.54    0.79
  -5   1   6   23.28    0.79
   4  -1  -6    1.42    0.17
  -4   1   6    1.27    0.17
  -4   1   6    0.99    0.15
  -4   1   6    1.17    0.16
  -4   1   6    1.11    0.12
  -4   1   6    1.23    0.14
   3  -1  -6   17.77    0.57
  -3   1   6   18.66    0.58
  -3   1   6   17.93    0.50
  -3   1   6   17.17    0.49
  -3   1   6   16.73    0.57
  -3   1   6   18.14    0.58
   2  -1  -6   24.69    0.69
  -2   1   6   24.03    0.62
  -2   1   6   24.01    0.69
  -2   1   6   24.40    0.68
  -2   1   6   23.92    0.61
   1  -1  -6   16.55    0.48
  -1   1   6   16.28    0.43
  -1   1   6   16.35    0.47
  -1   1   6   16.42    0.41
  -1   1   6   15.04    0.47
  -1   1   6   16.95    0.45
   0  -1  -6   90.22    2.17
   0   1   6   90.39    2.07
   0   1   6   91.57    2.03
   0   1   6   90.79    2.14
  -1  -1  -6   17.12    0.44
  -1  -1  -6   17.43    0.49
  -1  -1  -6   16.79    0.48
  -1  -1  -6   17.73    0.41
   1   1   6   17.32    0.50
   1   1   6   17.50    0.48
   1   1   6   17.61    0.50
  -2  -1  -6   71.08    1.72
  -2  -1  -6   72.71    1.64
  -2  -1  -6   69.88    1.75
   2   1   6   70.62    1.77
   2   1   6   72.38    1.72
   2   1   6   71.71    1.77
  -3  -1  -6    1.69    0.07
  -3  -1  -6    1.57    0.10
  -3  -1  -6    1.41    0.15
   3   1   6    1.77    0.14
   3   1   6    1.52    0.16
   3   1   6    1.67    0.17
  -4  -1  -6   -0.02    0.06
  -4  -1  -6    0.02    0.06
  -4  -1  -6    0.04    0.04
  -4  -1  -6    0.00    0.04
   4   1   6   -0.03    0.06
   4   1   6    0.02    0.07
   4   1   6    0.07    0.07
  -5  -1  -6   10.48    0.46
  -5  -1  -6   10.78    0.44
   5   1   6   10.31    0.47
   5   1   6    9.79    0.45
   5   1   6   10.64    0.46
  -6  -1  -6    0.15    0.11
  -6  -1  -6    0.30    0.12
   6   1   6    0.14    0.09
   6   1   6    0.08    0.11
   6   1   6    0.09    0.11
  -7  -1  -6   -0.03    0.09
   7   1   6    0.04    0.11
   7   1   6    0.12    0.11
   7   1   6    0.13    0.12
   7  -2  -6    0.19    0.13
  -7   2   6    0.08    0.12
  -7   2   6    0.03    0.11
  -7   2   6   -0.10    0.08
   6  -2  -6    2.77    0.27
  -6   2   6    1.99    0.24
  -6   2   6    2.07    0.26
  -6   2   6    2.22    0.26
   5  -2  -6    3.17    0.24
  -5   2   6    2.71    0.27
  -5   2   6    2.01    0.23
  -5   2   6    2.92    0.21
  -5   2   6    2.67    0.23
   4  -2  -6    0.04    0.07
  -4   2   6    0.00    0.04
  -4   2   6    0.02    0.06
  -4   2   6   -0.02    0.05
  -4   2   6    0.05    0.08
  -4   2   6   -0.01    0.06
   3  -2  -6    0.14    0.06
  -3   2   6    0.08    0.05
  -3   2   6    0.11    0.06
  -3   2   6    0.12    0.04
  -3   2   6    0.02    0.06
   2  -2  -6  120.01    2.87
  -2   2   6  122.21    2.75
  -2   2   6  117.79    2.68
  -2   2   6  121.69    2.79
  -2   2   6  115.12    2.81
   1  -2  -6   13.02    0.39
  -1   2   6   12.11    0.31
  -1   2   6   12.29    0.39
  -1   2   6   12.35    0.38
  -1   2   6   12.54    0.35
   0  -2  -6  154.06    3.64
   0   2   6  154.98    3.47
   0   2   6  153.98    3.41
   0   2   6  151.21    3.57
   0   2   6  152.62    3.50
   0   2   6  160.04    3.58
  -1  -2  -6   48.73    1.23
  -1  -2  -6   48.32    1.09
  -1  -2  -6   49.82    1.19
   1   2   6   48.71    1.09
   1   2   6   49.38    1.22
   1   2   6   48.81    1.19
   1   2   6   49.21    1.22
  -2  -2  -6   61.29    1.52
  -2  -2  -6   61.95    1.55
   2   2   6   61.52    1.55
   2   2   6   62.16    1.52
   2   2   6   62.60    1.56
  -3  -2  -6   22.69    0.68
  -3  -2  -6   22.16    0.68
   3   2   6   22.16    0.68
   3   2   6   23.62    0.71
   3   2   6   22.69    0.70
  -4  -2  -6   16.90    0.59
  -4  -2  -6   17.38    0.58
   4   2   6   16.48    0.59
   4   2   6   16.86    0.60
   4   2   6   16.55    0.60
  -5  -2  -6    0.35    0.11
  -5  -2  -6    0.17    0.11
   5   2   6    0.04    0.08
   5   2   6    0.09    0.09
   5   2   6    0.21    0.11
  -6  -2  -6   -0.03    0.09
  -6  -2  -6    0.05    0.11
   6   2   6    0.03    0.09
   6   2   6   -0.03    0.10
   6   2   6    0.07    0.09
  -7  -2  -6    0.00    0.08
   7   2   6    0.07    0.11
   7   2   6   -0.10    0.09
   7   2   6    0.00    0.08
  -7   3   6    2.12    0.27
  -7   3   6    2.20    0.29
   6  -3  -6    0.47    0.13
  -6   3   6    0.55    0.14
  -6   3   6    0.27    0.12
   5  -3  -6    0.17    0.09
  -5   3   6    0.16    0.08
  -5   3   6    0.25    0.11
  -5   3   6    0.09    0.09
   4  -3  -6    8.82    0.32
   4  -3  -6    8.27    0.35
  -4   3   6    9.04    0.40
  -4   3   6    8.12    0.39
   3  -3  -6    1.66    0.08
   3  -3  -6    1.62    0.14
  -3   3   6    1.80    0.18
  -3   3   6    1.57    0.08
  -3   3   6    1.35    0.16
   2  -3  -6   62.36    1.52
   2  -3  -6   64.92    1.43
  -2   3   6   61.51    1.53
  -2   3   6   51.23    1.47
  -2   3   6   62.25    1.49
   1  -3  -6   12.90    0.40
   1  -3  -6   13.09    0.34
  -1   3   6   12.23    0.40
  -1   3   6   12.19    0.39
  -1   3   6   12.01    0.33
  -1   3   6   12.34    0.38
   0  -3  -6   54.33    1.28
   0  -3  -6   52.91    1.36
   0   3   6   54.22    1.34
   0   3   6   55.32    1.28
   0   3   6   56.77    1.32
   0   3   6   54.32    1.30
   0   3   6   54.92    1.28
  -1  -3  -6   87.96    2.06
  -1  -3  -6   88.71    2.14
   1   3   6   85.73    2.10
   1   3   6   86.69    2.05
   1   3   6   89.22    1.95
   1   3   6   89.17    2.12
  -2  -3  -6   43.67    1.11
  -2  -3  -6   41.74    1.14
   2   3   6   43.37    1.12
   2   3   6   44.27    1.15
   2   3   6   42.99    1.13
  -3  -3  -6    6.54    0.30
  -3  -3  -6    6.65    0.30
   3   3   6    6.93    0.32
   3   3   6    6.85    0.19
   3   3   6    6.95    0.30
   3   3   6    7.17    0.32
  -4  -3  -6    5.19    0.29
  -4  -3  -6    5.52    0.30
   4   3   6    5.40    0.29
   4   3   6    5.45    0.30
   4   3   6    5.57    0.30
  -5  -3  -6   17.86    0.67
  -5  -3  -6   18.77    0.68
   5   3   6   18.51    0.69
   5   3   6   17.91    0.67
   5   3   6   19.59    0.68
  -6  -3  -6    0.98    0.19
  -6  -3  -6    0.59    0.15
   6   3   6    0.90    0.17
   6   3   6    0.87    0.17
   6   3   6    0.85    0.17
  -7  -3  -6    2.73    0.31
  -7  -3  -6    2.86    0.33
   7   3   6    2.60    0.30
   7   3   6    2.79    0.32
   7   3   6    2.50    0.31
  -7   4   6    2.06    0.27
  -7   4   6    1.41    0.25
   6  -4  -6    1.65    0.21
  -6   4   6    1.39    0.21
  -6   4   6    1.53    0.23
  -6   4   6    1.47    0.23
   5  -4  -6    7.67    0.36
  -5   4   6    8.10    0.39
  -5   4   6    7.77    0.40
  -5   4   6    7.34    0.40
   4  -4  -6    0.70    0.11
  -4   4   6    0.61    0.13
  -4   4   6    0.68    0.14
  -4   4   6    0.65    0.12
   3  -4  -6    3.79    0.20
   3  -4  -6    3.93    0.15
  -3   4   6    3.92    0.24
  -3   4   6    4.03    0.22
  -3   4   6    3.52    0.24
   2  -4  -6   10.98    0.28
   2  -4  -6   11.16    0.37
  -2   4   6   10.36    0.40
  -2   4   6   10.56    0.37
  -2   4   6   10.23    0.39
   1  -4  -6   13.16    0.35
   1  -4  -6   13.67    0.42
  -1   4   6   13.01    0.34
  -1   4   6   13.47    0.42
  -1   4   6   13.56    0.42
  -1   4   6   12.92    0.43
   0  -4  -6  147.78    3.46
   0  -4  -6  143.99    3.28
   0   4   6  143.65    3.24
   0   4   6  144.41    3.37
   0   4   6  143.32    3.40
   0   4   6  147.75    3.32
   0   4   6  145.83    3.28
  -1  -4  -6   42.17    1.05
  -1  -4  -6   40.90    1.10
   1   4   6   42.41    0.98
   1   4   6   41.83    1.08
   1   4   6   42.04    1.05
   1   4   6   41.08    1.08
  -2  -4  -6    6.15    0.28
  -2  -4  -6    6.60    0.28
   2   4   6    6.85    0.29
   2   4   6    6.28    0.28
   2   4   6    6.30    0.27
  -3  -4  -6    0.11    0.07
  -3  -4  -6   -0.05    0.04
   3   4   6    0.03    0.05
   3   4   6    0.00    0.05
   3   4   6    0.13    0.07
  -4  -4  -6    1.26    0.17
  -4  -4  -6    2.19    0.22
   4   4   6    1.68    0.20
   4   4   6    1.66    0.20
   4   4   6    1.56    0.18
  -5  -4  -6    3.17    0.26
  -5  -4  -6    3.38    0.26
   5   4   6    3.28    0.26
   5   4   6    2.97    0.26
   5   4   6    3.00    0.24
  -6  -4  -6   -0.03    0.08
  -6  -4  -6    0.19    0.12
   6   4   6    0.14    0.10
   6   4   6    0.14    0.09
   6   4   6    0.05    0.09
  -7  -4  -6    0.55    0.18
  -7  -4  -6    0.42    0.15
   7   4   6    0.63    0.18
   7   4   6    0.70    0.18
   7   4   6    0.52    0.16
  -7   5   6   -0.16    0.09
  -6   5   6    0.07    0.11
  -6   5   6    0.19    0.12
  -6   5   6    0.20    0.12
   5  -5  -6    0.23    0.10
  -5   5   6    0.13    0.10
  -5   5   6    0.30    0.11
  -5   5   6    0.31    0.12
   4  -5  -6    8.23    0.34
  -4   5   6    7.69    0.38
  -4   5   6    7.94    0.40
  -4   5   6    7.73    0.38
   3  -5  -6    7.64    0.30
  -3   5   6    7.22    0.36
  -3   5   6    7.44    0.35
  -3   5   6    7.76    0.34
   2  -5  -6   12.22    0.41
  -2   5   6   12.71    0.46
  -2   5   6   12.04    0.44
  -2   5   6   12.73    0.44
   1  -5  -6    2.58    0.09
   1  -5  -6    2.52    0.15
   1  -5  -6    2.28    0.10
  -1   5   6    2.19    0.16
  -1   5   6    2.30    0.09
  -1   5   6    2.22    0.09
  -1   5   6    2.22    0.15
  -1   5   6    2.53    0.16
   0  -5  -6   23.37    0.68
   0  -5  -6   23.47    0.62
   0   5   6   23.60    0.68
   0   5   6   24.58    0.63
   0   5   6   23.90    0.64
   0   5   6   24.26    0.65
  -1  -5  -6   12.15    0.42
  -1  -5  -6   12.13    0.40
   1   5   6   12.26    0.35
   1   5   6   12.78    0.41
   1   5   6   11.92    0.41
  -2  -5  -6    4.69    0.24
  -2  -5  -6    4.74    0.25
   2   5   6    5.25    0.25
   2   5   6    4.84    0.24
  -3  -5  -6   11.41    0.45
  -3  -5  -6   11.89    0.46
   3   5   6   11.91    0.46
   3   5   6   11.61    0.47
   3   5   6   11.10    0.43
  -4  -5  -6    0.28    0.09
  -4  -5  -6    0.42    0.12
   4   5   6    0.30    0.10
   4   5   6    0.41    0.11
   4   5   6    0.42    0.11
  -5  -5  -6    8.90    0.45
  -5  -5  -6    9.78    0.48
   5   5   6    9.79    0.47
   5   5   6    9.74    0.43
   5   5   6    8.65    0.46
  -6  -5  -6    1.11    0.20
  -6  -5  -6    1.31    0.23
   6   5   6    1.19    0.19
   6   5   6    1.22    0.20
   6   5   6    1.04    0.20
  -7  -5  -6    0.34    0.14
  -7  -5  -6    0.45    0.17
   7   5   6    0.22    0.13
   7   5   6    0.26    0.13
  -6   6   6    0.71    0.18
  -6   6   6    0.85    0.19
  -6   6   6    0.64    0.17
  -5   6   6    5.37    0.34
  -5   6   6    4.80    0.33
  -5   6   6    5.48    0.36
   4  -6  -6    0.20    0.08
  -4   6   6    0.11    0.09
  -4   6   6    0.16    0.10
  -4   6   6    0.07    0.08
   3  -6  -6    2.36    0.16
  -3   6   6    2.47    0.19
  -3   6   6    2.15    0.22
  -3   6   6    2.35    0.23
   2  -6  -6   47.89    1.23
  -2   6   6   48.48    1.28
  -2   6   6   46.09    1.26
  -2   6   6   44.78    1.23
   1  -6  -6    0.04    0.03
   1  -6  -6   -0.05    0.04
  -1   6   6    0.01    0.05
  -1   6   6    0.06    0.05
  -1   6   6    0.07    0.06
  -1   6   6   -0.01    0.02
   0  -6  -6    6.07    0.27
   0  -6  -6    5.99    0.23
   0   6   6    6.17    0.28
   0   6   6    6.48    0.23
   0   6   6    6.19    0.25
   0   6   6    6.17    0.25
  -1  -6  -6    0.26    0.07
  -1  -6  -6    0.27    0.08
   1   6   6    0.26    0.07
   1   6   6    0.27    0.05
   1   6   6    0.27    0.08
  -2  -6  -6   17.09    0.57
  -2  -6  -6   17.86    0.60
   2   6   6   17.49    0.58
   2   6   6   17.51    0.57
  -3  -6  -6   14.98    0.54
  -3  -6  -6   13.96    0.55
   3   6   6   14.84    0.56
   3   6   6   15.34    0.53
  -4  -6  -6    4.03    0.28
  -4  -6  -6    4.43    0.29
   4   6   6    3.87    0.28
   4   6   6    3.86    0.25
  -5  -6  -6    4.09    0.30
  -5  -6  -6    3.83    0.31
   5   6   6    4.55    0.28
   5   6   6    3.90    0.30
   5   6   6    3.28    0.28
  -6  -6  -6    0.03    0.10
  -6  -6  -6   -0.06    0.06
   6   6   6    0.08    0.10
   6   6   6   -0.06    0.08
   6   6   6    0.02    0.08
  -7  -6  -6    0.50    0.15
  -7  -6  -6    0.60    0.18
   7   6   6    0.52    0.16
   7   6   6    0.57    0.18
  -6   7   6    0.11    0.11
  -6   7   6    0.38    0.15
  -6   7   6    0.00    0.11
  -5   7   6    5.69    0.39
  -5   7   6    6.91    0.40
  -5   7   6    6.12    0.38
  -4   7   6    4.70    0.33
  -4   7   6    4.68    0.32
  -4   7   6    4.86    0.31
   3  -7  -6    1.12    0.14
  -3   7   6    1.07    0.17
  -3   7   6    1.59    0.20
  -3   7   6    1.36    0.18
   2  -7  -6   13.26    0.45
  -2   7   6   13.06    0.50
  -2   7   6   12.64    0.49
  -2   7   6   13.03    0.50
   1  -7  -6    1.28    0.14
  -1   7   6    1.46    0.16
  -1   7   6    1.40    0.08
  -1   7   6    1.74    0.18
  -1   7   6    1.59    0.18
   0  -7  -6    3.09    0.16
   0  -7  -6    3.35    0.20
   0   7   6    3.88    0.20
   0   7   6    3.16    0.16
   0   7   6    2.55    0.17
   0   7   6    2.93    0.21
  -1  -7  -6    0.24    0.07
  -1  -7  -6    0.43    0.10
   1   7   6    0.43    0.09
   1   7   6    0.44    0.10
   1   7   6    0.30    0.07
  -2  -7  -6    7.92    0.35
  -2  -7  -6    8.20    0.38
   2   7   6    8.13    0.35
   2   7   6    7.82    0.35
  -3  -7  -6    0.01    0.07
  -3  -7  -6   -0.02    0.06
   3   7   6   -0.04    0.06
   3   7   6    0.03    0.06
  -4  -7  -6    0.26    0.11
  -4  -7  -6    0.03    0.07
   4   7   6    0.18    0.09
   4   7   6    0.20    0.10
  -5  -7  -6    0.78    0.17
  -5  -7  -6    0.59    0.16
   5   7   6    0.66    0.16
   5   7   6    0.94    0.17
   5   7   6    0.84    0.19
  -6  -7  -6    0.41    0.17
  -6  -7  -6    0.48    0.15
   6   7   6    0.16    0.11
   6   7   6    0.31    0.15
   6   7   6    0.12    0.11
  -6   8   6    0.00    0.11
  -6   8   6    0.18    0.14
  -5   8   6    2.32    0.30
  -5   8   6    1.94    0.26
  -5   8   6    2.63    0.31
  -4   8   6    9.88    0.50
  -4   8   6    9.18    0.47
  -4   8   6    9.56    0.47
   3  -8  -6    0.07    0.07
  -3   8   6    0.05    0.07
  -3   8   6    0.05    0.08
  -3   8   6    0.04    0.07
   2  -8  -6    7.15    0.31
  -2   8   6    5.97    0.32
  -2   8   6    5.42    0.32
  -2   8   6    6.90    0.35
   1  -8  -6    0.41    0.10
  -1   8   6    0.39    0.10
  -1   8   6    0.38    0.10
  -1   8   6    0.29    0.10
   0  -8  -6    4.77    0.22
   0  -8  -6    4.17    0.24
   0   8   6    4.31    0.20
   0   8   6    4.65    0.26
   0   8   6    4.32    0.23
  -1  -8  -6    6.35    0.29
  -1  -8  -6    6.76    0.33
   1   8   6    6.47    0.32
   1   8   6    6.87    0.30
   1   8   6    6.69    0.27
  -2  -8  -6    2.71    0.21
  -2  -8  -6    2.86    0.23
   2   8   6    2.20    0.19
   2   8   6    2.34    0.20
  -3  -8  -6   27.13    0.86
  -3  -8  -6   25.91    0.89
   3   8   6   26.77    0.83
   3   8   6   26.45    0.88
  -4  -8  -6    0.45    0.15
  -4  -8  -6    0.70    0.16
   4   8   6    0.93    0.18
   4   8   6    0.75    0.15
  -5  -8  -6    0.56    0.15
  -5  -8  -6    1.25    0.23
   5   8   6    1.48    0.23
   5   8   6    1.53    0.21
  -6  -8  -6    4.16    0.35
  -6  -8  -6    4.36    0.43
   6   8   6    4.63    0.38
   6   8   6    4.37    0.32
  -5   9   6    0.02    0.10
  -5   9   6    0.04    0.10
  -5   9   6    0.12    0.11
  -4   9   6    1.52    0.23
  -4   9   6    1.68    0.24
  -3   9   6    0.18    0.10
  -3   9   6    0.18    0.11
  -3   9   6    0.37    0.13
   2  -9  -6    2.50    0.19
  -2   9   6    1.77    0.22
  -2   9   6    2.08    0.22
  -2   9   6    2.20    0.25
   1  -9  -6    1.12    0.15
  -1   9   6    0.89    0.15
  -1   9   6    1.24    0.17
  -1   9   6    0.85    0.15
   0  -9  -6    7.34    0.31
   0  -9  -6    8.62    0.38
   0   9   6    7.92    0.35
   0   9   6    8.01    0.38
  -1  -9  -6    0.43    0.10
  -1  -9  -6    0.33    0.10
   1   9   6    0.43    0.09
   1   9   6    0.38    0.11
   1   9   6    0.34    0.09
  -2  -9  -6    1.81    0.21
  -2  -9  -6    2.27    0.24
   2   9   6    1.49    0.19
   2   9   6    1.72    0.19
  -3  -9  -6    0.66    0.16
  -3  -9  -6    0.42    0.12
   3   9   6    0.72    0.15
   3   9   6    0.70    0.14
  -4  -9  -6    0.02    0.10
  -4  -9  -6    0.24    0.14
   4   9   6    0.09    0.10
   4   9   6    0.12    0.10
  -5  -9  -6    1.12    0.23
  -5  -9  -6    1.78    0.25
   5   9   6    1.70    0.22
   5   9   6    1.38    0.23
  -6  -9  -6    3.11    0.38
  -6  -9  -6    2.05    0.29
   6   9   6    2.60    0.28
  -5  10   6    0.92    0.21
  -5  10   6    1.30    0.24
  -4  10   6    1.57    0.25
  -4  10   6    1.39    0.25
  -4  10   6    1.10    0.20
  -3  10   6    1.13    0.21
  -3  10   6    0.99    0.20
  -3  10   6    1.00    0.18
  -2  10   6    1.35    0.19
  -2  10   6    1.23    0.20
  -2  10   6    1.85    0.24
   1 -10  -6    0.15    0.09
  -1  10   6    0.16    0.09
  -1  10   6    0.11    0.09
  -1  10   6    0.02    0.08
   0 -10  -6    0.29    0.10
   0  10   6    0.19    0.09
   0  10   6    0.18    0.10
  -1 -10  -6    0.40    0.12
  -1 -10  -6    0.47    0.11
   1  10   6    0.47    0.12
  -2 -10  -6    0.16    0.09
  -2 -10  -6    0.26    0.11
   2  10   6    0.22    0.10
   2  10   6    0.21    0.10
  -3 -10  -6    0.70    0.16
  -3 -10  -6    0.69    0.18
   3  10   6    0.73    0.15
   3  10   6    0.57    0.14
  -4 -10  -6    0.12    0.10
  -4 -10  -6    0.04    0.11
   4  10   6    0.15    0.09
   4  10   6    0.02    0.09
  -5 -10  -6    0.15    0.11
  -5 -10  -6    0.21    0.16
   5  10   6    0.00    0.09
   5  10   6    0.19    0.12
  -4  11   6    0.81    0.20
  -4  11   6    1.13    0.23
  -3  11   6    1.53    0.25
  -3  11   6    1.61    0.24
  -3  11   6    1.37    0.23
  -2  11   6    0.39    0.14
  -2  11   6    0.13    0.11
  -2  11   6    0.14    0.11
  -1  11   6    0.09    0.09
  -1  11   6    0.15    0.10
  -1  11   6    0.13    0.10
   0 -11  -6    5.28    0.33
   0  11   6    5.17    0.31
   0  11   6    5.21    0.33
  -1 -11  -6    0.45    0.12
  -1 -11  -6    0.79    0.17
   1  11   6    0.49    0.14
  -2 -11  -6    0.02    0.08
  -2 -11  -6   -0.04    0.10
   2  11   6    0.00    0.08
  -3 -11  -6    2.92    0.30
  -3 -11  -6    2.93    0.32
   3  11   6    2.70    0.28
   3  11   6    3.45    0.27
  -4 -11  -6    0.02    0.11
  -4 -11  -6    0.14    0.14
   4  11   6    0.13    0.11
   4  11   6    0.13    0.11
  -5 -11  -6    0.11    0.13
  -5 -11  -6    0.31    0.15
   5  11   6    0.43    0.15
  -3  12   6    0.31    0.14
  -3  12   6    0.19    0.14
  -2  12   6    0.34    0.15
  -2  12   6    0.44    0.15
  -2  12   6    0.18    0.12
  -1  12   6    0.57    0.16
  -1  12   6    0.43    0.14
  -1  12   6    0.62    0.16
   0 -12  -6    0.19    0.12
   0  12   6    0.21    0.11
   0  12   6    0.13    0.11
  -1 -12  -6    0.15    0.12
   1  12   6   -0.08    0.09
  -2 -12  -6    1.88    0.23
  -2 -12  -6    1.71    0.26
   2  12   6    1.55    0.23
  -3 -12  -6    0.06    0.11
  -3 -12  -6    0.04    0.12
   3  12   6   -0.01    0.10
  -4 -12  -6    0.22    0.15
  -4 -12  -6    0.35    0.14
   4  12   6    0.27    0.13
   4  12   6    0.18    0.13
  -2  13   6    0.24    0.13
  -2  13   6   -0.02    0.11
  -1  13   6   -0.04    0.10
  -1  13   6    0.00    0.09
  -1  13   6   -0.10    0.09
   0  13   6    0.56    0.17
  -1 -13  -6    0.12    0.13
   1  13   6    0.03    0.11
  -2 -13  -6    0.12    0.13
   2  13   6    0.20    0.13
   2  11  -7    0.71    0.17
  -2 -11   7    0.32    0.14
   1  11  -7    0.62    0.16
  -1 -11   7    0.42    0.14
   0  11  -7   -0.02    0.10
   0 -11   7    0.04    0.10
  -1  11  -7    0.67    0.18
   1 -11   7    1.19    0.20
   3  10  -7    0.73    0.17
   3  10  -7    0.39    0.17
  -3 -10   7    0.61    0.16
   2  10  -7    0.13    0.11
  -2 -10   7    0.09    0.10
   1  10  -7    0.60    0.15
  -1 -10   7    0.51    0.15
   0  10  -7    2.45    0.28
   0 -10   7    2.22    0.26
  -1  10  -7    5.72    0.38
   1 -10   7    5.94    0.36
  -2  10  -7    0.85    0.20
  -2  10  -7    1.07    0.21
   2 -10   7    0.79    0.16
  -3  10  -7    0.99    0.20
  -3  10  -7    0.79    0.20
   3 -10   7    1.07    0.18
   4   9  -7    0.83    0.17
   4   9  -7    0.55    0.19
  -4  -9   7    0.92    0.22
  -4  -9   7    0.47    0.16
   3   9  -7    0.82    0.17
   3   9  -7    0.90    0.20
  -3  -9   7    0.77    0.19
  -3  -9   7    0.86    0.18
   2   9  -7   13.92    0.57
  -2  -9   7   13.52    0.58
   1   9  -7    0.13    0.10
  -1  -9   7   -0.02    0.07
   0   9  -7    3.32    0.27
   0  -9   7    3.28    0.26
  -1   9  -7    0.19    0.11
  -1   9  -7    0.17    0.12
   1  -9   7    0.14    0.10
  -2   9  -7    0.09    0.10
  -2   9  -7    0.01    0.09
   2  -9   7    0.01    0.08
  -3   9  -7    1.38    0.24
  -3   9  -7    1.09    0.21
   3  -9   7    1.47    0.19
  -4   9  -7    2.07    0.25
  -4   9  -7    2.31    0.31
  -4   9  -7    2.51    0.31
   4  -9   7    1.70    0.21
   5   8  -7    0.31    0.17
   5   8  -7    0.37    0.13
  -5  -8   7    0.22    0.12
  -5  -8   7    0.38    0.17
   4   8  -7    5.05    0.37
   4   8  -7    4.91    0.32
  -4  -8   7    5.56    0.38
  -4  -8   7    4.32    0.33
   3   8  -7    4.34    0.30
   3   8  -7    4.68    0.33
  -3  -8   7    5.28    0.35
  -3  -8   7    4.31    0.31
   2   8  -7    2.26    0.24
   2   8  -7    2.42    0.25
  -2  -8   7    2.36    0.25
  -2  -8   7    2.50    0.26
   1   8  -7    1.72    0.21
  -1  -8   7    1.99    0.22
   0   8  -7   10.22    0.47
   0  -8   7   10.73    0.46
  -1   8  -7    6.03    0.35
  -1   8  -7    6.19    0.35
   1  -8   7    5.43    0.31
   1  -8   7    6.25    0.33
  -2   8  -7    5.05    0.34
  -2   8  -7    5.64    0.35
   2  -8   7    5.30    0.30
   2  -8   7    5.44    0.30
  -3   8  -7    0.11    0.09
  -3   8  -7    0.23    0.14
   3  -8   7    0.20    0.09
  -4   8  -7    5.26    0.39
  -4   8  -7    5.04    0.37
  -4   8  -7    6.18    0.35
   4  -8   7    5.44    0.31
   5   7  -7    0.00    0.12
   5   7  -7    0.12    0.10
  -5  -7   7    0.09    0.11
  -5  -7   7    0.17    0.13
   4   7  -7    2.92    0.31
   4   7  -7    2.72    0.26
  -4  -7   7    2.11    0.26
  -4  -7   7    2.13    0.28
   3   7  -7    4.08    0.30
   3   7  -7    3.55    0.25
  -3  -7   7    3.86    0.30
  -3  -7   7    3.75    0.28
   2   7  -7    8.35    0.39
   2   7  -7    7.75    0.38
  -2  -7   7    7.18    0.38
  -2  -7   7    7.76    0.38
   1   7  -7    3.20    0.22
   1   7  -7    3.06    0.23
  -1  -7   7    2.77    0.21
  -1  -7   7    2.75    0.21
   0   7  -7    0.07    0.08
   0   7  -7   -0.03    0.06
   0  -7   7    0.15    0.08
   0  -7   7    0.14    0.07
  -1   7  -7    8.97    0.40
  -1   7  -7    8.59    0.44
  -1   7  -7    8.54    0.40
   1  -7   7    7.68    0.36
   1  -7   7    8.24    0.37
  -2   7  -7    0.13    0.10
  -2   7  -7    0.02    0.07
  -2   7  -7    0.03    0.08
   2  -7   7    0.02    0.06
   2  -7   7    0.04    0.06
  -3   7  -7    2.43    0.26
  -3   7  -7    2.10    0.26
  -3   7  -7    1.91    0.24
   3  -7   7    2.40    0.19
   3  -7   7    2.18    0.21
  -4   7  -7    3.51    0.29
  -4   7  -7    3.43    0.25
  -4   7  -7    2.68    0.32
   4  -7   7    2.39    0.23
  -5   7  -7    0.61    0.19
  -5   7  -7    0.31    0.14
   5  -7   7    0.28    0.11
   6   6  -7   -0.04    0.13
   6   6  -7    0.20    0.11
  -6  -6   7    0.19    0.12
  -6  -6   7   -0.02    0.13
   5   6  -7    0.56    0.17
   5   6  -7    0.42    0.13
  -5  -6   7    0.27    0.14
  -5  -6   7    0.31    0.12
   4   6  -7    2.22    0.24
   4   6  -7    2.48    0.28
  -4  -6   7    2.28    0.28
  -4  -6   7    2.39    0.26
   3   6  -7    0.07    0.07
   3   6  -7    0.08    0.09
  -3  -6   7    0.13    0.10
  -3  -6   7    0.34    0.11
   2   6  -7    1.24    0.17
   2   6  -7    1.01    0.16
  -2  -6   7    1.29    0.18
  -2  -6   7    1.06    0.16
   1   6  -7    4.78    0.26
   1   6  -7    4.49    0.27
  -1  -6   7    4.87    0.27
  -1  -6   7    5.15    0.27
   0   6  -7    0.02    0.06
   0   6  -7    0.00    0.05
   0   6  -7    0.07    0.07
   0   6  -7   -0.01    0.05
   0  -6   7    0.02    0.05
   0  -6   7   -0.02    0.04
   0  -6   7   -0.01    0.05
  -1   6  -7    0.53    0.14
  -1   6  -7    0.83    0.14
  -1   6  -7    0.69    0.13
   1  -6   7    0.65    0.11
   1  -6   7    0.93    0.13
  -2   6  -7    4.03    0.28
  -2   6  -7    3.95    0.27
  -2   6  -7    4.29    0.26
   2  -6   7    4.29    0.24
   2  -6   7    3.68    0.22
  -3   6  -7    0.46    0.14
  -3   6  -7    0.46    0.13
  -3   6  -7    0.60    0.13
   3  -6   7    0.31    0.09
   3  -6   7    0.62    0.11
  -4   6  -7    1.00    0.18
  -4   6  -7    1.16    0.16
  -4   6  -7    1.19    0.19
  -4   6  -7    1.36    0.22
   4  -6   7    0.99    0.14
   4  -6   7    1.09    0.15
  -5   6  -7    0.85    0.16
  -5   6  -7    0.50    0.14
  -5   6  -7    0.34    0.15
   5  -6   7    0.47    0.12
   6   5  -7    1.93    0.25
   6   5  -7    1.84    0.28
  -6  -5   7    1.87    0.25
  -6  -5   7    2.26    0.31
   5   5  -7   -0.02    0.07
   5   5  -7    0.06    0.10
  -5  -5   7    0.10    0.11
  -5  -5   7    0.19    0.09
   4   5  -7    2.38    0.24
   4   5  -7    3.04    0.31
  -4  -5   7    2.44    0.26
  -4  -5   7    3.20    0.31
   3   5  -7    7.66    0.39
   3   5  -7    8.50    0.38
  -3  -5   7    8.71    0.42
  -3  -5   7    8.07    0.38
   2   5  -7    8.44    0.36
   2   5  -7    7.74    0.36
  -2  -5   7    7.95    0.35
  -2  -5   7    7.85    0.37
   1   5  -7   32.24    0.86
   1   5  -7   32.44    0.93
  -1  -5   7   34.07    0.95
  -1  -5   7   33.71    0.93
   0   5  -7    2.28    0.23
   0   5  -7    2.59    0.17
   0   5  -7    2.54    0.15
   0   5  -7    2.33    0.18
   0  -5   7    2.27    0.17
   0  -5   7    2.66    0.16
   0  -5   7    2.76    0.18
  -1   5  -7   20.64    0.66
  -1   5  -7   20.60    0.66
  -1   5  -7   20.76    0.72
   1  -5   7   20.82    0.65
   1  -5   7   20.59    0.63
  -2   5  -7    2.05    0.22
  -2   5  -7    2.04    0.22
  -2   5  -7    2.05    0.20
   2  -5   7    1.97    0.15
   2  -5   7    2.01    0.16
  -3   5  -7    4.37    0.30
  -3   5  -7    4.09    0.27
  -3   5  -7    3.76    0.25
   3  -5   7    3.80    0.23
   3  -5   7    3.77    0.22
  -4   5  -7    4.44    0.28
  -4   5  -7    4.00    0.31
  -4   5  -7    3.82    0.27
  -4   5  -7    4.34    0.25
   4  -5   7    3.67    0.23
   4  -5   7    3.45    0.23
  -5   5  -7    1.12    0.17
  -5   5  -7    1.27    0.22
  -5   5  -7    1.53    0.21
   5  -5   7    1.04    0.15
   5  -5   7    1.40    0.18
  -6   5  -7    0.35    0.14
  -6   5  -7    0.44    0.18
   6  -5   7    0.35    0.16
   6  -5   7    0.43    0.13
   6   4  -7    2.28    0.26
   6   4  -7    1.99    0.28
  -6  -4   7    1.98    0.29
  -6  -4   7    1.71    0.24
   5   4  -7   -0.06    0.09
   5   4  -7   -0.06    0.07
  -5  -4   7   -0.07    0.06
  -5  -4   7    0.03    0.10
   4   4  -7    4.98    0.29
   4   4  -7    5.08    0.33
  -4  -4   7    4.78    0.32
  -4  -4   7    5.15    0.30
   3   4  -7    0.80    0.13
   3   4  -7    0.84    0.15
  -3  -4   7    0.75    0.12
  -3  -4   7    0.99    0.16
   2   4  -7    3.40    0.22
   2   4  -7    2.97    0.20
  -2  -4   7    2.88    0.21
  -2  -4   7    2.93    0.19
   1   4  -7    9.96    0.42
   1   4  -7    9.74    0.31
   1   4  -7   10.62    0.39
   1   4  -7    9.33    0.37
  -1  -4   7   10.01    0.38
  -1  -4   7   10.24    0.37
  -1  -4   7   10.03    0.39
   0   4  -7    0.28    0.08
   0   4  -7    0.20    0.06
   0   4  -7    0.11    0.05
   0   4  -7    0.20    0.06
   0  -4   7    0.22    0.06
   0  -4   7    0.10    0.05
   0  -4   7    0.15    0.05
  -1   4  -7    1.05    0.08
  -1   4  -7    0.68    0.13
  -1   4  -7    0.78    0.12
  -1   4  -7    0.96    0.12
   1  -4   7    0.84    0.11
   1  -4   7    0.74    0.11
  -2   4  -7    2.61    0.20
  -2   4  -7    2.72    0.19
  -2   4  -7    2.90    0.21
   2  -4   7    2.80    0.18
   2  -4   7    2.85    0.18
  -3   4  -7    4.83    0.27
  -3   4  -7    4.63    0.28
  -3   4  -7    5.25    0.32
   3  -4   7    4.61    0.25
   3  -4   7    5.13    0.25
  -4   4  -7    0.11    0.09
  -4   4  -7    0.09    0.07
  -4   4  -7   -0.01    0.07
  -4   4  -7    0.07    0.07
   4  -4   7   -0.04    0.05
   4  -4   7    0.05    0.06
  -5   4  -7    0.12    0.09
  -5   4  -7    0.11    0.11
  -5   4  -7    0.17    0.09
   5  -4   7    0.09    0.10
   5  -4   7    0.16    0.08
   5  -4   7    0.21    0.09
  -6   4  -7    0.05    0.09
  -6   4  -7   -0.09    0.10
  -6   4  -7    0.02    0.08
   6  -4   7    0.14    0.12
   6  -4   7    0.07    0.08
   7   3  -7    0.24    0.16
   7   3  -7    0.25    0.13
  -7  -3   7    0.02    0.11
  -7  -3   7    0.01    0.13
   6   3  -7    0.16    0.14
   6   3  -7    0.36    0.13
  -6  -3   7    0.35    0.15
  -6  -3   7    0.31    0.12
   5   3  -7    1.70    0.23
   5   3  -7    1.42    0.19
  -5  -3   7    1.87    0.25
  -5  -3   7    1.56    0.20
   4   3  -7    2.34    0.23
   4   3  -7    2.30    0.25
  -4  -3   7    2.61    0.21
  -4  -3   7    2.76    0.28
   3   3  -7    0.68    0.14
   3   3  -7    0.55    0.11
  -3  -3   7    0.76    0.12
  -3  -3   7    0.62    0.12
   2   3  -7   45.22    1.20
   2   3  -7   44.77    1.24
  -2  -3   7   46.89    1.19
  -2  -3   7   45.56    1.25
   1   3  -7    7.10    0.32
   1   3  -7    7.18    0.29
   1   3  -7    7.03    0.22
   1   3  -7    7.14    0.29
  -1  -3   7    6.98    0.29
  -1  -3   7    7.22    0.22
  -1  -3   7    7.42    0.31
  -1  -3   7    7.14    0.28
   0   3  -7   38.01    0.99
   0   3  -7   37.64    0.97
   0   3  -7   38.22    0.97
   0   3  -7   36.21    1.06
   0  -3   7   36.93    0.97
   0  -3   7   38.75    1.02
  -1   3  -7    0.83    0.13
  -1   3  -7    0.52    0.10
  -1   3  -7    0.71    0.10
   1  -3   7    0.87    0.10
   1  -3   7    0.93    0.11
  -2   3  -7    1.93    0.10
  -2   3  -7    1.88    0.15
  -2   3  -7    1.86    0.20
  -2   3  -7    1.59    0.17
   2  -3   7    1.89    0.15
   2  -3   7    1.83    0.14
  -3   3  -7    8.79    0.35
  -3   3  -7    8.61    0.38
  -3   3  -7    8.70    0.40
   3  -3   7    8.71    0.35
   3  -3   7    8.28    0.34
   3  -3   7    8.65    0.40
  -4   3  -7    7.03    0.34
  -4   3  -7    6.91    0.39
  -4   3  -7    7.03    0.29
  -4   3  -7    7.03    0.34
   4  -3   7    6.91    0.32
   4  -3   7    7.55    0.40
   4  -3   7    7.40    0.34
  -5   3  -7    0.11    0.07
  -5   3  -7   -0.04    0.08
  -5   3  -7    0.04    0.07
   5  -3   7    0.05    0.07
   5  -3   7    0.07    0.10
   5  -3   7    0.04    0.06
  -6   3  -7    0.41    0.11
  -6   3  -7    0.51    0.16
  -6   3  -7    0.22    0.11
   6  -3   7    0.41    0.12
   6  -3   7    0.30    0.10
   6  -3   7    0.51    0.18
   7   2  -7   -0.01    0.12
   7   2  -7    0.07    0.11
  -7  -2   7    0.06    0.13
   6   2  -7    5.38    0.37
  -6  -2   7    4.75    0.36
  -6  -2   7    5.03    0.32
  -6  -2   7    5.36    0.35
   5   2  -7    3.04    0.26
  -5  -2   7    2.84    0.30
  -5  -2   7    3.21    0.24
  -5  -2   7    2.60    0.26
   4   2  -7    2.10    0.23
  -4  -2   7    2.17    0.20
  -4  -2   7    2.32    0.24
   3   2  -7    0.17    0.08
   3   2  -7    0.03    0.05
  -3  -2   7    0.18    0.08
  -3  -2   7    0.00    0.04
   2   2  -7    6.92    0.30
   2   2  -7    7.14    0.31
  -2  -2   7    7.23    0.29
  -2  -2   7    7.14    0.32
   1   2  -7   77.27    1.84
   1   2  -7   73.05    1.91
   1   2  -7   76.84    1.88
  -1  -2   7   76.69    1.75
  -1  -2   7   76.71    1.89
  -1  -2   7   75.40    1.88
  -1  -2   7   74.86    1.80
   0   2  -7   23.99    0.67
   0   2  -7   24.18    0.65
   0  -2   7   24.28    0.66
   0  -2   7   24.99    0.69
   0  -2   7   24.18    0.65
  -1   2  -7    3.37    0.20
  -1   2  -7    3.75    0.19
   1  -2   7    3.44    0.19
   1  -2   7    4.39    0.19
   1  -2   7    4.17    0.20
  -2   2  -7   15.03    0.42
  -2   2  -7   16.51    0.54
  -2   2  -7   15.06    0.47
   2  -2   7   14.85    0.49
   2  -2   7   15.48    0.48
   2  -2   7   15.51    0.53
  -3   2  -7   28.04    0.86
  -3   2  -7   27.70    0.71
  -3   2  -7   27.11    0.76
   3  -2   7   26.62    0.84
   3  -2   7   26.36    0.79
   3  -2   7   26.60    0.77
  -4   2  -7    3.21    0.18
  -4   2  -7    3.10    0.21
  -4   2  -7    3.31    0.25
  -4   2  -7    3.21    0.21
   4  -2   7    3.20    0.24
   4  -2   7    3.10    0.21
   4  -2   7    3.53    0.22
  -5   2  -7    0.32    0.10
  -5   2  -7    0.30    0.09
  -5   2  -7    0.28    0.12
   5  -2   7    0.20    0.09
   5  -2   7    0.41    0.13
   5  -2   7    0.30    0.09
  -6   2  -7    1.82    0.26
  -6   2  -7    1.70    0.18
   6  -2   7    1.57    0.20
   6  -2   7    1.69    0.26
   6  -2   7    1.67    0.20
  -7   2  -7    1.50    0.17
  -7   2  -7    1.51    0.27
   7  -2   7    1.72    0.22
   7  -2   7    1.81    0.23
   7  -2   7    1.34    0.25
   7   1  -7    0.02    0.13
  -7  -1   7   -0.06    0.10
  -7  -1   7    0.10    0.13
  -7  -1   7   -0.10    0.10
   6   1  -7    0.18    0.13
  -6  -1   7    0.13    0.12
  -6  -1   7    0.17    0.10
  -6  -1   7    0.11    0.11
   5   1  -7    1.04    0.18
  -5  -1   7    0.85    0.15
  -5  -1   7    1.09    0.17
  -5  -1   7    0.87    0.14
  -5  -1   7    0.76    0.16
   4   1  -7    0.18    0.09
  -4  -1   7    0.02    0.08
  -4  -1   7    0.19    0.07
  -4  -1   7    0.13    0.08
  -4  -1   7    0.07    0.07
   3   1  -7    1.18    0.15
  -3  -1   7    1.03    0.14
  -3  -1   7    1.20    0.15
  -3  -1   7    1.12    0.12
   2   1  -7    2.59    0.17
   2   1  -7    2.82    0.18
  -2  -1   7    2.61    0.15
  -2  -1   7    2.61    0.17
  -2  -1   7    2.92    0.19
   1   1  -7    5.41    0.24
   1   1  -7    5.51    0.23
  -1  -1   7    5.18    0.22
  -1  -1   7    5.25    0.21
  -1  -1   7    5.22    0.16
   0   1  -7    0.94    0.09
   0   1  -7    1.04    0.10
   0  -1   7    0.93    0.08
   0  -1   7    0.95    0.09
   0  -1   7    1.08    0.11
  -1   1  -7    0.03    0.05
  -1   1  -7    0.06    0.04
   1  -1   7    0.08    0.05
   1  -1   7    0.10    0.04
   1  -1   7    0.06    0.04
  -2   1  -7    0.09    0.04
  -2   1  -7    0.08    0.04
  -2   1  -7    0.00    0.05
   2  -1   7    0.04    0.05
   2  -1   7    0.12    0.05
   2  -1   7    0.10    0.05
  -3   1  -7    3.31    0.18
  -3   1  -7    3.58    0.23
  -3   1  -7    3.57    0.17
  -3   1  -7    3.21    0.14
   3  -1   7    2.99    0.21
   3  -1   7    3.16    0.20
   3  -1   7    3.20    0.19
  -4   1  -7    0.05    0.07
  -4   1  -7    0.00    0.06
  -4   1  -7    0.14    0.06
  -4   1  -7    0.04    0.04
   4  -1   7   -0.01    0.05
   4  -1   7    0.00    0.07
   4  -1   7    0.07    0.07
  -5   1  -7    0.84    0.13
  -5   1  -7    1.26    0.20
  -5   1  -7    0.91    0.16
   5  -1   7    0.99    0.18
   5  -1   7    1.08    0.16
   5  -1   7    0.73    0.13
  -6   1  -7    2.60    0.31
  -6   1  -7    2.59    0.19
  -6   1  -7    2.52    0.26
   6  -1   7    3.12    0.34
   6  -1   7    2.31    0.24
   6  -1   7    2.27    0.24
  -7   1  -7    0.29    0.15
  -7   1  -7    0.48    0.15
  -7   1  -7    0.38    0.10
   7  -1   7    0.22    0.10
   7  -1   7    0.14    0.11
   7  -1   7    0.25    0.16
   7   0  -7    0.32    0.16
  -7   0   7    0.90    0.20
  -7   0   7    0.57    0.16
  -7   0   7    0.62    0.18
   6   0  -7    2.46    0.28
  -6   0   7    2.60    0.29
  -6   0   7    2.83    0.29
  -6   0   7    2.32    0.26
   5   0  -7   -0.09    0.08
  -5   0   7   -0.01    0.07
  -5   0   7    0.08    0.09
  -5   0   7    0.06    0.07
  -5   0   7    0.03    0.08
   4   0  -7    6.01    0.31
  -4   0   7    5.36    0.30
  -4   0   7    5.83    0.27
  -4   0   7    5.76    0.31
  -4   0   7    5.66    0.31
   3   0  -7   23.94    0.73
  -3   0   7   23.36    0.72
  -3   0   7   23.94    0.61
  -3   0   7   24.80    0.66
  -3   0   7   23.58    0.74
  -3   0   7   23.21    0.72
   2   0  -7    7.86    0.31
  -2   0   7    7.50    0.32
  -2   0   7    7.21    0.30
  -2   0   7    8.00    0.27
  -2   0   7    7.81    0.22
  -2   0   7    8.08    0.31
   1   0  -7   10.23    0.35
   1   0  -7   10.70    0.35
  -1   0   7   10.02    0.31
  -1   0   7   10.54    0.34
  -1   0   7   10.06    0.34
  -1   0   7   10.35    0.28
   0   0  -7    0.44    0.06
   0   0  -7    0.61    0.08
   0   0   7    0.63    0.07
   0   0   7    0.47    0.06
   0   0   7    0.52    0.07
  -1   0  -7    8.39    0.27
   1   0   7    8.40    0.29
   1   0   7    8.32    0.30
   1   0   7    8.44    0.30
  -2   0  -7   14.87    0.44
  -2   0  -7   14.98    0.42
  -2   0  -7   14.73    0.50
   2   0   7   14.82    0.47
   2   0   7   15.39    0.48
   2   0   7   14.94    0.50
  -3   0  -7    3.42    0.13
  -3   0  -7    3.47    0.23
  -3   0  -7    3.47    0.21
  -3   0  -7    3.33    0.18
  -3   0  -7    3.42    0.17
   3   0   7    3.69    0.21
   3   0   7    3.04    0.21
   3   0   7    3.43    0.20
  -4   0  -7    0.67    0.12
  -4   0  -7    0.52    0.08
  -4   0  -7    0.59    0.13
  -4   0  -7    0.70    0.11
   4   0   7    0.63    0.12
   4   0   7    0.67    0.12
   4   0   7    0.53    0.12
  -5   0  -7    7.61    0.37
  -5   0  -7    7.48    0.40
   5   0   7    7.88    0.38
   5   0   7    7.04    0.36
   5   0   7    7.10    0.39
  -6   0  -7    4.22    0.29
  -6   0  -7    4.56    0.34
   6   0   7    4.87    0.32
   6   0   7    4.42    0.33
   6   0   7    4.35    0.30
  -7   0  -7    1.43    0.15
  -7   0  -7    1.25    0.21
   7   0   7    1.19    0.24
   7   0   7    1.50    0.21
   7   0   7    0.82    0.18
   7  -1  -7    0.70    0.19
  -7   1   7    0.76    0.19
  -7   1   7    0.65    0.17
  -7   1   7    0.99    0.20
   6  -1  -7    2.68    0.28
  -6   1   7    2.25    0.27
  -6   1   7    2.54    0.27
  -6   1   7    2.04    0.25
   5  -1  -7    0.53    0.14
  -5   1   7    0.61    0.14
  -5   1   7    0.37    0.12
  -5   1   7    0.49    0.13
   4  -1  -7    1.56    0.18
  -4   1   7    1.36    0.14
  -4   1   7    1.16    0.16
  -4   1   7    1.33    0.17
  -4   1   7    1.31    0.18
  -4   1   7    1.86    0.13
   3  -1  -7    0.69    0.12
  -3   1   7    0.53    0.08
  -3   1   7    0.39    0.09
  -3   1   7    0.54    0.10
  -3   1   7    0.67    0.08
  -3   1   7    0.48    0.10
   2  -1  -7    0.14    0.06
  -2   1   7    0.16    0.04
  -2   1   7    0.16    0.06
  -2   1   7   -0.01    0.05
  -2   1   7    0.12    0.04
   1  -1  -7    1.04    0.11
  -1   1   7    1.24    0.08
  -1   1   7    1.15    0.11
  -1   1   7    1.30    0.09
  -1   1   7    1.15    0.07
  -1   1   7    1.38    0.11
   0  -1  -7   19.60    0.54
   0  -1  -7   18.71    0.52
   0   1   7   18.94    0.50
   0   1   7   19.29    0.50
   0   1   7   19.14    0.53
  -1  -1  -7   11.41    0.29
  -1  -1  -7   11.05    0.35
  -1  -1  -7   10.64    0.31
   1   1   7   10.60    0.34
   1   1   7   10.47    0.35
   1   1   7   10.61    0.35
  -2  -1  -7   -0.01    0.04
  -2  -1  -7    0.00    0.03
  -2  -1  -7    0.05    0.02
   2   1   7   -0.03    0.04
   2   1   7    0.02    0.04
   2   1   7    0.02    0.04
  -3  -1  -7    3.09    0.20
  -3  -1  -7    3.03    0.14
   3   1   7    2.82    0.19
   3   1   7    3.04    0.20
   3   1   7    2.75    0.19
  -4  -1  -7    1.07    0.14
  -4  -1  -7    1.03    0.15
  -4  -1  -7    0.95    0.10
   4   1   7    0.82    0.14
   4   1   7    0.93    0.15
   4   1   7    0.79    0.13
  -5  -1  -7    4.81    0.29
  -5  -1  -7    4.57    0.30
   5   1   7    4.96    0.31
   5   1   7    4.27    0.30
   5   1   7    4.77    0.30
  -6  -1  -7    0.85    0.16
   6   1   7    0.62    0.15
   6   1   7    1.04    0.18
   6   1   7    0.79    0.18
  -7  -1  -7    0.52    0.16
   7   1   7    0.37    0.15
   7   1   7    0.50    0.17
   7   1   7    0.71    0.17
   7  -2  -7    0.31    0.14
  -7   2   7    0.21    0.13
  -7   2   7    0.16    0.12
   6  -2  -7    2.21    0.25
  -6   2   7    1.71    0.24
  -6   2   7    1.30    0.20
  -6   2   7    1.57    0.23
   5  -2  -7    0.06    0.10
  -5   2   7    0.19    0.09
  -5   2   7    0.13    0.10
   4  -2  -7    0.19    0.09
  -4   2   7    0.17    0.07
  -4   2   7    0.12    0.09
  -4   2   7    0.28    0.10
   3  -2  -7    0.04    0.06
  -3   2   7    0.02    0.03
  -3   2   7    0.00    0.06
  -3   2   7    0.11    0.06
  -3   2   7    0.06    0.04
   2  -2  -7    0.84    0.11
  -2   2   7    0.97    0.07
  -2   2   7    1.17    0.10
  -2   2   7    0.95    0.12
  -2   2   7    1.11    0.14
   1  -2  -7    1.41    0.11
  -1   2   7    1.70    0.12
  -1   2   7    1.55    0.10
  -1   2   7    1.46    0.07
  -1   2   7    1.61    0.09
  -1   2   7    1.62    0.12
   0  -2  -7   14.99    0.45
   0   2   7   14.72    0.40
   0   2   7   15.01    0.43
   0   2   7   15.35    0.44
   0   2   7   14.93    0.42
   0   2   7   15.42    0.43
  -1  -2  -7    0.74    0.06
  -1  -2  -7    0.66    0.05
  -1  -2  -7    0.60    0.09
  -1  -2  -7    0.76    0.09
   1   2   7    0.64    0.08
   1   2   7    0.67    0.08
   1   2   7    0.64    0.05
   1   2   7    0.75    0.09
  -2  -2  -7   11.23    0.38
  -2  -2  -7   11.06    0.39
   2   2   7   10.94    0.40
   2   2   7   12.12    0.41
   2   2   7   11.72    0.40
  -3  -2  -7    1.32    0.14
  -3  -2  -7    1.17    0.14
  -3  -2  -7    1.23    0.07
   3   2   7    1.05    0.14
   3   2   7    1.25    0.15
   3   2   7    1.06    0.15
  -4  -2  -7    3.45    0.24
  -4  -2  -7    3.44    0.23
   4   2   7    3.28    0.23
   4   2   7    3.81    0.25
   4   2   7    3.17    0.23
  -5  -2  -7    0.58    0.14
  -5  -2  -7    0.36    0.12
   5   2   7    0.63    0.15
   5   2   7    0.38    0.12
   5   2   7    0.40    0.13
  -6  -2  -7    2.45    0.27
  -6  -2  -7    3.00    0.29
   6   2   7    3.55    0.28
   6   2   7    3.60    0.29
   6   2   7    2.77    0.29
  -7  -2  -7    0.15    0.11
   7   2   7    0.00    0.11
   7   2   7    0.28    0.12
   7   2   7    0.20    0.12
   7  -3  -7    0.53    0.17
  -7   3   7    0.48    0.16
  -7   3   7    0.78    0.19
   6  -3  -7    0.51    0.14
  -6   3   7    0.34    0.13
  -6   3   7    0.56    0.15
   5  -3  -7    0.08    0.09
  -5   3   7    0.38    0.12
  -5   3   7    0.29    0.11
  -5   3   7    0.35    0.10
   4  -3  -7    1.22    0.16
  -4   3   7    0.82    0.15
  -4   3   7    0.79    0.14
  -4   3   7    1.08    0.14
   3  -3  -7    4.44    0.23
  -3   3   7    3.93    0.24
  -3   3   7    4.45    0.25
  -3   3   7    4.07    0.21
   2  -3  -7   19.66    0.58
  -2   3   7   18.61    0.60
  -2   3   7   19.06    0.59
   1  -3  -7   11.14    0.37
  -1   3   7   11.34    0.36
  -1   3   7   10.82    0.28
  -1   3   7   11.18    0.38
  -1   3   7   10.82    0.32
  -1   3   7   11.23    0.37
   0  -3  -7   29.45    0.74
   0  -3  -7   29.83    0.81
   0   3   7   30.02    0.75
   0   3   7   29.76    0.73
   0   3   7   31.07    0.77
   0   3   7   29.70    0.76
   0   3   7   29.51    0.79
  -1  -3  -7    0.57    0.08
  -1  -3  -7    0.74    0.10
   1   3   7    0.59    0.08
   1   3   7    0.57    0.09
   1   3   7    0.48    0.08
   1   3   7    0.68    0.06
  -2  -3  -7    5.87    0.26
  -2  -3  -7    5.51    0.26
   2   3   7    5.80    0.26
   2   3   7    5.91    0.26
   2   3   7    5.57    0.25
  -3  -3  -7   11.53    0.43
  -3  -3  -7   10.84    0.42
   3   3   7   11.57    0.43
   3   3   7   11.45    0.44
   3   3   7   11.10    0.42
  -4  -3  -7    1.67    0.19
  -4  -3  -7    2.22    0.22
   4   3   7    2.00    0.21
   4   3   7    2.09    0.21
   4   3   7    1.61    0.18
  -5  -3  -7    2.19    0.24
  -5  -3  -7    1.65    0.21
   5   3   7    1.60    0.21
   5   3   7    1.64    0.22
   5   3   7    2.01    0.23
  -6  -3  -7    0.21    0.12
  -6  -3  -7    0.14    0.10
   6   3   7    0.21    0.10
   6   3   7    0.20    0.11
   6   3   7    0.17    0.11
  -7  -3  -7    1.32    0.23
  -7  -3  -7    1.00    0.19
   7   3   7    0.69    0.17
   7   3   7    1.23    0.22
   7   3   7    1.08    0.21
  -7   4   7    0.08    0.12
  -7   4   7    0.32    0.15
   6  -4  -7    0.07    0.10
  -6   4   7    0.03    0.09
  -6   4   7    0.04    0.10
   5  -4  -7    0.01    0.07
  -5   4   7    0.04    0.06
  -5   4   7   -0.01    0.09
  -5   4   7   -0.07    0.07
   4  -4  -7    0.05    0.06
  -4   4   7    0.06    0.07
  -4   4   7    0.06    0.06
  -4   4   7    0.01    0.07
   3  -4  -7    0.46    0.09
  -3   4   7    0.36    0.09
  -3   4   7    0.38    0.10
  -3   4   7    0.33    0.10
   2  -4  -7    0.01    0.02
   2  -4  -7    0.00    0.04
  -2   4   7   -0.02    0.04
  -2   4   7    0.00    0.05
  -2   4   7    0.01    0.03
   1  -4  -7    1.98    0.14
   1  -4  -7    2.15    0.11
  -1   4   7    2.10    0.14
  -1   4   7    2.17    0.10
  -1   4   7    2.24    0.15
  -1   4   7    2.20    0.14
   0  -4  -7    6.17    0.26
   0  -4  -7    5.76    0.21
   0   4   7    5.96    0.23
   0   4   7    5.94    0.24
   0   4   7    6.11    0.23
   0   4   7    6.32    0.22
   0   4   7    6.13    0.21
  -1  -4  -7    0.25    0.07
  -1  -4  -7    0.22    0.06
   1   4   7    0.23    0.06
   1   4   7    0.27    0.04
   1   4   7    0.21    0.06
   1   4   7    0.25    0.05
   1   4   7    0.35    0.07
  -2  -4  -7    0.52    0.09
  -2  -4  -7    0.68    0.11
   2   4   7    0.50    0.05
   2   4   7    0.48    0.09
   2   4   7    0.53    0.10
   2   4   7    0.50    0.09
  -3  -4  -7    0.97    0.14
  -3  -4  -7    1.26    0.16
   3   4   7    1.03    0.14
   3   4   7    1.18    0.15
   3   4   7    0.83    0.13
  -4  -4  -7    3.06    0.23
  -4  -4  -7    3.00    0.23
   4   4   7    2.89    0.23
   4   4   7    2.83    0.22
   4   4   7    2.81    0.21
  -5  -4  -7    0.46    0.14
  -5  -4  -7    0.31    0.12
   5   4   7    0.42    0.13
   5   4   7    0.49    0.13
   5   4   7    0.35    0.13
  -6  -4  -7    0.52    0.16
  -6  -4  -7    0.61    0.15
   6   4   7    0.25    0.12
   6   4   7    0.41    0.14
   6   4   7    0.46    0.15
  -7  -4  -7    1.01    0.21
  -7  -4  -7    1.30    0.24
   7   4   7    0.97    0.21
   7   4   7    1.01    0.21
  -6   5   7    0.08    0.11
  -6   5   7    0.14    0.11
  -6   5   7   -0.01    0.09
  -5   5   7    0.81    0.17
  -5   5   7    1.04    0.18
  -5   5   7    1.15    0.18
   4  -5  -7    0.04    0.07
  -4   5   7   -0.01    0.08
  -4   5   7   -0.02    0.06
  -4   5   7    0.02    0.08
   3  -5  -7    0.15    0.07
  -3   5   7    0.17    0.07
  -3   5   7    0.23    0.09
  -3   5   7    0.09    0.07
   2  -5  -7    1.17    0.13
  -2   5   7    1.70    0.14
  -2   5   7    1.30    0.15
  -2   5   7    1.31    0.16
   1  -5  -7    0.16    0.06
   1  -5  -7    0.29    0.04
  -1   5   7    0.32    0.07
  -1   5   7    0.30    0.07
  -1   5   7    0.24    0.04
  -1   5   7    0.22    0.07
   0  -5  -7    3.64    0.20
   0  -5  -7    3.49    0.15
   0   5   7    3.52    0.19
   0   5   7    3.72    0.16
   0   5   7    3.38    0.17
   0   5   7    3.46    0.16
   0   5   7    3.85    0.18
  -1  -5  -7    0.04    0.04
  -1  -5  -7    0.04    0.05
   1   5   7    0.01    0.04
   1   5   7    0.01    0.04
   1   5   7   -0.01    0.03
   1   5   7    0.02    0.03
   1   5   7   -0.02    0.04
  -2  -5  -7    1.20    0.15
  -2  -5  -7    1.48    0.15
   2   5   7    1.40    0.15
   2   5   7    1.48    0.16
   2   5   7    1.63    0.17
  -3  -5  -7    5.84    0.30
  -3  -5  -7    5.41    0.29
   3   5   7    5.19    0.29
   3   5   7    5.57    0.30
   3   5   7    5.46    0.28
  -4  -5  -7    0.76    0.14
  -4  -5  -7    0.93    0.16
   4   5   7    0.92    0.16
   4   5   7    0.82    0.14
   4   5   7    1.12    0.16
  -5  -5  -7    0.01    0.09
  -5  -5  -7   -0.02    0.08
   5   5   7    0.04    0.08
   5   5   7   -0.12    0.06
   5   5   7   -0.20    0.06
  -6  -5  -7    0.77    0.17
  -6  -5  -7    0.80    0.18
   6   5   7    0.58    0.15
   6   5   7    0.68    0.17
  -7  -5  -7    0.08    0.13
  -7  -5  -7    0.11    0.10
   7   5   7   -0.13    0.09
   7   5   7   -0.03    0.10
  -6   6   7    0.11    0.12
  -6   6   7    0.33    0.14
  -6   6   7    0.29    0.13
   5  -6  -7    1.18    0.17
  -5   6   7    1.22    0.21
  -5   6   7    1.24    0.20
  -5   6   7    0.97    0.19
   4  -6  -7   10.25    0.40
  -4   6   7   10.59    0.46
  -4   6   7    9.96    0.48
  -4   6   7   10.29    0.47
   3  -6  -7    4.64    0.24
  -3   6   7    4.75    0.30
  -3   6   7    4.18    0.27
  -3   6   7    5.12    0.28
   2  -6  -7    0.05    0.06
  -2   6   7   -0.02    0.06
  -2   6   7    0.16    0.08
  -2   6   7    0.08    0.06
   1  -6  -7    2.45    0.10
   1  -6  -7    2.35    0.16
  -1   6   7    2.42    0.10
  -1   6   7    2.50    0.18
  -1   6   7    2.34    0.10
  -1   6   7    2.43    0.17
  -1   6   7    2.51    0.18
   0  -6  -7    1.08    0.13
   0  -6  -7    1.16    0.11
   0   6   7    1.16    0.12
   0   6   7    1.06    0.09
   0   6   7    1.12    0.12
   0   6   7    1.04    0.13
  -1  -6  -7    3.14    0.18
  -1  -6  -7    3.03    0.20
   1   6   7    3.25    0.15
   1   6   7    3.40    0.20
   1   6   7    3.16    0.18
   1   6   7    3.17    0.16
  -2  -6  -7    1.35    0.16
  -2  -6  -7    1.81    0.19
   2   6   7    1.55    0.17
   2   6   7    1.64    0.17
  -3  -6  -7    0.84    0.15
  -3  -6  -7    0.80    0.14
   3   6   7    0.61    0.12
   3   6   7    0.75    0.14
   3   6   7    0.65    0.13
  -4  -6  -7    0.83    0.15
  -4  -6  -7    0.78    0.16
   4   6   7    0.92    0.15
   4   6   7    0.83    0.15
   4   6   7    0.85    0.16
  -5  -6  -7    3.61    0.29
  -5  -6  -7    4.12    0.32
   5   6   7    3.91    0.27
   5   6   7    3.47    0.29
   5   6   7    4.05    0.31
  -6  -6  -7   -0.02    0.10
  -6  -6  -7    0.09    0.10
   6   6   7    0.05    0.09
   6   6   7    0.10    0.11
   6   6   7    0.17    0.11
  -7  -6  -7   -0.03    0.12
  -7  -6  -7    0.06    0.11
   7   6   7    0.01    0.11
   7   6   7    0.04    0.12
  -6   7   7    0.16    0.13
  -6   7   7    0.02    0.11
  -6   7   7    0.32    0.14
  -5   7   7    0.64    0.16
  -5   7   7    0.39    0.16
  -5   7   7    0.58    0.16
   4  -7  -7    0.64    0.13
  -4   7   7    0.50    0.14
  -4   7   7    0.40    0.15
  -4   7   7    0.35    0.13
   3  -7  -7    0.42    0.11
  -3   7   7    0.51    0.14
  -3   7   7    0.89    0.15
  -3   7   7    0.54    0.13
   2  -7  -7    4.81    0.24
  -2   7   7    4.32    0.27
  -2   7   7    4.57    0.28
  -2   7   7    4.25    0.26
   1  -7  -7    0.01    0.06
  -1   7   7    0.17    0.08
  -1   7   7    0.10    0.07
  -1   7   7    0.06    0.06
   0  -7  -7    1.00    0.11
   0  -7  -7    1.23    0.15
   0   7   7    1.11    0.15
   0   7   7    1.20    0.11
   0   7   7    0.92    0.12
   0   7   7    1.30    0.14
  -1  -7  -7    2.03    0.16
  -1  -7  -7    2.01    0.17
   1   7   7    2.12    0.17
   1   7   7    2.25    0.14
   1   7   7    1.83    0.14
  -2  -7  -7    0.48    0.12
  -2  -7  -7    0.50    0.10
   2   7   7    0.42    0.10
   2   7   7    0.37    0.09
  -3  -7  -7    0.07    0.07
  -3  -7  -7    0.02    0.07
   3   7   7    0.02    0.07
   3   7   7    0.01    0.06
  -4  -7  -7    0.17    0.10
  -4  -7  -7    0.14    0.10
   4   7   7    0.15    0.11
   4   7   7    0.08    0.09
   4   7   7    0.09    0.09
  -5  -7  -7    0.10    0.10
  -5  -7  -7    0.12    0.11
   5   7   7    0.00    0.08
   5   7   7    0.22    0.11
   5   7   7    0.18    0.13
  -6  -7  -7    0.99    0.21
  -6  -7  -7    0.83    0.19
   6   7   7    1.18    0.22
   6   7   7    0.55    0.15
   6   7   7    0.83    0.19
  -5   8   7    0.24    0.13
  -5   8   7    0.47    0.16
  -5   8   7    0.31    0.14
  -4   8   7    2.67    0.30
  -4   8   7    3.10    0.31
  -4   8   7    2.32    0.27
   3  -8  -7    7.27    0.33
  -3   8   7    6.85    0.37
  -3   8   7    6.50    0.37
  -3   8   7    7.13    0.39
   2  -8  -7    3.33    0.22
  -2   8   7    3.07    0.24
  -2   8   7    3.25    0.23
  -2   8   7    2.77    0.22
   1  -8  -7    1.30    0.16
  -1   8   7    1.55    0.18
  -1   8   7    1.51    0.18
  -1   8   7    1.26    0.17
   0  -8  -7    6.65    0.32
   0  -8  -7    6.77    0.27
   0   8   7    6.26    0.32
   0   8   7    6.40    0.26
   0   8   7    6.55    0.30
   0   8   7    6.38    0.30
  -1  -8  -7    0.09    0.08
  -1  -8  -7    0.09    0.06
   1   8   7    0.22    0.07
   1   8   7    0.04    0.05
   1   8   7    0.11    0.07
  -2  -8  -7    2.89    0.22
  -2  -8  -7    2.88    0.23
   2   8   7    2.82    0.21
   2   8   7    2.72    0.21
  -3  -8  -7    0.76    0.15
  -3  -8  -7    0.84    0.17
   3   8   7    0.84    0.15
   3   8   7    0.43    0.12
  -4  -8  -7    3.76    0.31
  -4  -8  -7    4.24    0.30
   4   8   7    4.25    0.28
   4   8   7    3.96    0.30
  -5  -8  -7    0.02    0.11
  -5  -8  -7    0.05    0.11
   5   8   7    0.03    0.11
   5   8   7   -0.06    0.11
   5   8   7   -0.07    0.09
  -6  -8  -7    0.14    0.14
  -6  -8  -7    0.29    0.14
   6   8   7    0.44    0.17
   6   8   7    0.50    0.16
  -5   9   7    0.04    0.10
  -5   9   7   -0.02    0.10
  -5   9   7   -0.13    0.09
  -4   9   7    4.56    0.34
  -4   9   7    4.58    0.35
  -4   9   7    4.09    0.32
  -3   9   7    5.49    0.35
  -3   9   7    5.90    0.37
  -3   9   7    5.62    0.35
   2  -9  -7    1.19    0.16
  -2   9   7    1.09    0.18
  -2   9   7    1.14    0.18
  -2   9   7    1.34    0.19
   1  -9  -7    2.00    0.20
  -1   9   7    1.84    0.21
  -1   9   7    1.89    0.20
  -1   9   7    1.67    0.20
   0  -9  -7    4.48    0.27
   0   9   7    3.38    0.25
   0   9   7    3.65    0.24
   0   9   7    3.35    0.23
  -1  -9  -7    7.97    0.39
  -1  -9  -7    8.21    0.36
   1   9   7    8.44    0.39
   1   9   7    8.23    0.35
  -2  -9  -7    1.28    0.19
  -2  -9  -7    1.33    0.18
   2   9   7    1.34    0.18
   2   9   7    1.31    0.17
  -3  -9  -7    0.83    0.16
  -3  -9  -7    0.65    0.16
   3   9   7    0.41    0.12
   3   9   7    0.60    0.13
  -4  -9  -7    5.61    0.36
  -4  -9  -7    5.71    0.38
   4   9   7    5.59    0.33
   4   9   7    4.81    0.34
  -5  -9  -7    0.02    0.11
  -5  -9  -7    0.07    0.11
   5   9   7   -0.01    0.10
   5   9   7    0.04    0.10
  -6  -9  -7    0.05    0.14
  -6  -9  -7    0.04    0.12
   6   9   7    0.12    0.15
   6   9   7    0.24    0.13
  -4  10   7    1.18    0.23
  -4  10   7    1.14    0.21
  -4  10   7    1.10    0.20
  -3  10   7    0.05    0.10
  -3  10   7    0.05    0.09
  -3  10   7    0.11    0.09
   2 -10  -7    0.24    0.11
  -2  10   7    0.19    0.10
  -2  10   7    0.34    0.13
  -2  10   7    0.44    0.14
   1 -10  -7    0.07    0.08
  -1  10   7    0.09    0.08
  -1  10   7   -0.03    0.08
  -1  10   7    0.04    0.08
   0 -10  -7    0.86    0.15
   0  10   7    0.78    0.16
   0  10   7    0.95    0.15
   0  10   7    0.78    0.15
  -1 -10  -7    0.40    0.13
  -1 -10  -7    0.62    0.12
   1  10   7    0.33    0.11
  -2 -10  -7    0.08    0.08
  -2 -10  -7   -0.03    0.08
   2  10   7    0.00    0.08
   2  10   7   -0.04    0.07
  -3 -10  -7    0.72    0.17
  -3 -10  -7    0.39    0.13
   3  10   7    0.31    0.12
   3  10   7    0.52    0.14
  -4 -10  -7    0.23    0.12
  -4 -10  -7    0.11    0.13
   4  10   7    0.41    0.14
   4  10   7    0.15    0.11
  -5 -10  -7   -0.04    0.09
  -5 -10  -7    0.19    0.15
   5  10   7    0.12    0.11
   5  10   7    0.06    0.11
  -4  11   7    0.17    0.13
  -4  11   7   -0.02    0.12
  -3  11   7    1.86    0.26
  -3  11   7    1.98    0.26
  -3  11   7    1.80    0.26
  -2  11   7    0.94    0.18
  -2  11   7    1.06    0.20
   1 -11  -7    1.38    0.19
  -1  11   7    1.51    0.21
  -1  11   7    1.81    0.23
  -1  11   7    1.61    0.23
   0 -11  -7    3.68    0.27
   0  11   7    4.25    0.30
   0  11   7    4.04    0.28
   0  11   7    4.21    0.28
  -1 -11  -7    0.00    0.09
   1  11   7    0.01    0.08
  -2 -11  -7    0.09    0.11
  -2 -11  -7    0.09    0.10
   2  11   7    0.20    0.11
  -3 -11  -7    0.30    0.14
  -3 -11  -7    0.32    0.13
   3  11   7    0.28    0.12
   3  11   7    0.11    0.11
  -4 -11  -7    3.52    0.36
  -4 -11  -7    3.53    0.38
   4  11   7    3.20    0.27
   4  11   7    3.46    0.35
   5  11   7    0.19    0.13
  -3  12   7    0.62    0.17
  -3  12   7    1.02    0.21
  -2  12   7    0.19    0.12
  -2  12   7    0.48    0.16
  -2  12   7    0.23    0.13
  -1  12   7    2.98    0.31
  -1  12   7    3.02    0.30
  -1  12   7    2.73    0.29
   0 -12  -7    0.34    0.13
   0  12   7    0.06    0.10
   0  12   7    0.29    0.12
  -1 -12  -7    0.13    0.12
   1  12   7    0.20    0.13
  -2 -12  -7    1.67    0.23
  -2 -12  -7    2.03    0.27
   2  12   7    1.98    0.26
  -3 -12  -7    0.73    0.17
  -3 -12  -7    0.89    0.22
   3  12   7    1.50    0.23
  -4 -12  -7    0.59    0.17
  -4 -12  -7    0.63    0.19
   4  12   7    0.60    0.18
   4  12   7    1.08    0.20
  -2  13   7    0.10    0.12
  -1  13   7    0.26    0.14
  -1  13   7    0.11    0.12
  -1  13   7    0.03    0.10
   0  13   7    1.67    0.24
   0  13   7    1.44    0.23
  -1 -13  -7   -0.09    0.11
   1  13   7    0.12    0.11
  -2 -13  -7    0.89    0.21
   2  13   7    0.82    0.19
   3  10  -8    0.76    0.18
  -3 -10   8    0.40    0.15
   2  10  -8    2.08    0.26
  -2 -10   8    1.97    0.26
   1  10  -8    2.58    0.28
  -1 -10   8    2.11    0.26
   0  10  -8   -0.06    0.08
   0 -10   8    0.02    0.08
  -1  10  -8    1.79    0.26
   1 -10   8    2.23    0.26
  -2  10  -8    1.08    0.22
  -2  10  -8    0.87    0.19
   2 -10   8    1.45    0.21
   4   9  -8    0.18    0.16
   4   9  -8    0.02    0.11
  -4  -9   8    0.11    0.11
  -4  -9   8    0.01    0.14
   3   9  -8    0.15    0.11
   3   9  -8    0.12    0.12
  -3  -9   8    0.28    0.12
  -3  -9   8    0.19    0.12
   2   9  -8    0.69    0.16
  -2  -9   8    0.58    0.15
   1   9  -8    0.25    0.11
  -1  -9   8    0.21    0.10
   0   9  -8   -0.14    0.07
   0  -9   8    0.09    0.09
  -1   9  -8    2.54    0.28
   1  -9   8    2.98    0.28
   1  -9   8    3.30    0.25
  -2   9  -8    0.18    0.11
  -2   9  -8    0.06    0.11
   2  -9   8    0.00    0.08
   2  -9   8   -0.05    0.06
  -3   9  -8    0.21    0.12
  -3   9  -8    0.38    0.16
   3  -9   8    0.35    0.12
   5   8  -8    0.04    0.10
   4   8  -8    0.43    0.13
   4   8  -8    0.48    0.17
  -4  -8   8    0.25    0.14
  -4  -8   8    0.29    0.14
   3   8  -8    3.66    0.30
   3   8  -8    3.75    0.28
  -3  -8   8    3.28    0.32
  -3  -8   8    4.09    0.32
   2   8  -8    0.54    0.14
   2   8  -8    0.58    0.14
  -2  -8   8    0.56    0.14
  -2  -8   8    0.39    0.13
   1   8  -8    0.56    0.14
  -1  -8   8    0.58    0.13
   0   8  -8    5.59    0.34
   0  -8   8    6.06    0.33
  -1   8  -8    1.88    0.23
  -1   8  -8    2.09    0.24
   1  -8   8    1.83    0.21
   1  -8   8    1.81    0.21
  -2   8  -8    8.38    0.45
  -2   8  -8    9.45    0.50
  -2   8  -8    9.49    0.48
   2  -8   8    9.22    0.41
   2  -8   8    9.01    0.41
  -3   8  -8    0.31    0.12
  -3   8  -8    0.17    0.13
  -3   8  -8    0.22    0.11
   3  -8   8    0.17    0.10
  -4   8  -8    0.16    0.14
  -4   8  -8   -0.09    0.09
   4  -8   8    0.05    0.09
   5   7  -8    0.08    0.10
   5   7  -8    0.41    0.16
  -5  -7   8    0.42    0.17
  -5  -7   8    0.46    0.14
   4   7  -8    0.48    0.13
   4   7  -8    0.43    0.15
  -4  -7   8    0.36    0.15
  -4  -7   8    0.42    0.13
   3   7  -8    0.06    0.11
   3   7  -8    0.04    0.07
  -3  -7   8    0.07    0.08
  -3  -7   8    0.00    0.09
   2   7  -8    0.20    0.11
   2   7  -8    0.47    0.13
  -2  -7   8    0.40    0.12
  -2  -7   8    0.27    0.10
   1   7  -8    1.38    0.17
   1   7  -8    2.04    0.23
  -1  -7   8    1.73    0.19
  -1  -7   8    1.44    0.18
   0   7  -8    0.40    0.11
   0  -7   8    0.25    0.09
   0  -7   8    0.19    0.09
  -1   7  -8    7.28    0.36
  -1   7  -8    6.44    0.35
  -1   7  -8    7.35    0.42
   1  -7   8    6.20    0.33
   1  -7   8    6.87    0.34
  -2   7  -8    3.36    0.27
  -2   7  -8    3.14    0.25
  -2   7  -8    3.43    0.29
   2  -7   8    3.08    0.22
   2  -7   8    3.04    0.22
  -3   7  -8    2.44    0.27
  -3   7  -8    2.56    0.30
  -3   7  -8    2.76    0.29
   3  -7   8    2.58    0.20
   3  -7   8    2.59    0.20
  -4   7  -8    4.76    0.35
  -4   7  -8    5.07    0.38
  -4   7  -8    5.35    0.35
   4  -7   8    4.95    0.30
  -5   7  -8    0.23    0.15
  -5   7  -8    0.11    0.10
   5  -7   8    0.27    0.11
   6   6  -8    0.02    0.10
   6   6  -8    0.05    0.13
  -6  -6   8    0.23    0.14
  -6  -6   8   -0.04    0.09
   5   6  -8    0.34    0.12
   5   6  -8    0.12    0.12
  -5  -6   8    0.01    0.11
  -5  -6   8    0.03    0.09
   4   6  -8    2.94    0.31
   4   6  -8    2.64    0.26
  -4  -6   8    2.46    0.27
  -4  -6   8    2.47    0.29
   3   6  -8    0.75    0.15
   3   6  -8    0.52    0.12
  -3  -6   8    0.72    0.15
  -3  -6   8    0.85    0.15
   2   6  -8    1.85    0.21
   2   6  -8    2.00    0.22
  -2  -6   8    1.75    0.21
  -2  -6   8    2.29    0.23
   1   6  -8    1.66    0.18
   1   6  -8    1.39    0.18
  -1  -6   8    1.58    0.18
  -1  -6   8    1.38    0.17
   0   6  -8    0.21    0.08
   0   6  -8    0.22    0.09
   0  -6   8    0.28    0.09
   0  -6   8    0.25    0.09
  -1   6  -8    1.58    0.19
  -1   6  -8    1.62    0.19
  -1   6  -8    1.04    0.18
   1  -6   8    1.50    0.17
   1  -6   8    1.58    0.17
  -2   6  -8    5.48    0.34
  -2   6  -8    6.15    0.34
  -2   6  -8    6.14    0.33
   2  -6   8    5.87    0.30
   2  -6   8    5.63    0.29
  -3   6  -8    6.65    0.39
  -3   6  -8    7.06    0.40
  -3   6  -8    6.49    0.35
   3  -6   8    6.34    0.32
   3  -6   8    6.69    0.33
  -4   6  -8    3.18    0.34
  -4   6  -8    3.34    0.28
  -4   6  -8    3.36    0.27
   4  -6   8    3.34    0.23
   4  -6   8    3.40    0.23
  -5   6  -8    1.85    0.23
  -5   6  -8    0.93    0.19
  -5   6  -8    1.28    0.23
   5  -6   8    1.20    0.17
   6   5  -8   -0.04    0.09
   6   5  -8    0.06    0.12
  -6  -5   8   -0.02    0.08
  -6  -5   8    0.06    0.13
   5   5  -8   -0.03    0.08
   5   5  -8    0.23    0.13
  -5  -5   8    0.02    0.09
  -5  -5   8    0.24    0.11
   4   5  -8    0.26    0.11
   4   5  -8    0.17    0.11
  -4  -5   8    0.35    0.11
  -4  -5   8    0.19    0.11
   3   5  -8    0.00    0.07
   3   5  -8   -0.11    0.08
  -3  -5   8    0.06    0.07
  -3  -5   8   -0.02    0.08
   2   5  -8    5.27    0.29
   2   5  -8    5.05    0.29
  -2  -5   8    5.16    0.30
  -2  -5   8    5.25    0.28
   1   5  -8   10.74    0.43
  -1  -5   8   11.88    0.44
  -1  -5   8   11.07    0.43
   0   5  -8    1.35    0.18
   0   5  -8    1.26    0.16
   0   5  -8    1.10    0.12
   0   5  -8    1.34    0.14
   0  -5   8    1.16    0.14
   0  -5   8    1.22    0.15
   0  -5   8    1.09    0.12
  -1   5  -8    5.92    0.30
  -1   5  -8    5.13    0.28
  -1   5  -8    5.76    0.34
   1  -5   8    5.46    0.28
   1  -5   8    5.97    0.28
  -2   5  -8    0.99    0.16
  -2   5  -8    1.21    0.16
  -2   5  -8    1.35    0.19
   2  -5   8    1.17    0.15
   2  -5   8    1.30    0.15
  -3   5  -8    1.21    0.19
  -3   5  -8    0.97    0.17
  -3   5  -8    0.98    0.15
   3  -5   8    1.10    0.15
   3  -5   8    1.24    0.15
  -4   5  -8    2.90    0.31
  -4   5  -8    3.08    0.24
  -4   5  -8    2.78    0.24
   4  -5   8    3.20    0.22
   4  -5   8    2.87    0.21
  -5   5  -8    0.01    0.07
  -5   5  -8    0.06    0.11
  -5   5  -8    0.05    0.09
   5  -5   8   -0.02    0.06
   5  -5   8    0.17    0.09
   5  -5   8   -0.07    0.09
  -6   5  -8    1.32    0.20
  -6   5  -8    1.44    0.22
  -6   5  -8    1.20    0.24
   6  -5   8    1.28    0.24
   6  -5   8    1.50    0.20
   6   4  -8    0.09    0.12
   6   4  -8    0.13    0.11
  -6  -4   8    0.17    0.11
  -6  -4   8    0.11    0.11
   5   4  -8    1.06    0.20
   5   4  -8    1.11    0.18
  -5  -4   8    0.83    0.19
  -5  -4   8    1.24    0.19
   4   4  -8    0.96    0.18
   4   4  -8    1.24    0.18
  -4  -4   8    0.88    0.16
  -4  -4   8    0.89    0.17
   3   4  -8    5.08    0.31
   3   4  -8    5.35    0.30
  -3  -4   8    5.85    0.30
  -3  -4   8    5.21    0.31
   2   4  -8    0.52    0.10
   2   4  -8    0.57    0.12
  -2  -4   8    0.71    0.13
  -2  -4   8    0.56    0.11
   1   4  -8    0.07    0.06
   1   4  -8    0.09    0.06
  -1  -4   8    0.05    0.05
  -1  -4   8    0.02    0.05
  -1  -4   8    0.12    0.06
   0   4  -8    0.20    0.07
   0   4  -8    0.21    0.07
   0   4  -8    0.21    0.09
   0   4  -8    0.22    0.07
   0  -4   8    0.18    0.06
   0  -4   8    0.17    0.06
  -1   4  -8    6.85    0.30
  -1   4  -8    7.16    0.32
  -1   4  -8    6.71    0.34
  -1   4  -8    6.54    0.23
   1  -4   8    6.87    0.29
   1  -4   8    6.67    0.30
  -2   4  -8   11.09    0.42
  -2   4  -8   10.57    0.45
  -2   4  -8   11.00    0.47
   2  -4   8   10.35    0.40
   2  -4   8   11.06    0.41
  -3   4  -8   11.60    0.45
  -3   4  -8   11.26    0.50
  -3   4  -8   11.20    0.48
   3  -4   8   11.16    0.43
   3  -4   8   11.90    0.44
  -4   4  -8    1.90    0.25
  -4   4  -8    2.37    0.24
  -4   4  -8    2.55    0.21
   4  -4   8    2.42    0.19
   4  -4   8    2.54    0.20
   4  -4   8    3.08    0.31
  -5   4  -8    0.06    0.09
  -5   4  -8   -0.04    0.07
  -5   4  -8    0.07    0.07
   5  -4   8    0.01    0.06
   5  -4   8    0.06    0.07
   5  -4   8    0.15    0.11
  -6   4  -8    0.87    0.20
  -6   4  -8    1.08    0.18
  -6   4  -8    1.02    0.17
   6  -4   8    1.31    0.23
   6  -4   8    0.89    0.16
   6   3  -8    0.82    0.20
   6   3  -8    0.80    0.17
  -6  -3   8    1.22    0.20
  -6  -3   8    1.17    0.23
   5   3  -8   -0.01    0.09
   5   3  -8    0.06    0.08
  -5  -3   8    0.11    0.11
  -5  -3   8   -0.01    0.07
   4   3  -8    0.67    0.15
   4   3  -8    0.64    0.13
  -4  -3   8    0.45    0.12
  -4  -3   8    0.51    0.14
   3   3  -8    7.55    0.36
   3   3  -8    7.77    0.38
  -3  -3   8    8.29    0.36
  -3  -3   8    8.61    0.40
   2   3  -8   28.92    0.83
   2   3  -8   28.12    0.85
  -2  -3   8   28.84    0.82
  -2  -3   8   28.32    0.86
   1   3  -8    1.31    0.14
   1   3  -8    0.90    0.12
   1   3  -8    1.16    0.08
   1   3  -8    1.06    0.14
  -1  -3   8    1.03    0.08
  -1  -3   8    1.05    0.13
  -1  -3   8    1.11    0.13
  -1  -3   8    1.14    0.14
   0   3  -8    4.65    0.21
   0   3  -8    4.69    0.27
   0   3  -8    4.71    0.23
   0   3  -8    4.65    0.21
   0  -3   8    5.14    0.21
   0  -3   8    4.79    0.23
   0  -3   8    4.64    0.23
  -1   3  -8    1.36    0.15
  -1   3  -8    1.25    0.14
  -1   3  -8    1.64    0.11
   1  -3   8    1.40    0.14
   1  -3   8    1.46    0.13
  -2   3  -8    0.25    0.07
  -2   3  -8    0.24    0.09
  -2   3  -8    0.22    0.09
   2  -3   8    0.29    0.08
   2  -3   8    0.19    0.09
   2  -3   8    0.25    0.07
  -3   3  -8    3.66    0.22
  -3   3  -8    3.68    0.26
  -3   3  -8    3.79    0.25
   3  -3   8    4.16    0.27
   3  -3   8    3.46    0.21
   3  -3   8    3.87    0.22
  -4   3  -8   10.33    0.45
  -4   3  -8   10.59    0.44
  -4   3  -8   11.73    0.52
   4  -3   8   10.86    0.44
   4  -3   8   11.25    0.51
   4  -3   8   11.27    0.44
  -5   3  -8    0.05    0.07
  -5   3  -8    0.05    0.08
  -5   3  -8    0.08    0.10
   5  -3   8    0.02    0.06
   5  -3   8   -0.03    0.07
   5  -3   8    0.02    0.09
  -6   3  -8    1.32    0.24
  -6   3  -8    1.28    0.18
   6  -3   8    0.87    0.16
   6  -3   8    1.10    0.17
   6  -3   8    0.96    0.21
   7   2  -8    3.13    0.36
  -7  -2   8    3.19    0.37
   6   2  -8    0.06    0.12
  -6  -2   8    0.10    0.09
  -6  -2   8    0.10    0.12
   5   2  -8    3.34    0.28
  -5  -2   8    3.33    0.25
  -5  -2   8    3.67    0.29
   4   2  -8    0.95    0.15
   4   2  -8    0.87    0.16
  -4  -2   8    0.78    0.13
  -4  -2   8    0.55    0.13
   3   2  -8    0.77    0.13
   3   2  -8    0.98    0.15
  -3  -2   8    1.35    0.17
  -3  -2   8    1.31    0.15
   2   2  -8   55.94    1.48
   2   2  -8   55.87    1.45
  -2  -2   8   56.44    1.49
  -2  -2   8   57.08    1.41
   1   2  -8    4.71    0.23
   1   2  -8    4.97    0.24
  -1  -2   8    5.57    0.23
  -1  -2   8    4.86    0.16
  -1  -2   8    5.18    0.24
  -1  -2   8    4.68    0.23
   0   2  -8    1.75    0.13
   0   2  -8    1.51    0.12
   0  -2   8    1.93    0.12
   0  -2   8    2.08    0.13
   0  -2   8    1.80    0.13
  -1   2  -8   23.69    0.68
  -1   2  -8   23.09    0.62
  -1   2  -8   22.44    0.65
   1  -2   8   23.12    0.68
   1  -2   8   23.10    0.65
  -2   2  -8   14.42    0.52
  -2   2  -8   13.99    0.46
  -2   2  -8   14.12    0.42
   2  -2   8   15.30    0.53
   2  -2   8   15.31    0.50
   2  -2   8   15.35    0.48
  -3   2  -8    9.55    0.43
  -3   2  -8    9.71    0.37
   3  -2   8    9.80    0.43
   3  -2   8   10.07    0.39
   3  -2   8    9.37    0.38
  -4   2  -8    1.37    0.21
  -4   2  -8    1.49    0.17
  -4   2  -8    1.60    0.18
   4  -2   8    1.56    0.18
   4  -2   8    1.19    0.15
   4  -2   8    1.58    0.22
  -5   2  -8    1.87    0.20
  -5   2  -8    2.22    0.22
  -5   2  -8    2.08    0.27
   5  -2   8    1.76    0.20
   5  -2   8    1.90    0.26
   5  -2   8    2.09    0.22
  -6   2  -8    2.19    0.29
  -6   2  -8    2.08    0.20
   6  -2   8    1.96    0.28
   6  -2   8    1.76    0.21
   6  -2   8    2.05    0.23
  -7   2  -8    0.36    0.16
  -7   2  -8    0.41    0.11
   7  -2   8    0.65    0.15
   7  -2   8    0.45    0.18
   7  -2   8    0.62    0.15
   7   1  -8    1.03    0.22
  -7  -1   8    0.91    0.21
  -7  -1   8    0.94    0.20
  -7  -1   8    0.90    0.19
   6   1  -8    0.46    0.15
  -6  -1   8    0.46    0.14
  -6  -1   8    0.41    0.15
  -6  -1   8    0.81    0.18
   5   1  -8    1.15    0.19
  -5  -1   8    1.13    0.18
  -5  -1   8    0.84    0.17
  -5  -1   8    1.00    0.17
  -5  -1   8    1.10    0.16
   4   1  -8    0.11    0.09
  -4  -1   8    0.04    0.06
  -4  -1   8    0.03    0.07
  -4  -1   8    0.10    0.08
   3   1  -8    7.92    0.36
  -3  -1   8    7.79    0.36
  -3  -1   8    7.97    0.32
  -3  -1   8    7.61    0.34
   2   1  -8    1.44    0.15
   2   1  -8    1.40    0.15
  -2  -1   8    1.56    0.13
  -2  -1   8    1.36    0.15
   1   1  -8    4.78    0.22
   1   1  -8    4.23    0.22
  -1  -1   8    4.91    0.20
  -1  -1   8    3.90    0.20
  -1  -1   8    4.30    0.15
   0   1  -8   31.73    0.85
   0   1  -8   32.15    0.85
   0  -1   8   32.30    0.83
   0  -1   8   33.03    0.87
   0  -1   8   32.22    0.83
  -1   1  -8   53.25    1.34
  -1   1  -8   52.88    1.30
  -1   1  -8   51.37    1.29
   1  -1   8   53.47    1.30
   1  -1   8   50.36    1.33
   1  -1   8   54.07    1.34
  -2   1  -8   15.42    0.45
  -2   1  -8   15.40    0.47
  -2   1  -8   15.61    0.54
   2  -1   8   16.11    0.53
   2  -1   8   15.55    0.49
   2  -1   8   16.03    0.51
  -3   1  -8    0.72    0.08
  -3   1  -8    0.39    0.11
  -3   1  -8    0.72    0.09
  -3   1  -8    0.62    0.09
   3  -1   8    0.61    0.12
   3  -1   8    0.58    0.11
   3  -1   8    0.59    0.10
  -4   1  -8    0.33    0.11
  -4   1  -8    0.60    0.10
   4  -1   8    0.29    0.10
   4  -1   8    0.27    0.09
   4  -1   8    0.28    0.09
  -5   1  -8    1.61    0.23
  -5   1  -8    1.17    0.18
   5  -1   8    1.50    0.22
   5  -1   8    1.56    0.19
   5  -1   8    1.90    0.21
  -6   1  -8    2.38    0.30
  -6   1  -8    2.45    0.19
  -6   1  -8    1.99    0.24
   6  -1   8    2.21    0.24
   6  -1   8    2.86    0.33
   6  -1   8    2.47    0.26
  -7   1  -8    0.47    0.11
  -7   1  -8    0.37    0.15
  -7   1  -8    0.38    0.16
   7  -1   8    0.30    0.13
   7  -1   8    0.45    0.14
   7  -1   8    0.55    0.19
   7   0  -8    1.39    0.23
  -7   0   8    0.79    0.19
  -7   0   8    1.62    0.25
  -7   0   8    1.05    0.21
   6   0  -8    0.48    0.15
  -6   0   8    0.60    0.16
  -6   0   8    0.62    0.16
  -6   0   8    0.49    0.15
   5   0  -8    0.20    0.12
  -5   0   8    0.19    0.10
  -5   0   8    0.16    0.10
  -5   0   8    0.12    0.10
   4   0  -8   14.97    0.56
  -4   0   8   13.93    0.55
  -4   0   8   15.08    0.56
  -4   0   8   15.59    0.57
  -4   0   8   15.75    0.50
   3   0  -8    1.36    0.16
  -3   0   8    1.33    0.16
  -3   0   8    1.47    0.13
  -3   0   8    1.38    0.16
  -3   0   8    1.07    0.14
   2   0  -8   33.53    0.96
  -2   0   8   34.51    0.93
  -2   0   8   35.90    0.83
  -2   0   8   34.87    0.88
   1   0  -8    0.22    0.06
   1   0  -8    0.26    0.07
  -1   0   8    0.20    0.05
  -1   0   8    0.28    0.04
  -1   0   8    0.27    0.05
  -1   0   8    0.23    0.06
   0   0  -8   12.39    0.38
   0   0  -8   11.82    0.38
   0   0   8   12.05    0.39
   0   0   8   11.49    0.36
   0   0   8   11.59    0.36
  -1   0  -8    0.06    0.03
  -1   0  -8    0.01    0.02
   1   0   8    0.05    0.04
   1   0   8    0.07    0.04
   1   0   8    0.04    0.03
  -2   0  -8    0.10    0.04
  -2   0  -8    0.06    0.04
   2   0   8   -0.01    0.05
   2   0   8    0.08    0.04
   2   0   8    0.24    0.06
  -3   0  -8   23.36    0.57
  -3   0  -8   23.52    0.67
  -3   0  -8   22.68    0.71
  -3   0  -8   23.30    0.75
  -3   0  -8   23.55    0.64
   3   0   8   24.25    0.72
   3   0   8   22.40    0.70
   3   0   8   24.18    0.75
  -4   0  -8    1.61    0.19
  -4   0  -8    2.01    0.16
  -4   0  -8    1.91    0.23
  -4   0  -8    2.13    0.15
   4   0   8    1.79    0.22
   4   0   8    1.70    0.18
   4   0   8    1.84    0.19
  -5   0  -8    4.22    0.30
  -5   0  -8    4.61    0.30
   5   0   8    4.47    0.31
   5   0   8    4.32    0.28
   5   0   8    4.30    0.28
  -6   0  -8    0.09    0.11
  -6   0  -8    0.18    0.10
   6   0   8    0.10    0.11
   6   0   8    0.16    0.11
   6   0   8    0.01    0.08
  -7   0  -8    0.93    0.13
  -7   0  -8    1.04    0.19
   7   0   8    1.25    0.25
   7   0   8    1.22    0.20
   7   0   8    0.95    0.18
   7  -1  -8    2.62    0.31
  -7   1   8    2.42    0.30
  -7   1   8    2.26    0.29
  -7   1   8    2.65    0.31
   6  -1  -8    1.96    0.24
  -6   1   8    1.53    0.22
  -6   1   8    1.59    0.23
  -6   1   8    1.74    0.24
   5  -1  -8   11.54    0.50
  -5   1   8   12.23    0.52
  -5   1   8   11.11    0.50
  -5   1   8   11.81    0.51
   4  -1  -8    5.45    0.30
  -4   1   8    5.21    0.30
  -4   1   8    5.30    0.31
  -4   1   8    5.27    0.31
  -4   1   8    5.48    0.24
   3  -1  -8    1.68    0.17
  -3   1   8    1.73    0.12
  -3   1   8    1.64    0.11
  -3   1   8    1.64    0.18
  -3   1   8    1.58    0.18
   2  -1  -8   15.85    0.52
  -2   1   8   16.09    0.53
  -2   1   8   15.71    0.49
  -2   1   8   16.39    0.45
  -2   1   8   16.95    0.44
  -2   1   8   16.40    0.53
   1  -1  -8    0.36    0.07
  -1   1   8    0.31    0.05
  -1   1   8    0.29    0.07
  -1   1   8    0.51    0.07
  -1   1   8    0.44    0.05
   0  -1  -8   46.06    1.14
   0  -1  -8   47.79    1.18
   0   1   8   47.21    1.12
   0   1   8   41.66    1.13
   0   1   8   46.75    1.10
   0   1   8   47.79    1.17
  -1  -1  -8    0.51    0.08
  -1  -1  -8    0.78    0.08
   1   1   8    0.46    0.08
   1   1   8    0.56    0.08
   1   1   8    0.62    0.08
  -2  -1  -8   11.81    0.42
  -2  -1  -8   14.30    0.46
  -2  -1  -8   14.76    0.39
   2   1   8   14.06    0.45
   2   1   8   13.42    0.46
   2   1   8   14.31    0.48
  -3  -1  -8    1.24    0.09
  -3  -1  -8    1.18    0.15
  -3  -1  -8    1.48    0.14
   3   1   8    1.23    0.15
   3   1   8    1.45    0.17
   3   1   8    1.24    0.15
  -4  -1  -8    0.10    0.07
  -4  -1  -8   -0.04    0.06
   4   1   8   -0.02    0.06
   4   1   8    0.12    0.08
   4   1   8    0.05    0.06
  -5  -1  -8    1.97    0.21
  -5  -1  -8    1.50    0.20
   5   1   8    1.94    0.22
   5   1   8    1.98    0.24
   5   1   8    1.80    0.22
  -6  -1  -8    0.21    0.10
   6   1   8    0.19    0.13
   6   1   8    0.35    0.13
   6   1   8    0.24    0.12
  -7  -1  -8    0.77    0.17
   7   1   8    0.90    0.18
   7   1   8    0.65    0.18
   7   1   8    0.90    0.21
   7  -2  -8    0.19    0.14
  -7   2   8    0.13    0.13
  -7   2   8    0.08    0.12
   6  -2  -8    0.12    0.11
  -6   2   8    0.14    0.11
  -6   2   8    0.03    0.09
   5  -2  -8    7.56    0.37
  -5   2   8    6.84    0.39
  -5   2   8    6.22    0.37
   4  -2  -8   13.36    0.51
  -4   2   8   14.07    0.55
  -4   2   8   13.48    0.46
  -4   2   8   13.64    0.54
   3  -2  -8    1.74    0.17
  -3   2   8    1.69    0.12
  -3   2   8    1.32    0.16
  -3   2   8    1.37    0.10
  -3   2   8    1.29    0.16
   2  -2  -8   12.62    0.44
  -2   2   8   12.44    0.35
  -2   2   8   12.98    0.39
  -2   2   8   12.89    0.45
  -2   2   8   12.76    0.45
  -2   2   8   12.43    0.38
   1  -2  -8    0.00    0.05
  -1   2   8    0.00    0.02
  -1   2   8    0.00    0.02
  -1   2   8    0.03    0.03
  -1   2   8    0.00    0.04
  -1   2   8    0.01    0.04
   0  -2  -8   27.10    0.75
   0   2   8   25.76    0.72
   0   2   8   28.45    0.73
   0   2   8   27.40    0.70
   0   2   8   27.33    0.69
  -1  -2  -8    7.43    0.24
  -1  -2  -8    7.64    0.29
  -1  -2  -8    7.96    0.28
   1   2   8    7.79    0.29
   1   2   8    7.62    0.22
   1   2   8    7.50    0.29
   1   2   8    7.52    0.27
  -2  -2  -8   53.76    1.26
  -2  -2  -8   56.35    1.38
  -2  -2  -8   53.43    1.40
   2   2   8   54.39    1.41
   2   2   8   53.61    1.40
   2   2   8   55.50    1.37
  -3  -2  -8    5.06    0.27
  -3  -2  -8    5.04    0.17
  -3  -2  -8    5.10    0.25
   3   2   8    4.58    0.26
   3   2   8    5.08    0.26
   3   2   8    4.82    0.26
  -4  -2  -8    2.58    0.20
  -4  -2  -8    2.06    0.21
   4   2   8    2.64    0.21
   4   2   8    2.32    0.24
   4   2   8    2.24    0.19
  -5  -2  -8    0.11    0.08
  -5  -2  -8    0.12    0.09
   5   2   8    0.32    0.13
   5   2   8    0.19    0.10
   5   2   8    0.06    0.09
  -6  -2  -8    2.25    0.26
   6   2   8    2.46    0.29
   6   2   8    1.99    0.25
   6   2   8    2.39    0.26
  -7  -2  -8   -0.03    0.08
   7   2   8    0.05    0.10
   7   2   8    0.07    0.11
   7  -3  -8    1.09    0.20
  -7   3   8    0.77    0.20
  -7   3   8    0.95    0.20
   6  -3  -8    0.52    0.15
  -6   3   8    0.27    0.13
  -6   3   8    0.09    0.12
   5  -3  -8    2.49    0.21
  -5   3   8    2.55    0.27
  -5   3   8    2.04    0.25
   4  -3  -8   30.31    0.91
  -4   3   8   30.87    0.96
  -4   3   8   31.96    0.88
  -4   3   8   29.05    0.93
   3  -3  -8    0.25    0.08
  -3   3   8    0.20    0.06
  -3   3   8    0.14    0.08
  -3   3   8    0.18    0.08
   2  -3  -8    0.07    0.05
  -2   3   8    0.11    0.04
  -2   3   8    0.14    0.03
  -2   3   8    0.05    0.06
  -2   3   8    0.11    0.04
  -2   3   8    0.10    0.06
   1  -3  -8    0.24    0.07
  -1   3   8    0.29    0.05
  -1   3   8    0.09    0.03
  -1   3   8    0.36    0.07
  -1   3   8    0.34    0.04
  -1   3   8    0.19    0.06
   0  -3  -8  222.38    5.28
   0   3   8  226.03    5.19
   0   3   8  223.62    5.03
   0   3   8  222.57    5.07
   0   3   8  227.77    5.19
   0   3   8  224.72    4.95
  -1  -3  -8   15.10    0.40
  -1  -3  -8   14.71    0.45
  -1  -3  -8   15.58    0.49
   1   3   8   15.27    0.47
   1   3   8   14.95    0.47
   1   3   8   14.93    0.45
   1   3   8   14.49    0.39
  -2  -3  -8   15.04    0.49
  -2  -3  -8   14.91    0.49
   2   3   8   14.88    0.50
   2   3   8   15.01    0.50
   2   3   8   14.68    0.48
  -3  -3  -8   15.63    0.54
  -3  -3  -8   15.03    0.53
   3   3   8   14.72    0.53
   3   3   8   15.39    0.54
   3   3   8   15.71    0.55
  -4  -3  -8    4.35    0.27
  -4  -3  -8    4.91    0.29
   4   3   8    4.90    0.28
   4   3   8    4.86    0.29
   4   3   8    4.22    0.27
  -5  -3  -8    7.71    0.40
  -5  -3  -8    7.82    0.40
   5   3   8    8.26    0.41
   5   3   8    7.39    0.40
   5   3   8    7.82    0.41
  -6  -3  -8    0.01    0.08
  -6  -3  -8    0.01    0.09
   6   3   8    0.18    0.11
   6   3   8    0.06    0.09
   6   3   8    0.04    0.10
  -7  -3  -8    0.37    0.14
   7   3   8    0.40    0.15
   7   3   8    0.52    0.16
  -7   4   8    0.98    0.21
   6  -4  -8    0.84    0.17
  -6   4   8    1.05    0.20
  -6   4   8    0.59    0.17
   5  -4  -8    5.52    0.31
  -5   4   8    5.29    0.35
  -5   4   8    5.41    0.31
  -5   4   8    4.79    0.33
   4  -4  -8    0.67    0.13
  -4   4   8    0.66    0.12
  -4   4   8    0.60    0.13
  -4   4   8    0.49    0.13
   3  -4  -8    0.04    0.06
  -3   4   8   -0.07    0.06
  -3   4   8   -0.01    0.03
  -3   4   8    0.01    0.06
   2  -4  -8   12.68    0.45
  -2   4   8   13.46    0.44
  -2   4   8   13.38    0.48
  -2   4   8   14.30    0.48
   1  -4  -8   12.75    0.43
  -1   4   8   12.45    0.42
  -1   4   8   12.53    0.41
  -1   4   8   12.84    0.43
  -1   4   8   12.66    0.36
  -1   4   8   12.39    0.32
   0  -4  -8  100.54    2.34
   0  -4  -8  100.88    2.50
   0   4   8  105.80    2.43
   0   4   8  104.33    2.39
   0   4   8  102.72    2.34
   0   4   8   98.94    2.34
   0   4   8  103.35    2.45
  -1  -4  -8   16.14    0.52
  -1  -4  -8   16.00    0.49
   1   4   8   16.40    0.50
   1   4   8   16.19    0.43
   1   4   8   16.19    0.43
   1   4   8   16.05    0.48
   1   4   8   15.81    0.51
  -2  -4  -8    1.14    0.13
  -2  -4  -8    1.40    0.15
   2   4   8    1.12    0.13
   2   4   8    1.25    0.14
   2   4   8    1.41    0.07
   2   4   8    1.15    0.14
  -3  -4  -8   10.78    0.42
  -3  -4  -8   10.25    0.41
   3   4   8    9.93    0.41
   3   4   8    9.06    0.40
   3   4   8   10.24    0.41
  -4  -4  -8    7.97    0.39
  -4  -4  -8    8.14    0.39
   4   4   8    8.29    0.38
   4   4   8    8.32    0.40
   4   4   8    8.37    0.40
  -5  -4  -8    4.10    0.29
  -5  -4  -8    3.59    0.28
   5   4   8    4.58    0.30
   5   4   8    4.23    0.30
   5   4   8    4.34    0.30
  -6  -4  -8    0.14    0.10
  -6  -4  -8    0.28    0.13
   6   4   8    0.01    0.10
   6   4   8    0.18    0.11
   6   4   8    0.19    0.12
  -7  -4  -8    0.91    0.19
  -7  -4  -8    1.38    0.25
   7   4   8    1.08    0.22
   7   4   8    1.20    0.22
   6  -5  -8    0.18    0.11
  -6   5   8    0.19    0.12
   5  -5  -8    3.10    0.23
  -5   5   8    2.83    0.29
  -5   5   8    3.21    0.32
  -5   5   8    3.19    0.25
   4  -5  -8    8.15    0.36
  -4   5   8    8.30    0.42
  -4   5   8    8.68    0.39
  -4   5   8    8.47    0.42
   3  -5  -8    2.79    0.19
  -3   5   8    3.11    0.21
  -3   5   8    2.89    0.22
  -3   5   8    2.75    0.22
   2  -5  -8    1.21    0.14
  -2   5   8    1.48    0.17
  -2   5   8    1.42    0.15
  -2   5   8    1.45    0.18
   1  -5  -8    0.31    0.08
  -1   5   8    0.34    0.07
  -1   5   8    0.20    0.07
   0  -5  -8    5.01    0.19
   0  -5  -8    4.48    0.23
   0   5   8    4.73    0.19
   0   5   8    5.12    0.19
   0   5   8    4.77    0.23
   0   5   8    4.76    0.21
   0   5   8    4.59    0.21
  -1  -5  -8   57.79    1.42
  -1  -5  -8   57.86    1.51
   1   5   8   58.13    1.46
   1   5   8   57.61    1.42
   1   5   8   57.19    1.35
   1   5   8   58.32    1.36
   1   5   8   56.61    1.47
  -2  -5  -8    7.32    0.31
  -2  -5  -8    6.87    0.32
   2   5   8    6.85    0.31
   2   5   8    7.12    0.32
   2   5   8    7.37    0.32
   2   5   8    7.26    0.23
  -3  -5  -8   14.07    0.53
  -3  -5  -8   14.21    0.51
   3   5   8   13.61    0.51
   3   5   8   13.23    0.50
   3   5   8   13.10    0.51
  -4  -5  -8    0.08    0.08
  -4  -5  -8    0.07    0.08
   4   5   8    0.13    0.09
   4   5   8    0.03    0.07
   4   5   8    0.16    0.08
  -5  -5  -8    3.81    0.29
   5   5   8    4.03    0.30
   5   5   8    3.42    0.28
   5   5   8    4.14    0.28
  -6  -5  -8    0.92    0.20
  -6  -5  -8    0.98    0.19
   6   5   8    1.03    0.20
   6   5   8    0.98    0.19
   6   5   8    1.12    0.21
  -7  -5  -8    0.19    0.14
  -7  -5  -8    0.23    0.13
   7   5   8    0.12    0.14
   7   5   8    0.10    0.12
  -6   6   8    0.36    0.13
  -6   6   8    0.28    0.13
  -6   6   8    0.41    0.15
   5  -6  -8    1.44    0.19
  -5   6   8    1.27    0.21
  -5   6   8    1.03    0.20
  -5   6   8    1.59    0.22
   4  -6  -8    9.17    0.38
  -4   6   8    7.65    0.41
  -4   6   8    9.14    0.42
  -4   6   8    8.01    0.43
   3  -6  -8    0.28    0.09
  -3   6   8    0.31    0.11
  -3   6   8    0.28    0.10
  -3   6   8    0.43    0.10
   2  -6  -8   18.11    0.58
  -2   6   8   17.87    0.61
  -2   6   8   16.79    0.58
  -2   6   8   17.40    0.60
   1  -6  -8   -0.01    0.04
  -1   6   8    0.02    0.05
  -1   6   8    0.12    0.06
  -1   6   8    0.08    0.06
  -1   6   8    0.03    0.03
   0  -6  -8   31.66    0.91
   0  -6  -8   31.10    0.81
   0   6   8   31.55    0.90
   0   6   8   32.86    0.86
   0   6   8   32.05    0.81
   0   6   8   31.69    0.83
   0   6   8   32.31    0.85
  -1  -6  -8    0.05    0.05
  -1  -6  -8    0.04    0.05
   1   6   8    0.03    0.04
   1   6   8    0.07    0.05
   1   6   8    0.04    0.05
   1   6   8    0.01    0.05
   1   6   8   -0.01    0.04
  -2  -6  -8    1.19    0.16
  -2  -6  -8    1.13    0.14
   2   6   8    1.01    0.14
   2   6   8    1.54    0.17
   2   6   8    1.21    0.15
  -3  -6  -8    7.59    0.37
  -3  -6  -8    8.25    0.39
   3   6   8    8.83    0.38
   3   6   8    8.45    0.39
   3   6   8    8.07    0.38
  -4  -6  -8    3.85    0.28
  -4  -6  -8    4.38    0.29
   4   6   8    3.90    0.28
   4   6   8    3.61    0.25
   4   6   8    3.67    0.28
  -5  -6  -8    5.42    0.35
  -5  -6  -8    5.29    0.35
   5   6   8    5.65    0.36
   5   6   8    5.88    0.35
   5   6   8    5.08    0.35
  -6  -6  -8   -0.05    0.08
  -6  -6  -8    0.07    0.12
   6   6   8    0.09    0.11
   6   6   8    0.26    0.12
   6   6   8    0.14    0.12
   7   6   8    1.07    0.21
   7   6   8    1.18    0.24
  -6   7   8    0.20    0.14
  -6   7   8    0.05    0.12
  -5   7   8    0.91    0.18
  -5   7   8    1.10    0.19
  -5   7   8    0.59    0.17
   4  -7  -8    0.30    0.10
  -4   7   8    0.29    0.13
  -4   7   8    0.54    0.14
  -4   7   8    0.32    0.11
   3  -7  -8    1.83    0.19
  -3   7   8    2.20    0.23
  -3   7   8    1.82    0.23
  -3   7   8    1.87    0.22
   2  -7  -8    3.20    0.20
  -2   7   8    2.89    0.22
  -2   7   8    3.04    0.22
  -2   7   8    2.70    0.22
   1  -7  -8    1.07    0.14
  -1   7   8    0.96    0.14
  -1   7   8    1.24    0.16
  -1   7   8    1.48    0.17
   0  -7  -8   13.28    0.40
   0  -7  -8   12.62    0.47
   0   7   8   12.07    0.43
   0   7   8   12.86    0.40
   0   7   8   12.22    0.46
   0   7   8   12.52    0.40
   0   7   8   12.82    0.44
  -1  -7  -8    0.23    0.07
  -1  -7  -8    0.15    0.08
   1   7   8    0.18    0.07
   1   7   8    0.19    0.08
   1   7   8    0.32    0.09
   1   7   8    0.29    0.07
   1   7   8    0.33    0.08
  -2  -7  -8   10.24    0.41
  -2  -7  -8    9.46    0.42
   2   7   8    9.64    0.40
   2   7   8    9.39    0.40
   2   7   8    9.34    0.40
  -3  -7  -8    5.62    0.33
  -3  -7  -8    5.63    0.32
   3   7   8    4.77    0.30
   3   7   8    6.20    0.32
   3   7   8    6.00    0.33
  -4  -7  -8    0.23    0.11
  -4  -7  -8    0.36    0.12
   4   7   8    0.06    0.08
   4   7   8    0.04    0.08
   4   7   8    0.11    0.10
  -5  -7  -8    0.36    0.14
  -5  -7  -8    0.48    0.15
   5   7   8    0.32    0.14
   5   7   8    0.30    0.13
   5   7   8    0.40    0.14
  -6  -7  -8    0.40    0.14
  -6  -7  -8    0.60    0.18
   6   7   8    0.61    0.17
   6   7   8    0.40    0.14
  -5   8   8    0.46    0.17
  -5   8   8    0.58    0.16
  -5   8   8    0.40    0.15
  -4   8   8    1.96    0.26
  -4   8   8    2.33    0.27
  -4   8   8    2.33    0.27
   3  -8  -8   11.74    0.44
  -3   8   8   10.43    0.48
  -3   8   8   10.49    0.50
  -3   8   8   10.10    0.47
   2  -8  -8    5.46    0.28
  -2   8   8    5.55    0.31
  -2   8   8    4.84    0.30
  -2   8   8    5.24    0.32
   1  -8  -8    6.77    0.32
  -1   8   8    6.36    0.33
  -1   8   8    6.42    0.32
  -1   8   8    6.35    0.33
   0  -8  -8    2.40    0.20
   0   8   8    2.41    0.18
   0   8   8    2.23    0.14
   0   8   8    2.40    0.20
   0   8   8    2.54    0.18
  -1  -8  -8    9.84    0.38
  -1  -8  -8    9.27    0.42
   1   8   8    9.91    0.38
   1   8   8    9.39    0.36
   1   8   8   10.20    0.43
  -2  -8  -8    2.96    0.22
  -2  -8  -8    1.75    0.21
   2   8   8    2.08    0.22
   2   8   8    2.55    0.20
  -3  -8  -8    4.56    0.29
  -3  -8  -8    3.56    0.28
   3   8   8    4.04    0.28
   3   8   8    4.72    0.29
  -4  -8  -8    7.49    0.41
  -4  -8  -8    7.55    0.43
   4   8   8    7.51    0.39
   4   8   8    7.46    0.42
   4   8   8    7.34    0.41
  -5  -8  -8    7.45    0.44
  -5  -8  -8    7.38    0.44
   5   8   8    6.94    0.39
   5   8   8    6.61    0.42
   5   8   8    7.05    0.44
  -6  -8  -8    0.01    0.12
  -6  -8  -8    0.02    0.11
   6   8   8   -0.10    0.10
   6   8   8   -0.08    0.10
  -5   9   8    1.50    0.26
  -5   9   8    1.49    0.24
  -5   9   8    1.65    0.26
  -4   9   8   -0.05    0.10
  -4   9   8    0.06    0.10
  -4   9   8    0.04    0.10
   3  -9  -8    2.52    0.21
  -3   9   8    2.22    0.27
  -3   9   8    3.03    0.31
  -3   9   8    2.46    0.27
   2  -9  -8   24.54    0.77
  -2   9   8   23.18    0.79
  -2   9   8   23.80    0.82
  -2   9   8   24.36    0.82
   1  -9  -8    2.72    0.22
  -1   9   8    2.97    0.23
  -1   9   8    2.91    0.24
  -1   9   8    3.14    0.25
   0  -9  -8    0.52    0.12
   0   9   8    0.86    0.16
   0   9   8    0.50    0.12
   0   9   8    0.70    0.13
  -1  -9  -8    0.51    0.13
  -1  -9  -8    0.52    0.11
   1   9   8    0.48    0.10
   1   9   8    0.47    0.13
  -2  -9  -8    1.96    0.24
  -2  -9  -8    2.17    0.22
   2   9   8    1.84    0.21
   2   9   8    2.10    0.22
  -3  -9  -8    5.09    0.35
  -3  -9  -8    5.45    0.34
   3   9   8    6.17    0.36
   3   9   8    6.09    0.34
  -4  -9  -8    5.29    0.35
  -4  -9  -8    4.94    0.36
   4   9   8    5.46    0.34
   4   9   8    4.70    0.34
  -5  -9  -8    4.07    0.35
  -5  -9  -8    3.28    0.34
   5   9   8    3.86    0.33
   5   9   8    4.41    0.32
   5   9   8    3.83    0.38
  -6  -9  -8    0.12    0.13
  -6  -9  -8    0.11    0.16
   6   9   8    0.16    0.13
   6   9   8    0.22    0.13
  -4  10   8    1.22    0.23
  -4  10   8    0.98    0.19
  -4  10   8    1.05    0.21
  -3  10   8    0.32    0.14
  -3  10   8    0.35    0.13
  -3  10   8    0.40    0.14
   2 -10  -8    5.58    0.31
  -2  10   8    5.37    0.35
  -2  10   8    5.64    0.35
  -2  10   8    5.19    0.33
   1 -10  -8    1.76    0.20
  -1  10   8    1.73    0.21
  -1  10   8    1.56    0.21
  -1  10   8    2.42    0.26
   0 -10  -8    1.64    0.20
   0  10   8    1.66    0.20
   0  10   8    1.35    0.19
   0  10   8    1.39    0.19
  -1 -10  -8    3.22    0.25
   1  10   8    2.82    0.24
  -2 -10  -8    3.67    0.26
  -2 -10  -8    3.35    0.28
   2  10   8    3.89    0.28
   2  10   8    3.23    0.25
  -3 -10  -8   -0.04    0.11
  -3 -10  -8   -0.03    0.08
   3  10   8   -0.04    0.08
   3  10   8    0.16    0.11
  -4 -10  -8    0.20    0.12
  -4 -10  -8    0.14    0.13
   4  10   8    0.07    0.11
   4  10   8    0.08    0.11
  -5 -10  -8   -0.04    0.12
  -5 -10  -8   -0.03    0.10
   5  10   8   -0.05    0.10
   5  10   8    0.05    0.13
  -4  11   8    0.00    0.09
  -4  11   8    0.06    0.12
  -3  11   8    3.10    0.34
  -3  11   8    2.90    0.32
  -3  11   8    3.54    0.30
  -2  11   8    2.71    0.30
  -2  11   8    2.68    0.30
  -2  11   8    3.42    0.32
   1 -11  -8    1.09    0.17
  -1  11   8    0.99    0.19
  -1  11   8    1.49    0.21
  -1  11   8    1.03    0.19
   0 -11  -8    0.09    0.09
   0  11   8    0.00    0.09
   0  11   8    0.10    0.10
  -1 -11  -8    0.02    0.09
   1  11   8    0.05    0.09
  -2 -11  -8    0.01    0.08
  -2 -11  -8   -0.17    0.08
   2  11   8   -0.07    0.07
  -3 -11  -8    1.49    0.25
  -3 -11  -8    1.63    0.23
   3  11   8    1.45    0.22
   3  11   8    1.55    0.22
  -4 -11  -8    0.87    0.22
  -4 -11  -8    0.70    0.18
   4  11   8    0.48    0.16
   4  11   8    0.51    0.16
  -3  12   8   -0.10    0.11
  -3  12   8    0.17    0.12
  -2  12   8    3.05    0.33
  -2  12   8    3.40    0.33
  -2  12   8    4.00    0.32
  -1  12   8    0.12    0.10
  -1  12   8    0.11    0.12
  -1  12   8    0.01    0.09
   0 -12  -8    0.25    0.12
   0  12   8    0.36    0.13
   0  12   8    0.17    0.10
  -1 -12  -8    0.00    0.10
   1  12   8    0.10    0.10
  -2 -12  -8    0.58    0.18
   2  12   8    1.02    0.19
  -3 -12  -8    0.28    0.16
  -3 -12  -8    0.26    0.13
   3  12   8    0.29    0.14
  -4 -12  -8   -0.05    0.09
  -4 -12  -8   -0.02    0.12
   4  12   8   -0.02    0.10
   4  12   8    0.06    0.10
  -1  13   8    0.12    0.12
  -1  13   8    0.32    0.14
  -1  13   8    0.47    0.16
   0  13   8   -0.16    0.08
   0  13   8    0.01    0.09
  -1 -13  -8    0.10    0.11
   1  13   8    0.03    0.10
  -2 -13  -8    0.03    0.13
   2  13   8    0.13    0.11
   2  10  -9    0.19    0.12
  -2 -10   9    0.16    0.12
   1  10  -9    3.29    0.33
  -1 -10   9    3.42    0.29
   0  10  -9    0.26    0.13
   0 -10   9    0.23    0.12
  -1  10  -9    0.61    0.17
   1 -10   9    0.64    0.16
   3   9  -9    1.16    0.22
   3   9  -9    0.75    0.18
  -3  -9   9    0.74    0.18
  -3  -9   9    0.69    0.17
   2   9  -9    0.09    0.09
  -2  -9   9    0.01    0.09
   1   9  -9    1.23    0.20
  -1  -9   9    1.54    0.22
   0   9  -9    0.74    0.17
   0  -9   9    0.37    0.13
  -1   9  -9    0.06    0.09
   1  -9   9    0.05    0.08
   1  -9   9    0.08    0.09
  -2   9  -9    0.72    0.18
  -2   9  -9    0.92    0.19
   2  -9   9    0.66    0.14
   2  -9   9    0.66    0.15
  -3   9  -9    0.99    0.20
  -3   9  -9    1.00    0.22
   3  -9   9    1.25    0.19
   4   8  -9   -0.08    0.12
   4   8  -9    0.12    0.11
  -4  -8   9   -0.17    0.07
  -4  -8   9   -0.09    0.11
   3   8  -9    0.42    0.13
   3   8  -9    0.31    0.14
  -3  -8   9    0.41    0.13
  -3  -8   9    0.18    0.12
   2   8  -9    0.04    0.09
   2   8  -9    0.06    0.10
  -2  -8   9    0.07    0.08
   1   8  -9    5.54    0.34
  -1  -8   9    5.78    0.34
   0   8  -9   -0.01    0.07
   0  -8   9    0.11    0.08
  -1   8  -9    2.85    0.29
   1  -8   9    2.70    0.23
   1  -8   9    3.54    0.26
  -2   8  -9    1.09    0.20
  -2   8  -9    1.10    0.20
  -2   8  -9    0.77    0.19
   2  -8   9    1.16    0.17
   2  -8   9    1.22    0.17
  -3   8  -9    0.56    0.16
  -3   8  -9    0.30    0.14
  -3   8  -9    0.29    0.13
   3  -8   9    0.40    0.12
  -4   8  -9    0.36    0.14
  -4   8  -9    0.32    0.16
   4  -8   9    0.45    0.13
   5   7  -9    1.29    0.24
   5   7  -9    0.76    0.17
  -5  -7   9    1.20    0.22
  -5  -7   9    1.12    0.24
   4   7  -9    4.57    0.31
   4   7  -9    4.40    0.34
  -4  -7   9    4.61    0.35
  -4  -7   9    4.50    0.33
   3   7  -9    0.44    0.14
   3   7  -9    0.38    0.12
  -3  -7   9    0.37    0.12
  -3  -7   9    0.37    0.14
   2   7  -9    0.59    0.15
   2   7  -9    0.84    0.16
  -2  -7   9    0.70    0.15
  -2  -7   9    0.84    0.16
   1   7  -9    7.12    0.38
  -1  -7   9    6.71    0.36
   0   7  -9    0.18    0.09
   0  -7   9    0.25    0.09
   0  -7   9    0.10    0.08
  -1   7  -9    0.74    0.15
  -1   7  -9    0.87    0.16
   1  -7   9    0.86    0.15
   1  -7   9    0.70    0.13
  -2   7  -9    0.05    0.08
  -2   7  -9    0.14    0.10
  -2   7  -9    0.24    0.13
   2  -7   9    0.10    0.09
   2  -7   9    0.13    0.08
  -3   7  -9    2.79    0.31
  -3   7  -9    3.58    0.30
  -3   7  -9    3.20    0.27
   3  -7   9    3.17    0.23
   3  -7   9    3.27    0.23
  -4   7  -9    0.12    0.10
  -4   7  -9    0.18    0.13
  -4   7  -9    0.09    0.11
   4  -7   9    0.07    0.09
   5   6  -9    0.25    0.12
   5   6  -9    0.22    0.14
  -5  -6   9    0.12    0.10
  -5  -6   9    0.26    0.14
   4   6  -9    2.01    0.23
   4   6  -9    1.51    0.23
  -4  -6   9    1.79    0.24
  -4  -6   9    1.63    0.24
   3   6  -9   -0.01    0.10
   3   6  -9   -0.03    0.08
  -3  -6   9   -0.04    0.06
  -3  -6   9    0.03    0.09
   2   6  -9    2.46    0.24
   2   6  -9    2.22    0.24
  -2  -6   9    1.92    0.22
  -2  -6   9    2.22    0.24
   1   6  -9    1.26    0.16
   1   6  -9    1.11    0.16
  -1  -6   9    0.98    0.14
  -1  -6   9    1.07    0.16
   0   6  -9   -0.02    0.06
   0  -6   9    0.09    0.07
   0  -6   9   -0.03    0.06
  -1   6  -9    2.93    0.29
  -1   6  -9    2.84    0.22
  -1   6  -9    2.85    0.22
   1  -6   9    3.01    0.22
   1  -6   9    2.89    0.21
  -2   6  -9    0.09    0.09
  -2   6  -9    0.02    0.06
  -2   6  -9    0.07    0.09
   2  -6   9    0.05    0.06
   2  -6   9    0.05    0.06
  -3   6  -9    0.52    0.15
  -3   6  -9    0.64    0.15
  -3   6  -9    0.68    0.14
   3  -6   9    0.92    0.15
   3  -6   9    0.57    0.11
  -4   6  -9    0.08    0.10
  -4   6  -9    0.21    0.10
  -4   6  -9    0.33    0.14
   4  -6   9    0.12    0.08
   4  -6   9    0.27    0.10
  -5   6  -9    0.07    0.10
  -5   6  -9   -0.07    0.10
  -5   6  -9    0.18    0.12
   5  -6   9   -0.04    0.10
   5  -6   9    0.02    0.08
   6   5  -9    1.37    0.22
   6   5  -9    1.25    0.24
  -6  -5   9    0.97    0.23
  -6  -5   9    1.23    0.22
   5   5  -9    0.26    0.11
   5   5  -9    0.26    0.14
  -5  -5   9    0.25    0.11
  -5  -5   9    0.26    0.14
   4   5  -9    0.21    0.13
   4   5  -9    0.38    0.12
  -4  -5   9    0.08    0.10
  -4  -5   9    0.22    0.10
   3   5  -9    7.55    0.40
   3   5  -9    7.20    0.37
  -3  -5   9    8.50    0.42
  -3  -5   9    7.58    0.38
   2   5  -9    8.67    0.39
   2   5  -9    7.88    0.38
  -2  -5   9    8.23    0.38
  -2  -5   9    8.68    0.40
   1   5  -9   23.16    0.71
  -1  -5   9   21.19    0.68
  -1  -5   9   20.67    0.68
  -1  -5   9   20.47    0.71
   0   5  -9   -0.04    0.07
   0   5  -9   -0.02    0.05
   0   5  -9    0.02    0.05
   0   5  -9    0.08    0.06
   0  -5   9   -0.04    0.04
   0  -5   9    0.08    0.06
  -1   5  -9    7.47    0.35
  -1   5  -9    7.59    0.41
  -1   5  -9    7.45    0.35
   1  -5   9    7.56    0.33
   1  -5   9    7.13    0.34
  -2   5  -9    8.44    0.38
  -2   5  -9    8.27    0.43
  -2   5  -9    8.43    0.41
   2  -5   9    8.23    0.36
   2  -5   9    8.01    0.36
  -3   5  -9    1.55    0.21
  -3   5  -9    1.61    0.22
  -3   5  -9    1.83    0.21
   3  -5   9    1.63    0.18
   3  -5   9    1.66    0.18
  -4   5  -9    5.07    0.34
  -4   5  -9    5.30    0.33
  -4   5  -9    5.97    0.39
   4  -5   9    5.20    0.30
   4  -5   9    5.62    0.37
   4  -5   9    5.36    0.30
  -5   5  -9    0.90    0.20
  -5   5  -9    1.15    0.19
  -5   5  -9    0.58    0.14
   5  -5   9    0.90    0.15
   5  -5   9    1.05    0.21
   5  -5   9    0.86    0.15
   6   4  -9    0.60    0.17
   6   4  -9    0.61    0.18
  -6  -4   9    0.45    0.17
  -6  -4   9    0.57    0.16
   5   4  -9    0.18    0.10
   5   4  -9    0.20    0.12
  -5  -4   9    0.34    0.11
  -5  -4   9    0.28    0.14
   4   4  -9   11.09    0.51
   4   4  -9   10.72    0.47
  -4  -4   9   11.46    0.48
  -4  -4   9   10.53    0.51
   3   4  -9    9.40    0.42
   3   4  -9    9.16    0.43
  -3  -4   9    9.16    0.41
  -3  -4   9    9.10    0.43
   2   4  -9    1.69    0.19
   2   4  -9    1.15    0.16
  -2  -4   9    1.44    0.17
  -2  -4   9    1.55    0.18
   1   4  -9    0.76    0.13
   1   4  -9    0.71    0.11
  -1  -4   9    0.78    0.12
  -1  -4   9    0.57    0.10
  -1  -4   9    1.00    0.13
   0   4  -9    0.08    0.07
   0   4  -9    0.05    0.06
   0   4  -9    0.09    0.06
   0   4  -9    0.08    0.06
   0  -4   9    0.06    0.06
   0  -4   9    0.15    0.06
   0  -4   9   -0.01    0.04
  -1   4  -9   15.20    0.60
  -1   4  -9   15.19    0.45
  -1   4  -9   16.75    0.55
  -1   4  -9   15.63    0.54
   1  -4   9   14.91    0.53
   1  -4   9   16.57    0.53
  -2   4  -9   -0.10    0.06
  -2   4  -9   -0.01    0.07
  -2   4  -9    0.00    0.05
   2  -4   9   -0.09    0.07
   2  -4   9    0.00    0.04
   2  -4   9    0.01    0.05
  -3   4  -9    1.78    0.20
  -3   4  -9    1.16    0.19
  -3   4  -9    1.38    0.19
   3  -4   9    1.41    0.17
   3  -4   9    1.44    0.20
   3  -4   9    1.33    0.16
  -4   4  -9    0.00    0.10
  -4   4  -9    0.10    0.09
  -4   4  -9    0.08    0.08
   4  -4   9    0.07    0.07
   4  -4   9   -0.05    0.09
   4  -4   9    0.12    0.08
  -5   4  -9    0.38    0.12
  -5   4  -9    0.22    0.10
  -5   4  -9    0.39    0.15
   5  -4   9    0.27    0.09
   5  -4   9    0.48    0.12
   5  -4   9    0.22    0.13
  -6   4  -9    0.28    0.15
  -6   4  -9    0.01    0.09
   6  -4   9    0.07    0.13
   6  -4   9   -0.05    0.08
   6   3  -9    0.46    0.15
   6   3  -9    0.35    0.15
  -6  -3   9    0.21    0.13
  -6  -3   9    0.20    0.11
   5   3  -9    0.10    0.11
   5   3  -9    0.13    0.09
  -5  -3   9    0.05    0.10
  -5  -3   9    0.12    0.09
   4   3  -9    9.23    0.43
   4   3  -9    8.66    0.44
  -4  -3   9    8.45    0.44
  -4  -3   9    9.46    0.41
   3   3  -9   12.28    0.48
   3   3  -9   11.81    0.49
  -3  -3   9   12.38    0.47
  -3  -3   9   12.58    0.51
   2   3  -9    6.97    0.32
   2   3  -9    6.63    0.32
  -2  -3   9    6.15    0.29
  -2  -3   9    6.76    0.33
   1   3  -9    1.57    0.17
   1   3  -9    1.97    0.16
  -1  -3   9    1.29    0.15
  -1  -3   9    1.47    0.16
  -1  -3   9    1.66    0.14
   0   3  -9    6.96    0.35
   0   3  -9    6.69    0.27
   0   3  -9    6.62    0.27
   0   3  -9    7.16    0.31
   0  -3   9    7.30    0.28
   0  -3   9    7.30    0.30
   0  -3   9    6.48    0.30
  -1   3  -9    0.10    0.07
  -1   3  -9    0.10    0.05
  -1   3  -9    0.13    0.06
  -1   3  -9    0.13    0.08
   1  -3   9    0.12    0.06
   1  -3   9    0.21    0.07
   1  -3   9    0.13    0.06
  -2   3  -9    6.62    0.30
  -2   3  -9    6.57    0.33
  -2   3  -9    6.20    0.33
   2  -3   9    6.20    0.28
   2  -3   9    6.45    0.30
   2  -3   9    6.66    0.32
  -3   3  -9    1.16    0.15
  -3   3  -9    1.11    0.16
  -3   3  -9    0.86    0.16
   3  -3   9    0.77    0.13
   3  -3   9    1.17    0.15
   3  -3   9    0.84    0.15
  -4   3  -9    0.58    0.13
  -4   3  -9    0.66    0.13
  -4   3  -9    0.59    0.16
   4  -3   9    0.38    0.14
   4  -3   9    0.55    0.12
   4  -3   9    0.72    0.12
  -5   3  -9    0.89    0.15
  -5   3  -9    0.81    0.18
  -5   3  -9    1.02    0.16
   5  -3   9    0.72    0.18
   5  -3   9    0.72    0.13
   5  -3   9    0.69    0.14
  -6   3  -9    0.84    0.15
  -6   3  -9    0.90    0.21
   6  -3   9    0.65    0.14
   6  -3   9    0.79    0.15
   6  -3   9    0.75    0.19
   6   2  -9    2.06    0.27
  -6  -2   9    2.27    0.29
   5   2  -9    1.27    0.21
   5   2  -9    1.16    0.18
  -5  -2   9    1.45    0.19
  -5  -2   9    1.12    0.20
   4   2  -9    4.83    0.31
   4   2  -9    4.47    0.29
  -4  -2   9    5.20    0.32
  -4  -2   9    4.41    0.27
   3   2  -9    2.99    0.22
   3   2  -9    2.62    0.25
  -3  -2   9    2.62    0.22
  -3  -2   9    2.84    0.20
   2   2  -9    0.45    0.10
   2   2  -9    0.76    0.12
  -2  -2   9    0.63    0.10
  -2  -2   9    0.61    0.11
   1   2  -9    5.00    0.24
   1   2  -9    4.26    0.23
  -1  -2   9    4.76    0.17
  -1  -2   9    5.60    0.24
  -1  -2   9    4.49    0.24
   0   2  -9    2.69    0.15
   0   2  -9    2.51    0.16
   0  -2   9    2.87    0.17
   0  -2   9    2.82    0.15
   0  -2   9    2.60    0.17
  -1   2  -9   49.19    1.25
  -1   2  -9   50.09    1.28
  -1   2  -9   48.52    1.23
   1  -2   9   48.49    1.29
   1  -2   9   48.20    1.24
  -2   2  -9   23.74    0.68
  -2   2  -9   22.35    0.63
  -2   2  -9   23.82    0.74
   2  -2   9   23.25    0.71
   2  -2   9   24.57    0.74
   2  -2   9   23.34    0.69
  -3   2  -9    0.69    0.14
  -3   2  -9    0.62    0.11
   3  -2   9    0.67    0.14
   3  -2   9    0.67    0.11
   3  -2   9    0.79    0.12
  -4   2  -9    2.31    0.18
  -4   2  -9    2.50    0.27
   4  -2   9    2.61    0.20
   4  -2   9    2.54    0.27
   4  -2   9    2.39    0.20
  -5   2  -9    4.52    0.34
  -5   2  -9    3.95    0.26
   5  -2   9    4.45    0.28
   5  -2   9    4.30    0.28
   5  -2   9    4.63    0.34
  -6   2  -9    0.13    0.13
  -6   2  -9   -0.01    0.07
   6  -2   9    0.27    0.10
   6  -2   9    0.02    0.09
   6  -2   9    0.02    0.11
   6   1  -9    1.48    0.23
  -6  -1   9    1.73    0.25
  -6  -1   9    1.60    0.23
   5   1  -9    0.23    0.12
  -5  -1   9    0.27    0.11
  -5  -1   9    0.16    0.10
  -5  -1   9    0.25    0.10
   4   1  -9    1.85    0.21
  -4  -1   9    1.90    0.21
  -4  -1   9    1.37    0.19
  -4  -1   9    1.48    0.16
   3   1  -9    0.14    0.08
  -3  -1   9    0.04    0.06
  -3  -1   9    0.11    0.06
  -3  -1   9    0.04    0.06
   2   1  -9    3.62    0.21
   2   1  -9    3.15    0.20
  -2  -1   9    3.01    0.17
  -2  -1   9    2.86    0.18
   1   1  -9    5.57    0.26
   1   1  -9    5.53    0.26
  -1  -1   9    6.27    0.24
  -1  -1   9    5.66    0.26
  -1  -1   9    5.76    0.19
   0   1  -9    7.35    0.27
   0   1  -9    7.04    0.28
   0  -1   9    6.73    0.28
   0  -1   9    6.74    0.25
   0  -1   9    7.18    0.27
  -1   1  -9   30.16    0.82
  -1   1  -9   30.62    0.81
   1  -1   9   30.09    0.85
   1  -1   9   31.33    0.83
  -2   1  -9    0.41    0.07
  -2   1  -9    0.45    0.08
  -2   1  -9    0.48    0.11
   2  -1   9    0.35    0.08
   2  -1   9    0.54    0.09
   2  -1   9    0.45    0.10
  -3   1  -9    2.90    0.18
  -3   1  -9    3.07    0.16
  -3   1  -9    2.65    0.21
   3  -1   9    3.01    0.20
   3  -1   9    2.66    0.21
   3  -1   9    2.85    0.19
  -4   1  -9    7.09    0.31
  -4   1  -9    7.23    0.39
   4  -1   9    7.25    0.35
   4  -1   9    7.08    0.34
   4  -1   9    7.07    0.38
  -5   1  -9    7.26    0.42
   5  -1   9    6.77    0.41
   5  -1   9    7.40    0.37
   5  -1   9    7.24    0.37
  -6   1  -9    2.90    0.22
  -6   1  -9    3.40    0.36
   6  -1   9    3.17    0.35
   6  -1   9    2.92    0.28
   6  -1   9    2.97    0.29
   7   0  -9   -0.06    0.11
  -7   0   9    0.02    0.11
  -7   0   9    0.12    0.11
   6   0  -9    0.03    0.11
  -6   0   9    0.06    0.11
  -6   0   9    0.04    0.10
  -6   0   9   -0.04    0.08
   5   0  -9    2.45    0.26
  -5   0   9    2.93    0.25
  -5   0   9    2.31    0.25
  -5   0   9    2.50    0.26
   4   0  -9    0.23    0.10
  -4   0   9    0.20    0.07
  -4   0   9    0.22    0.09
  -4   0   9    0.13    0.08
  -4   0   9    0.25    0.10
   3   0  -9    2.31    0.19
  -3   0   9    2.33    0.22
  -3   0   9    2.43    0.16
  -3   0   9    1.94    0.20
  -2   0   9    0.20    0.08
  -2   0   9    0.36    0.07
  -2   0   9    0.35    0.04
  -2   0   9    0.29    0.06
   1   0  -9    5.21    0.24
   1   0  -9    5.26    0.24
  -1   0   9    4.69    0.20
  -1   0   9    4.88    0.23
  -1   0   9    4.83    0.17
  -1   0   9    5.00    0.22
   0   0  -9   15.87    0.49
   0   0  -9   16.11    0.49
   0   0   9   15.75    0.47
   0   0   9   16.48    0.47
   0   0   9   16.79    0.51
  -1   0  -9    2.68    0.14
   1   0   9    2.73    0.16
   1   0   9    2.74    0.16
   1   0   9    2.57    0.16
  -2   0  -9    4.77    0.21
  -2   0  -9    4.42    0.19
   2   0   9    4.59    0.23
   2   0   9    3.98    0.21
   2   0   9    4.45    0.24
  -3   0  -9   10.46    0.35
  -3   0  -9    9.80    0.36
   3   0   9   10.33    0.40
   3   0   9   11.20    0.45
   3   0   9   10.64    0.42
  -4   0  -9   -0.05    0.06
  -4   0  -9    0.01    0.07
  -4   0  -9    0.02    0.06
   4   0   9    0.07    0.06
   4   0   9    0.02    0.07
   4   0   9   -0.02    0.06
  -5   0  -9    0.07    0.09
  -5   0  -9   -0.04    0.07
   5   0   9    0.11    0.08
   5   0   9    0.07    0.09
   5   0   9    0.06    0.08
  -6   0  -9    5.43    0.34
   6   0   9    5.06    0.32
   6   0   9    5.16    0.34
   6   0   9    5.44    0.38
  -7   0  -9    2.04    0.26
  -7   0  -9    1.98    0.20
   7   0   9    1.99    0.25
   7   0   9    1.87    0.28
  -7   1   9    0.12    0.12
   6  -1  -9    0.65    0.16
  -6   1   9    0.56    0.15
  -6   1   9    0.31    0.14
  -6   1   9    0.68    0.17
   5  -1  -9    0.15    0.11
  -5   1   9    0.21    0.12
  -5   1   9    0.31    0.11
  -5   1   9    0.19    0.11
   4  -1  -9    0.22    0.10
  -4   1   9    0.21    0.10
  -4   1   9    0.22    0.10
   3  -1  -9   10.69    0.43
  -3   1   9   10.89    0.36
  -3   1   9   11.04    0.44
  -3   1   9   11.82    0.45
   2  -1  -9   18.26    0.59
  -2   1   9   18.91    0.52
  -2   1   9   19.03    0.59
  -2   1   9   18.91    0.50
  -2   1   9   18.78    0.60
  -2   1   9   18.70    0.56
   1  -1  -9    9.02    0.34
  -1   1   9    9.26    0.34
  -1   1   9    9.26    0.32
  -1   1   9    8.98    0.29
  -1   1   9    8.89    0.28
   0  -1  -9    0.38    0.07
   0  -1  -9    0.18    0.05
   0   1   9    0.22    0.05
   0   1   9    0.26    0.06
   0   1   9    0.27    0.05
   0   1   9    0.18    0.05
  -1  -1  -9    5.37    0.21
  -1  -1  -9    5.30    0.23
   1   1   9    5.55    0.24
   1   1   9    5.52    0.24
   1   1   9    5.38    0.23
  -2  -1  -9    0.82    0.08
  -2  -1  -9    0.69    0.10
  -2  -1  -9    0.75    0.05
   2   1   9    0.51    0.09
   2   1   9    0.59    0.09
   2   1   9    0.49    0.10
  -3  -1  -9    5.55    0.25
  -3  -1  -9    5.31    0.21
  -3  -1  -9    5.09    0.27
   3   1   9    5.73    0.27
   3   1   9    5.10    0.29
   3   1   9    5.53    0.28
  -4  -1  -9   13.11    0.53
  -4  -1  -9   15.48    0.52
   4   1   9   13.58    0.55
   4   1   9   14.80    0.54
   4   1   9   15.18    0.55
  -5  -1  -9    7.64    0.40
  -5  -1  -9    7.95    0.37
   5   1   9    7.54    0.42
   5   1   9    7.80    0.40
   5   1   9    8.64    0.41
  -6  -1  -9    3.07    0.30
   6   1   9    3.85    0.31
   6   1   9    3.27    0.27
   6   1   9    3.39    0.27
  -7  -1  -9    1.32    0.22
   7   1   9    1.41    0.22
   7   1   9    2.00    0.29
   7  -2  -9    0.12    0.13
  -7   2   9   -0.10    0.10
   6  -2  -9    0.68    0.16
  -6   2   9    1.14    0.20
  -6   2   9    1.02    0.20
   5  -2  -9    0.07    0.10
  -5   2   9    0.33    0.13
  -5   2   9    0.13    0.09
   4  -2  -9    0.32    0.11
  -4   2   9    0.09    0.09
  -4   2   9    0.29    0.11
   3  -2  -9    1.54    0.17
  -3   2   9    1.66    0.12
  -3   2   9    1.49    0.18
  -3   2   9    1.64    0.11
  -3   2   9    1.77    0.19
   2  -2  -9    3.65    0.21
  -2   2   9    3.98    0.17
  -2   2   9    3.81    0.16
  -2   2   9    3.82    0.19
  -2   2   9    4.21    0.24
  -2   2   9    4.17    0.24
   1  -2  -9    0.96    0.12
  -1   2   9    0.97    0.12
  -1   2   9    0.93    0.12
  -1   2   9    1.02    0.08
  -1   2   9    1.10    0.09
  -1   2   9    0.95    0.09
   0  -2  -9   10.40    0.37
   0   2   9   10.48    0.32
   0   2   9   10.56    0.34
   0   2   9   10.61    0.35
  -1  -2  -9    0.04    0.03
  -1  -2  -9    0.02    0.04
   1   2   9    0.06    0.04
   1   2   9    0.00    0.04
   1   2   9    0.07    0.04
   1   2   9   -0.02    0.03
  -2  -2  -9    1.81    0.15
  -2  -2  -9    1.46    0.09
  -2  -2  -9    1.55    0.15
   2   2   9    1.55    0.15
   2   2   9    1.56    0.13
   2   2   9    1.66    0.14
  -3  -2  -9    0.03    0.07
  -3  -2  -9    0.20    0.07
   3   2   9    0.22    0.08
   3   2   9    0.09    0.07
   3   2   9    0.11    0.06
  -4  -2  -9    0.36    0.10
  -4  -2  -9    0.51    0.12
   4   2   9    0.38    0.12
   4   2   9    0.60    0.12
   4   2   9    0.53    0.12
  -5  -2  -9    0.00    0.06
  -5  -2  -9    0.06    0.09
   5   2   9    0.06    0.09
   5   2   9    0.08    0.08
   5   2   9    0.24    0.12
  -6  -2  -9    1.52    0.22
   6   2   9    2.14    0.25
   6   2   9    2.26    0.28
   6   2   9    2.33    0.27
  -7  -2  -9    0.09    0.10
   7   2   9   -0.05    0.09
   7   2   9   -0.13    0.10
   6  -3  -9    0.15    0.10
  -6   3   9    0.07    0.10
  -6   3   9    0.12    0.11
   5  -3  -9    0.41    0.13
  -5   3   9    0.33    0.13
  -5   3   9    0.50    0.13
   4  -3  -9    0.28    0.10
  -4   3   9    0.12    0.09
  -4   3   9    0.21    0.08
  -4   3   9    0.09    0.10
   3  -3  -9    1.63    0.17
  -3   3   9    2.28    0.21
  -3   3   9    1.92    0.14
  -3   3   9    1.83    0.20
   2  -3  -9    0.09    0.06
  -2   3   9    0.19    0.08
  -2   3   9    0.20    0.06
  -2   3   9    0.12    0.07
  -2   3   9    0.23    0.05
  -2   3   9    0.18    0.04
   1  -3  -9    1.93    0.15
  -1   3   9    1.86    0.09
  -1   3   9    1.94    0.15
  -1   3   9    1.94    0.15
  -1   3   9    2.04    0.12
   0  -3  -9    0.10    0.06
   0   3   9    0.06    0.05
   0   3   9    0.07    0.05
   0   3   9    0.08    0.04
   0   3   9    0.06    0.04
   0   3   9    0.14    0.05
  -1  -3  -9   13.26    0.38
  -1  -3  -9   13.70    0.43
  -1  -3  -9   13.44    0.46
   1   3   9   13.02    0.44
   1   3   9   13.91    0.37
   1   3   9   13.95    0.46
   1   3   9   13.60    0.43
  -2  -3  -9    2.20    0.16
  -2  -3  -9    2.28    0.17
   2   3   9    2.36    0.17
   2   3   9    2.31    0.17
   2   3   9    2.18    0.16
  -3  -3  -9    0.57    0.11
  -3  -3  -9    0.56    0.11
   3   3   9    0.71    0.13
   3   3   9    0.75    0.12
   3   3   9    0.52    0.11
  -4  -3  -9    0.52    0.12
  -4  -3  -9    0.62    0.13
   4   3   9    0.52    0.13
   4   3   9    0.46    0.11
   4   3   9    0.37    0.11
  -5  -3  -9    5.37    0.33
  -5  -3  -9    5.39    0.34
   5   3   9    5.39    0.34
   5   3   9    4.83    0.32
   5   3   9    5.16    0.33
  -6  -3  -9    1.77    0.24
  -6  -3  -9    1.42    0.21
   6   3   9    1.54    0.23
   6   3   9    1.87    0.25
   6   3   9    1.54    0.24
  -7  -3  -9    0.30    0.13
   7   3   9    0.33    0.15
   7   3   9    0.50    0.16
   6  -4  -9    0.17    0.11
  -6   4   9    0.11    0.11
  -6   4   9    0.18    0.12
   5  -4  -9    0.09    0.10
  -5   4   9    0.07    0.10
  -5   4   9    0.22    0.12
   4  -4  -9    0.07    0.07
  -4   4   9   -0.09    0.07
  -4   4   9    0.05    0.07
  -4   4   9   -0.01    0.07
   3  -4  -9    0.02    0.06
  -3   4   9    0.05    0.05
  -3   4   9   -0.07    0.06
  -3   4   9    0.08    0.07
   2  -4  -9    1.65    0.14
  -2   4   9    1.69    0.18
  -2   4   9    1.08    0.15
  -2   4   9    1.51    0.10
   1  -4  -9    3.82    0.21
  -1   4   9    3.79    0.21
  -1   4   9    3.69    0.13
  -1   4   9    3.52    0.20
  -1   4   9    4.11    0.17
  -1   4   9    4.12    0.20
   0  -4  -9    1.66    0.14
   0  -4  -9    1.94    0.11
   0   4   9    1.98    0.12
   0   4   9    1.86    0.13
   0   4   9    1.80    0.13
   0   4   9    1.96    0.11
   0   4   9    1.98    0.14
  -1  -4  -9   21.00    0.61
  -1  -4  -9   21.70    0.66
   1   4   9   20.65    0.62
   1   4   9   21.78    0.64
   1   4   9   21.48    0.55
   1   4   9   20.83    0.61
  -2  -4  -9   16.23    0.56
  -2  -4  -9   16.47    0.54
   2   4   9   18.05    0.57
   2   4   9   16.16    0.55
   2   4   9   16.45    0.41
   2   4   9   16.97    0.54
  -3  -4  -9    0.59    0.12
  -3  -4  -9    0.76    0.13
   3   4   9    0.54    0.11
   3   4   9    0.58    0.12
   3   4   9    0.78    0.13
  -4  -4  -9    0.43    0.12
  -4  -4  -9    0.34    0.11
   4   4   9    0.66    0.14
   4   4   9    0.31    0.10
   4   4   9    0.42    0.11
  -5  -4  -9    4.25    0.30
  -5  -4  -9    4.17    0.30
   5   4   9    3.37    0.28
   5   4   9    4.04    0.30
   5   4   9    4.18    0.29
  -6  -4  -9    0.30    0.12
  -6  -4  -9    0.25    0.13
   6   4   9    0.48    0.13
   6   4   9    0.21    0.12
   6   4   9    0.26    0.12
  -7  -4  -9    1.08    0.23
  -7  -4  -9    0.71    0.17
   7   4   9    0.50    0.17
   7   4   9    1.13    0.22
   6  -5  -9    0.62    0.15
  -6   5   9    0.68    0.18
  -6   5   9    0.52    0.16
   5  -5  -9    0.04    0.08
  -5   5   9    0.12    0.11
  -5   5   9    0.07    0.07
  -5   5   9    0.09    0.10
   4  -5  -9    0.31    0.10
  -4   5   9    0.13    0.10
  -4   5   9    0.19    0.08
  -4   5   9    0.29    0.12
   3  -5  -9    0.61    0.12
  -3   5   9    0.61    0.13
  -3   5   9    0.47    0.12
  -3   5   9    0.74    0.12
   2  -5  -9    0.08    0.06
  -2   5   9    0.06    0.05
  -2   5   9    0.20    0.04
  -2   5   9    0.09    0.08
  -2   5   9    0.08    0.07
   1  -5  -9    0.03    0.05
  -1   5   9    0.07    0.02
  -1   5   9    0.05    0.04
  -1   5   9    0.04    0.05
  -1   5   9    0.07    0.03
  -1   5   9    0.00    0.05
   0  -5  -9    0.09    0.06
   0  -5  -9   -0.01    0.04
   0   5   9    0.17    0.06
   0   5   9    0.15    0.06
   0   5   9    0.09    0.06
   0   5   9    0.08    0.04
   0   5   9    0.05    0.04
  -1  -5  -9    8.79    0.32
  -1  -5  -9    7.61    0.34
   1   5   9    8.02    0.34
   1   5   9    8.58    0.32
   1   5   9    8.27    0.27
   1   5   9    8.49    0.28
   1   5   9    8.42    0.31
  -2  -5  -9    0.07    0.06
  -2  -5  -9    0.08    0.06
   2   5   9    0.11    0.04
   2   5   9    0.11    0.07
   2   5   9    0.07    0.05
   2   5   9    0.19    0.08
  -3  -5  -9    1.48    0.18
  -3  -5  -9    1.04    0.16
   3   5   9    1.19    0.17
   3   5   9    1.13    0.16
   3   5   9    1.19    0.16
  -4  -5  -9    0.00    0.07
  -4  -5  -9    0.18    0.09
   4   5   9   -0.03    0.07
   4   5   9    0.04    0.08
   4   5   9   -0.04    0.05
  -5  -5  -9    0.05    0.09
  -5  -5  -9    0.20    0.11
   5   5   9    0.07    0.08
   5   5   9    0.01    0.09
   5   5   9    0.08    0.09
  -6  -5  -9    0.12    0.12
  -6  -5  -9   -0.07    0.08
   6   5   9    0.01    0.10
   6   5   9   -0.01    0.08
   6   5   9   -0.06    0.09
  -7  -5  -9   -0.04    0.11
  -7  -5  -9   -0.04    0.10
   7   5   9    0.02    0.12
   7   5   9    0.01    0.12
  -6   6   9    0.44    0.16
  -6   6   9    0.94    0.20
   5  -6  -9    0.23    0.11
  -5   6   9   -0.08    0.08
  -5   6   9    0.15    0.12
  -5   6   9    0.27    0.11
   4  -6  -9   -0.03    0.07
  -4   6   9   -0.08    0.08
  -4   6   9    0.03    0.07
  -4   6   9    0.05    0.09
   3  -6  -9    0.87    0.13
  -3   6   9    0.91    0.15
  -3   6   9    0.87    0.14
  -3   6   9    1.15    0.18
   2  -6  -9    4.19    0.24
  -2   6   9    3.49    0.22
  -2   6   9    3.62    0.25
  -2   6   9    3.75    0.24
   1  -6  -9    1.87    0.16
  -1   6   9    1.75    0.10
  -1   6   9    1.93    0.16
  -1   6   9    1.86    0.18
  -1   6   9    1.62    0.17
   0  -6  -9    0.57    0.08
   0  -6  -9    0.62    0.12
   0   6   9    0.62    0.08
   0   6   9    0.51    0.09
   0   6   9    0.40    0.09
   0   6   9    0.52    0.10
   0   6   9    0.45    0.07
  -1  -6  -9    2.70    0.18
  -1  -6  -9    2.75    0.20
   1   6   9    2.64    0.17
   1   6   9    3.11    0.19
   1   6   9    2.91    0.20
   1   6   9    3.17    0.15
   1   6   9    3.01    0.16
  -2  -6  -9    0.18    0.08
  -2  -6  -9    0.13    0.07
   2   6   9    0.06    0.06
   2   6   9    0.12    0.07
   2   6   9    0.08    0.07
   2   6   9    0.14    0.05
  -3  -6  -9    5.17    0.29
  -3  -6  -9    4.96    0.30
   3   6   9    4.98    0.29
   3   6   9    5.22    0.29
   3   6   9    4.69    0.28
  -4  -6  -9    0.00    0.08
  -4  -6  -9   -0.04    0.08
   4   6   9    0.01    0.08
   4   6   9    0.07    0.09
   4   6   9    0.11    0.08
  -5  -6  -9    1.26    0.22
  -5  -6  -9    1.25    0.20
   5   6   9    0.93    0.19
   5   6   9    1.50    0.21
   5   6   9    1.34    0.21
  -6  -6  -9    0.12    0.10
   6   6   9    0.34    0.13
   6   6   9    0.55    0.16
   6   6   9    0.58    0.16
  -6   7   9    0.56    0.18
  -6   7   9    0.56    0.17
  -5   7   9    0.86    0.19
  -5   7   9    0.77    0.18
  -5   7   9    1.20    0.20
   4  -7  -9    0.37    0.11
  -4   7   9    0.34    0.12
  -4   7   9    0.54    0.16
  -4   7   9    0.28    0.12
   3  -7  -9    0.09    0.09
  -3   7   9   -0.07    0.07
  -3   7   9    0.04    0.07
  -3   7   9   -0.06    0.08
   2  -7  -9    0.97    0.14
  -2   7   9    0.90    0.15
  -2   7   9    0.73    0.13
  -2   7   9    1.09    0.16
   1  -7  -9    0.06    0.07
  -1   7   9    0.02    0.06
  -1   7   9   -0.03    0.06
  -1   7   9    0.09    0.07
   0  -7  -9    0.22    0.06
   0  -7  -9    0.27    0.09
   0   7   9    0.22    0.08
   0   7   9    0.27    0.08
   0   7   9    0.14    0.07
   0   7   9    0.24    0.06
   0   7   9    0.29    0.06
  -1  -7  -9    1.47    0.18
  -1  -7  -9    1.28    0.14
   1   7   9    1.47    0.14
   1   7   9    1.67    0.16
   1   7   9    1.31    0.14
   1   7   9    1.52    0.18
  -2  -7  -9    0.22    0.09
  -2  -7  -9    0.05    0.07
   2   7   9    0.13    0.08
   2   7   9    0.13    0.08
   2   7   9    0.16    0.08
   2   7   9    0.17    0.06
  -3  -7  -9    0.67    0.14
  -3  -7  -9    0.75    0.16
   3   7   9    1.00    0.16
   3   7   9    1.06    0.17
   3   7   9    0.98    0.16
  -4  -7  -9   -0.05    0.07
  -4  -7  -9   -0.06    0.08
   4   7   9    0.05    0.08
   4   7   9   -0.09    0.07
   4   7   9    0.12    0.10
  -5  -7  -9    0.30    0.14
  -5  -7  -9    0.41    0.15
   5   7   9    0.37    0.13
   5   7   9    0.31    0.14
   5   7   9    0.34    0.13
  -6  -7  -9    0.74    0.19
  -6  -7  -9    0.60    0.17
   6   7   9    0.63    0.17
   6   7   9    0.72    0.18
  -5   8   9    2.92    0.32
  -5   8   9    1.83    0.28
  -5   8   9    2.33    0.29
   4  -8  -9    0.88    0.16
  -4   8   9    0.53    0.15
  -4   8   9    0.31    0.13
  -4   8   9    0.65    0.17
   3  -8  -9    0.76    0.14
  -3   8   9    0.70    0.16
  -3   8   9    0.64    0.16
  -3   8   9    0.64    0.15
   2  -8  -9    0.18    0.10
  -2   8   9    0.20    0.11
  -2   8   9    0.22    0.09
  -2   8   9    0.04    0.09
   1  -8  -9    1.88    0.20
  -1   8   9    1.58    0.19
  -1   8   9    1.79    0.20
  -1   8   9    2.04    0.21
   0  -8  -9   -0.02    0.07
   0   8   9    0.05    0.07
   0   8   9   -0.02    0.06
   0   8   9    0.11    0.08
  -1  -8  -9    4.15    0.23
  -1  -8  -9    3.81    0.26
   1   8   9    3.55    0.24
   1   8   9    4.38    0.24
   1   8   9    4.21    0.23
   1   8   9    3.90    0.23
  -2  -8  -9   10.15    0.46
  -2  -8  -9    9.97    0.43
   2   8   9   10.12    0.44
   2   8   9    9.85    0.43
   2   8   9   11.35    0.45
  -3  -8  -9    0.80    0.17
  -3  -8  -9    1.36    0.19
   3   8   9    1.30    0.19
   3   8   9    1.17    0.18
   3   8   9    1.29    0.18
  -4  -8  -9    0.34    0.14
  -4  -8  -9    0.59    0.16
   4   8   9    0.44    0.14
   4   8   9    0.36    0.13
   4   8   9    0.41    0.13
  -5  -8  -9    1.48    0.24
  -5  -8  -9    1.09    0.20
   5   8   9    1.42    0.23
   5   8   9    2.16    0.27
   5   8   9    1.72    0.24
  -6  -8  -9    0.07    0.12
  -6  -8  -9    0.20    0.14
   6   8   9    0.18    0.13
   6   8   9    0.07    0.12
  -5   9   9    2.25    0.30
  -5   9   9    2.19    0.30
  -4   9   9    0.44    0.16
  -4   9   9    0.58    0.15
  -4   9   9    0.47    0.15
   3  -9  -9    2.04    0.22
  -3   9   9    1.88    0.24
  -3   9   9    1.79    0.25
  -3   9   9    1.83    0.24
   2  -9  -9    3.89    0.27
  -2   9   9    3.14    0.29
  -2   9   9    3.18    0.26
  -2   9   9    3.35    0.27
   1  -9  -9   19.97    0.70
  -1   9   9   21.17    0.70
  -1   9   9   21.26    0.73
  -1   9   9   20.66    0.71
   0  -9  -9    8.50    0.40
   0   9   9    8.71    0.38
   0   9   9    8.71    0.38
   0   9   9    8.46    0.41
  -1  -9  -9    1.28    0.16
  -1  -9  -9    1.64    0.20
   1   9   9    1.35    0.19
  -2  -9  -9   25.08    0.89
  -2  -9  -9   27.00    0.85
   2   9   9   28.25    0.89
   2   9   9   27.05    0.86
  -3  -9  -9    2.20    0.25
  -3  -9  -9    1.74    0.25
   3   9   9    1.79    0.23
   3   9   9    1.99    0.23
   3   9   9    1.86    0.24
  -4  -9  -9    3.10    0.32
  -4  -9  -9    2.77    0.33
   4   9   9    2.50    0.30
   4   9   9    3.16    0.32
   4   9   9    3.22    0.27
  -5  -9  -9    1.25    0.23
  -5  -9  -9    1.15    0.23
   5   9   9    1.12    0.21
   5   9   9    1.00    0.22
   5   9   9    1.57    0.22
  -4  10   9    0.27    0.13
  -4  10   9    0.26    0.14
  -4  10   9    0.20    0.13
  -3  10   9    0.00    0.09
  -3  10   9   -0.10    0.06
  -3  10   9    0.01    0.09
   2 -10  -9    1.55    0.20
  -2  10   9    1.38    0.21
  -2  10   9    1.14    0.20
  -2  10   9    1.53    0.22
   1 -10  -9    0.47    0.13
  -1  10   9    0.80    0.16
  -1  10   9    0.52    0.14
  -1  10   9    0.58    0.14
   0 -10  -9    5.33    0.32
   0  10   9    4.91    0.29
   0  10   9    5.62    0.33
  -1 -10  -9    0.48    0.13
   1  10   9    0.72    0.16
   1  10   9    0.72    0.14
  -2 -10  -9    0.68    0.17
  -2 -10  -9    0.87    0.15
   2  10   9    0.94    0.18
   2  10   9    0.65    0.13
  -3 -10  -9    0.37    0.14
  -3 -10  -9    0.30    0.12
   3  10   9    0.07    0.09
   3  10   9    0.22    0.11
  -4 -10  -9    2.96    0.34
  -4 -10  -9    2.20    0.28
   4  10   9    2.60    0.30
   4  10   9    2.52    0.28
   4  10   9    2.36    0.27
  -5 -10  -9    0.30    0.15
  -5 -10  -9    0.26    0.14
   5  10   9    0.24    0.15
   5  10   9    0.25    0.13
  -3  11   9    2.36    0.30
  -3  11   9    2.22    0.28
  -3  11   9    1.80    0.25
  -2  11   9    0.64    0.16
  -2  11   9    0.75    0.18
  -2  11   9    0.66    0.17
   1 -11  -9    0.47    0.13
  -1  11   9    0.48    0.14
  -1  11   9    0.36    0.12
  -1  11   9    0.27    0.12
   0 -11  -9   -0.03    0.09
   0  11   9   -0.03    0.08
   0  11   9   -0.05    0.07
  -1 -11  -9    0.09    0.10
   1  11   9    0.05    0.10
   1  11   9    0.09    0.09
  -2 -11  -9    1.38    0.22
   2  11   9    1.41    0.21
  -3 -11  -9    0.07    0.12
  -3 -11  -9    0.03    0.10
   3  11   9   -0.05    0.10
   3  11   9    0.02    0.09
  -4 -11  -9    0.24    0.13
  -4 -11  -9    0.13    0.13
   4  11   9    0.22    0.13
   4  11   9    0.27    0.13
  -3  12   9    2.56    0.32
  -2  12   9    0.25    0.14
  -2  12   9    0.27    0.13
  -2  12   9    0.40    0.15
   1 -12  -9    0.28    0.12
  -1  12   9    0.20    0.11
  -1  12   9    0.27    0.12
  -1  12   9    0.17    0.12
   0 -12  -9    0.82    0.17
   0  12   9    0.52    0.15
   0  12   9    0.73    0.16
  -1 -12  -9    1.16    0.21
   1  12   9    1.52    0.20
   1  12   9    1.27    0.21
  -2 -12  -9    1.71    0.26
   2  12   9    1.56    0.23
  -3 -12  -9    0.06    0.10
  -3 -12  -9    0.24    0.15
   3  12   9    0.19    0.12
  -1  13   9    0.24    0.13
  -1  13   9    0.16    0.12
   0 -13  -9    0.44    0.15
   0  13   9    0.18    0.12
   0  13   9    0.68    0.16
  -1 -13  -9   -0.02    0.11
   1  13   9    0.12    0.11
   1  13   9   -0.06    0.10
  -2 -13  -9    0.55    0.18
   2  13   9    0.44    0.15
   3   9 -10    0.11    0.11
   2   9 -10    0.47    0.15
  -2  -9  10    0.56    0.14
   1   9 -10    0.28    0.13
  -1  -9  10    0.45    0.13
   0   9 -10    0.17    0.11
   0  -9  10    0.15    0.11
  -1   9 -10    2.62    0.30
   1  -9  10    2.70    0.28
   1  -9  10    2.95    0.29
  -2   9 -10    0.02    0.10
   2  -9  10    0.00    0.08
   2  -9  10   -0.01    0.08
   4   8 -10    0.15    0.15
   4   8 -10    0.00    0.09
  -4  -8  10   -0.04    0.13
  -4  -8  10    0.00    0.08
   3   8 -10    0.58    0.17
   3   8 -10    0.44    0.14
  -3  -8  10    0.52    0.15
  -3  -8  10    0.43    0.15
   2   8 -10    0.10    0.10
  -2  -8  10    0.20    0.11
   1   8 -10    5.34    0.34
  -1  -8  10    5.14    0.33
   0   8 -10    0.41    0.13
   0  -8  10    0.42    0.13
  -1   8 -10    0.07    0.09
   1  -8  10    0.16    0.09
   1  -8  10    0.06    0.07
  -2   8 -10    0.08    0.10
  -2   8 -10    0.10    0.11
   2  -8  10    0.20    0.09
   2  -8  10    0.03    0.07
  -3   8 -10    0.66    0.17
  -3   8 -10    0.22    0.13
  -3   8 -10    0.57    0.18
   3  -8  10    0.35    0.12
   3  -8  10    0.71    0.15
   4   7 -10   -0.16    0.11
   4   7 -10    0.15    0.10
  -4  -7  10   -0.05    0.08
  -4  -7  10    0.03    0.12
   3   7 -10    0.56    0.14
   3   7 -10    0.37    0.14
  -3  -7  10    0.37    0.12
  -3  -7  10    0.30    0.13
   2   7 -10    0.10    0.08
   2   7 -10   -0.01    0.09
  -2  -7  10    0.08    0.09
  -2  -7  10   -0.02    0.06
   1   7 -10   -0.02    0.07
  -1  -7  10    0.09    0.08
   0   7 -10    0.79    0.16
   0  -7  10    1.05    0.17
   0  -7  10    0.79    0.15
  -1   7 -10    7.33    0.39
   1  -7  10    7.05    0.36
   1  -7  10    7.16    0.37
  -2   7 -10    1.93    0.25
  -2   7 -10    2.45    0.26
  -2   7 -10    1.99    0.27
   2  -7  10    2.34    0.23
   2  -7  10    2.14    0.23
  -3   7 -10    1.21    0.21
  -3   7 -10    1.38    0.23
  -3   7 -10    1.29    0.21
   3  -7  10    1.46    0.19
   3  -7  10    1.25    0.17
  -4   7 -10    5.58    0.41
  -4   7 -10    5.72    0.38
  -4   7 -10    5.96    0.41
   4  -7  10    5.94    0.34
   5   6 -10   -0.02    0.12
   5   6 -10    0.10    0.11
  -5  -6  10   -0.02    0.10
  -5  -6  10    0.10    0.12
   4   6 -10    0.22    0.14
   4   6 -10    0.47    0.14
  -4  -6  10    0.21    0.13
  -4  -6  10    0.31    0.11
   3   6 -10    0.12    0.11
   3   6 -10    0.02    0.08
  -3  -6  10    0.12    0.10
  -3  -6  10    0.04    0.07
   2   6 -10    0.80    0.15
   2   6 -10    0.91    0.16
  -2  -6  10    0.65    0.14
  -2  -6  10    0.59    0.14
   1   6 -10    0.24    0.10
   1   6 -10    0.28    0.10
  -1  -6  10    0.12    0.08
  -1  -6  10    0.09    0.07
   0   6 -10    0.05    0.08
   0  -6  10    0.13    0.07
   0  -6  10    0.02    0.05
  -1   6 -10    4.42    0.28
  -1   6 -10    4.19    0.27
  -1   6 -10    4.40    0.34
   1  -6  10    4.23    0.26
   1  -6  10    4.13    0.27
  -2   6 -10    3.92    0.27
  -2   6 -10    4.34    0.30
  -2   6 -10    3.48    0.29
   2  -6  10    3.72    0.24
   2  -6  10    3.71    0.25
  -3   6 -10    0.33    0.13
  -3   6 -10    0.36    0.14
  -3   6 -10    0.23    0.10
   3  -6  10    0.39    0.11
   3  -6  10    0.37    0.11
  -4   6 -10    0.24    0.13
  -4   6 -10    0.06    0.08
  -4   6 -10   -0.10    0.09
   4  -6  10   -0.01    0.07
   4  -6  10    0.00    0.08
   4  -6  10    0.00    0.10
  -5   6 -10    1.63    0.24
  -5   6 -10    1.99    0.27
  -5   6 -10    1.88    0.28
   5  -6  10    1.24    0.19
   5  -6  10    1.65    0.28
   5   5 -10    0.34    0.15
   5   5 -10    0.18    0.11
  -5  -5  10    0.27    0.12
  -5  -5  10    0.24    0.14
   4   5 -10    0.09    0.11
   4   5 -10    0.33    0.12
  -4  -5  10    0.29    0.11
  -4  -5  10    0.07    0.10
   3   5 -10    2.85    0.24
   3   5 -10    2.77    0.23
  -3  -5  10    2.62    0.28
  -3  -5  10    2.86    0.24
   2   5 -10    3.67    0.25
   2   5 -10    4.48    0.28
  -2  -5  10    3.75    0.27
  -2  -5  10    4.39    0.27
   1   5 -10    1.58    0.19
  -1  -5  10    1.61    0.19
  -1  -5  10    1.53    0.18
  -1  -5  10    1.77    0.19
   0   5 -10    0.50    0.09
   0   5 -10    0.44    0.11
   0  -5  10    0.73    0.13
   0  -5  10    0.48    0.10
  -1   5 -10    9.28    0.41
  -1   5 -10   10.11    0.47
  -1   5 -10    9.05    0.40
   1  -5  10    8.59    0.38
   1  -5  10    9.04    0.40
  -2   5 -10    0.78    0.16
  -2   5 -10    0.68    0.14
  -2   5 -10    0.62    0.14
   2  -5  10    0.69    0.15
   2  -5  10    0.60    0.12
   2  -5  10    0.70    0.13
  -3   5 -10    1.23    0.20
  -3   5 -10    1.11    0.19
  -3   5 -10    1.00    0.17
   3  -5  10    1.23    0.16
   3  -5  10    1.25    0.17
   3  -5  10    1.35    0.21
  -4   5 -10    1.13    0.18
  -4   5 -10    1.06    0.18
   4  -5  10    0.94    0.15
   4  -5  10    1.06    0.16
   4  -5  10    1.27    0.22
  -5   5 -10    1.21    0.20
  -5   5 -10    1.44    0.22
  -5   5 -10    1.71    0.26
   5  -5  10    1.42    0.19
   5  -5  10    1.88    0.28
   5  -5  10    1.44    0.19
   6   4 -10    0.43    0.17
   6   4 -10    0.41    0.14
  -6  -4  10    0.15    0.11
  -6  -4  10    0.31    0.15
   5   4 -10    0.65    0.16
   5   4 -10    0.54    0.16
  -5  -4  10    0.43    0.13
  -5  -4  10    0.55    0.17
   4   4 -10    1.80    0.24
   4   4 -10    1.34    0.19
  -4  -4  10    2.16    0.24
  -4  -4  10    1.22    0.20
   3   4 -10    0.91    0.16
   3   4 -10    1.06    0.17
  -3  -4  10    0.71    0.15
  -3  -4  10    1.00    0.16
   2   4 -10   -0.07    0.07
   2   4 -10    0.02    0.06
  -2  -4  10    0.02    0.06
  -2  -4  10    0.00    0.07
   1   4 -10    3.98    0.24
   1   4 -10    4.29    0.26
  -1  -4  10    4.03    0.24
  -1  -4  10    4.05    0.25
   0   4 -10    2.44    0.17
   0   4 -10    2.76    0.20
   0   4 -10    2.53    0.26
   0  -4  10    2.67    0.19
   0  -4  10    2.36    0.18
   0  -4  10    2.89    0.18
  -1   4 -10    8.39    0.36
  -1   4 -10    8.08    0.41
  -1   4 -10    7.60    0.35
   1  -4  10    8.36    0.35
   1  -4  10    8.17    0.35
   1  -4  10    8.29    0.36
  -2   4 -10    5.47    0.32
  -2   4 -10    5.58    0.29
  -2   4 -10    5.08    0.33
   2  -4  10    5.58    0.29
   2  -4  10    5.35    0.28
   2  -4  10    5.58    0.31
  -3   4 -10    2.63    0.26
  -3   4 -10    2.78    0.22
  -3   4 -10    1.87    0.23
   3  -4  10    2.97    0.24
   3  -4  10    2.08    0.18
   3  -4  10    2.34    0.19
  -4   4 -10    2.60    0.29
  -4   4 -10    2.59    0.27
  -4   4 -10    2.81    0.22
   4  -4  10    1.99    0.22
   4  -4  10    2.36    0.20
   4  -4  10    2.73    0.31
  -5   4 -10    0.22    0.11
  -5   4 -10    0.16    0.13
  -5   4 -10    0.50    0.13
   5  -4  10    0.40    0.11
   5  -4  10    0.53    0.16
   5  -4  10    0.32    0.10
   6   3 -10    0.15    0.13
   6   3 -10    0.19    0.11
  -6  -3  10   -0.08    0.10
   5   3 -10    0.70    0.17
   5   3 -10    1.15    0.20
  -5  -3  10    0.85    0.16
  -5  -3  10    0.78    0.18
   4   3 -10    3.43    0.27
   4   3 -10    2.85    0.24
  -4  -3  10    3.54    0.25
  -4  -3  10    3.36    0.28
   3   3 -10    1.04    0.17
   3   3 -10    1.18    0.16
  -3  -3  10    1.25    0.18
  -3  -3  10    1.45    0.18
   2   3 -10    0.09    0.07
   2   3 -10   -0.05    0.06
  -2  -3  10   -0.01    0.05
  -2  -3  10   -0.07    0.05
   1   3 -10   -0.01    0.05
   1   3 -10    0.14    0.07
  -1  -3  10    0.07    0.05
  -1  -3  10    0.13    0.06
   0   3 -10    3.96    0.23
   0   3 -10    3.38    0.25
   0   3 -10    3.57    0.20
   0   3 -10    3.53    0.19
   0  -3  10    4.14    0.23
   0  -3  10    3.97    0.20
   0  -3  10    3.78    0.21
  -1   3 -10    0.16    0.07
  -1   3 -10    0.07    0.08
  -1   3 -10    0.31    0.06
  -1   3 -10    0.20    0.08
   1  -3  10    0.13    0.07
   1  -3  10    0.27    0.07
   1  -3  10    0.15    0.07
  -2   3 -10    2.08    0.22
  -2   3 -10    2.38    0.24
  -2   3 -10    1.70    0.18
   2  -3  10    1.95    0.19
   2  -3  10    2.36    0.23
   2  -3  10    1.80    0.18
  -3   3 -10   12.92    0.55
  -3   3 -10   12.45    0.47
  -3   3 -10   13.34    0.54
   3  -3  10   13.47    0.49
   3  -3  10   13.18    0.54
   3  -3  10   11.62    0.47
  -4   3 -10    3.82    0.27
  -4   3 -10    3.91    0.25
  -4   3 -10    3.82    0.30
   4  -3  10    3.94    0.30
   4  -3  10    3.91    0.26
   4  -3  10    3.68    0.25
  -5   3 -10    0.02    0.10
  -5   3 -10    0.03    0.08
   5  -3  10    0.07    0.09
   5  -3  10   -0.08    0.06
   5  -3  10   -0.05    0.07
  -6   3 -10    0.18    0.13
  -6   3 -10    0.08    0.10
   6  -3  10    0.22    0.11
   6  -3  10    0.05    0.08
   6  -3  10    0.45    0.16
   6   2 -10    0.06    0.12
   6   2 -10    0.02    0.09
  -6  -2  10    0.14    0.13
   5   2 -10    0.48    0.15
   5   2 -10    0.81    0.16
  -5  -2  10    0.54    0.15
  -5  -2  10    0.66    0.14
   4   2 -10    3.88    0.29
   4   2 -10    3.97    0.28
  -4  -2  10    4.46    0.31
  -4  -2  10    4.22    0.26
   3   2 -10    2.43    0.24
   3   2 -10    2.25    0.23
  -3  -2  10    3.06    0.20
  -3  -2  10    2.76    0.22
   2   2 -10    0.32    0.09
   2   2 -10    0.23    0.09
  -2  -2  10    0.37    0.09
   1   2 -10   15.78    0.53
   1   2 -10   15.33    0.53
  -1  -2  10   16.19    0.51
  -1  -2  10   15.61    0.54
   0   2 -10   18.86    0.59
   0  -2  10   18.22    0.60
   0  -2  10   19.50    0.58
   0  -2  10   19.09    0.55
  -1   2 -10    2.87    0.19
  -1   2 -10    2.53    0.18
  -1   2 -10    3.36    0.17
   1  -2  10    2.83    0.19
   1  -2  10    2.62    0.18
  -2   2 -10    0.08    0.06
  -2   2 -10    0.02    0.07
  -2   2 -10    0.14    0.05
   2  -2  10    0.14    0.06
   2  -2  10    0.01    0.05
   2  -2  10    0.18    0.08
  -3   2 -10    0.63    0.11
  -3   2 -10    0.68    0.15
   3  -2  10    0.60    0.11
   3  -2  10    0.71    0.15
   3  -2  10    0.63    0.11
  -4   2 -10   12.81    0.57
  -4   2 -10   12.84    0.47
   4  -2  10   12.20    0.50
   4  -2  10   12.01    0.49
   4  -2  10   12.77    0.56
  -5   2 -10    0.38    0.14
  -5   2 -10    0.31    0.10
   5  -2  10    0.29    0.11
   5  -2  10    0.53    0.16
   5  -2  10    0.39    0.11
  -6   2 -10    0.46    0.13
  -6   2 -10    0.75    0.20
   6  -2  10    0.77    0.15
   6  -2  10    0.42    0.13
   6  -2  10    0.50    0.16
   6   1 -10   -0.07    0.10
  -6  -1  10    0.04    0.10
  -6  -1  10    0.00    0.10
   5   1 -10    5.91    0.37
  -5  -1  10    5.56    0.35
  -5  -1  10    6.81    0.39
   4   1 -10    0.10    0.09
  -4  -1  10    0.05    0.09
  -4  -1  10    0.12    0.09
  -4  -1  10    0.11    0.07
   3   1 -10    3.77    0.25
   3   1 -10    3.58    0.24
  -3  -1  10    3.52    0.25
  -3  -1  10    3.24    0.20
  -3  -1  10    3.57    0.24
   2   1 -10    1.21    0.15
   2   1 -10    1.25    0.15
  -2  -1  10    1.49    0.16
  -2  -1  10    1.60    0.13
   1   1 -10    3.80    0.22
   1   1 -10    4.28    0.23
  -1  -1  10    4.43    0.21
  -1  -1  10    4.62    0.16
  -1  -1  10    4.23    0.22
   0   1 -10   23.46    0.67
   0   1 -10   22.50    0.66
   0  -1  10   23.95    0.66
   0  -1  10   22.45    0.63
   0  -1  10   22.35    0.68
  -1   1 -10    2.29    0.15
  -1   1 -10    2.05    0.15
   1  -1  10    2.02    0.14
   1  -1  10    2.15    0.16
  -2   1 -10    8.05    0.30
  -2   1 -10    8.39    0.37
  -2   1 -10    8.02    0.31
   2  -1  10    7.99    0.36
   2  -1  10    8.22    0.33
   2  -1  10    8.18    0.34
  -3   1 -10    7.77    0.31
  -3   1 -10    7.21    0.28
  -3   1 -10    7.20    0.37
   3  -1  10    7.96    0.38
   3  -1  10    7.30    0.33
   3  -1  10    6.97    0.33
  -4   1 -10    0.36    0.09
  -4   1 -10    0.36    0.13
   4  -1  10    0.34    0.10
   4  -1  10    0.54    0.15
   4  -1  10    0.32    0.10
  -5   1 -10    1.83    0.25
   5  -1  10    1.63    0.20
   5  -1  10    2.07    0.22
   5  -1  10    2.01    0.26
  -6   1 -10    0.08    0.08
  -6   1 -10    0.14    0.12
   6  -1  10    0.08    0.11
   6  -1  10   -0.03    0.07
   6  -1  10   -0.02    0.08
   6   0 -10    0.45    0.16
  -6   0  10    0.36    0.14
  -6   0  10    0.55    0.16
  -6   0  10    0.59    0.16
   5   0 -10    1.30    0.20
  -5   0  10    1.01    0.18
  -5   0  10    1.24    0.20
  -5   0  10    1.20    0.19
   4   0 -10    7.84    0.39
  -4   0  10    7.81    0.40
  -4   0  10    9.11    0.36
  -4   0  10    7.97    0.40
   3   0 -10    0.04    0.07
  -3   0  10    0.06    0.07
  -3   0  10    0.01    0.04
   2   0 -10   17.12    0.58
   2   0 -10   18.00    0.59
  -2   0  10   17.61    0.52
  -2   0  10   17.80    0.58
  -2   0  10   17.35    0.56
   1   0 -10    6.76    0.29
   1   0 -10    6.17    0.28
  -1   0  10    6.05    0.27
  -1   0  10    6.62    0.25
  -1   0  10    6.36    0.22
   0   0 -10    1.08    0.12
   0   0 -10    0.96    0.11
   0   0  10    0.96    0.11
   0   0  10    1.10    0.11
   0   0  10    1.12    0.11
  -1   0 -10   11.41    0.40
  -1   0 -10   12.79    0.40
   1   0  10   12.01    0.43
   1   0  10   12.57    0.44
   1   0  10   13.63    0.42
  -2   0 -10    2.14    0.14
  -2   0 -10    2.62    0.16
   2   0  10    2.19    0.16
   2   0  10    1.87    0.15
   2   0  10    2.22    0.18
  -3   0 -10   17.25    0.54
  -3   0 -10   17.22    0.51
   3   0  10   16.52    0.58
   3   0  10   17.01    0.61
   3   0  10   17.38    0.57
   4   0  10    0.58    0.12
   4   0  10    0.79    0.16
   4   0  10    0.48    0.12
  -5   0 -10    2.63    0.26
   5   0  10    2.63    0.29
   5   0  10    2.45    0.25
   5   0  10    2.30    0.24
  -6   0 -10    3.46    0.28
   6   0  10    3.57    0.36
   6   0  10    3.65    0.29
   6   0  10    3.36    0.27
   6  -1 -10    0.26    0.13
  -6   1  10    0.37    0.13
  -6   1  10    0.42    0.14
   5  -1 -10    1.66    0.22
  -5   1  10    1.66    0.22
  -5   1  10    1.64    0.22
   4  -1 -10    3.86    0.26
  -4   1  10    4.28    0.28
  -4   1  10    3.89    0.28
   3  -1 -10    0.60    0.12
  -3   1  10    0.72    0.10
  -3   1  10    0.68    0.13
  -3   1  10    0.69    0.13
   2  -1 -10   24.30    0.75
  -2   1  10   25.17    0.72
  -2   1  10   24.48    0.66
  -2   1  10   24.82    0.64
  -2   1  10   24.65    0.74
  -2   1  10   24.74    0.75
   1  -1 -10    8.48    0.33
   1  -1 -10    8.58    0.33
  -1   1  10    7.95    0.32
  -1   1  10    8.41    0.28
  -1   1  10    8.08    0.27
  -1   1  10    9.08    0.32
   0  -1 -10    5.60    0.24
   0  -1 -10    6.07    0.25
   0   1  10    5.25    0.23
   0   1  10    5.24    0.24
   0   1  10    5.68    0.22
  -1  -1 -10    0.00    0.03
  -1  -1 -10    0.10    0.05
   1   1  10    0.00    0.03
   1   1  10   -0.02    0.04
   1   1  10    0.03    0.04
  -2  -1 -10   14.89    0.43
  -2  -1 -10   13.96    0.47
   2   1  10   14.72    0.51
   2   1  10   15.83    0.50
   2   1  10   14.99    0.52
  -3  -1 -10    3.71    0.21
  -3  -1 -10    3.97    0.24
  -3  -1 -10    3.40    0.17
   3   1  10    3.37    0.22
   3   1  10    3.58    0.24
   3   1  10    3.45    0.23
  -4  -1 -10    2.14    0.22
  -4  -1 -10    2.30    0.19
   4   1  10    2.08    0.22
   4   1  10    2.12    0.22
   4   1  10    2.06    0.24
  -5  -1 -10    1.92    0.23
   5   1  10    1.48    0.20
   5   1  10    1.69    0.21
   5   1  10    2.01    0.25
  -6  -1 -10    2.06    0.25
   6   1  10    1.66    0.25
   6   1  10    1.59    0.22
   6   1  10    1.64    0.22
  -7  -1 -10    0.26    0.12
   7   1  10    0.20    0.12
   7   1  10    0.58    0.18
   6  -2 -10    0.52    0.15
  -6   2  10    0.20    0.12
  -6   2  10    0.19    0.11
   5  -2 -10    7.63    0.39
  -5   2  10    6.85    0.40
  -5   2  10    6.85    0.40
   4  -2 -10    0.42    0.11
  -4   2  10    0.12    0.09
  -4   2  10    0.23    0.10
   3  -2 -10    6.44    0.32
  -3   2  10    5.67    0.32
  -3   2  10    5.83    0.32
   2  -2 -10    8.98    0.37
  -2   2  10    9.38    0.31
  -2   2  10    9.57    0.34
  -2   2  10   10.20    0.40
  -2   2  10   10.28    0.40
  -2   2  10    9.44    0.30
   1  -2 -10    5.62    0.26
  -1   2  10    5.82    0.23
  -1   2  10    5.62    0.24
  -1   2  10    6.48    0.27
  -1   2  10    5.72    0.21
  -1   2  10    5.94    0.27
   0  -2 -10   39.33    1.00
   0  -2 -10   38.15    1.05
   0   2  10   39.09    0.97
   0   2  10   39.36    0.97
   0   2  10   38.71    1.02
  -1  -2 -10    0.15    0.05
  -1  -2 -10    0.02    0.05
   1   2  10    0.23    0.07
   1   2  10    0.23    0.06
   1   2  10    0.42    0.07
  -2  -2 -10   15.26    0.43
  -2  -2 -10   15.61    0.52
  -2  -2 -10   15.07    0.51
   2   2  10   15.96    0.51
   2   2  10   16.09    0.54
   2   2  10   15.73    0.53
  -3  -2 -10   14.28    0.52
  -3  -2 -10   13.99    0.49
   3   2  10   13.66    0.50
   3   2  10   13.81    0.52
   3   2  10   15.01    0.54
  -4  -2 -10    0.18    0.08
  -4  -2 -10    0.02    0.06
   4   2  10    0.13    0.08
   4   2  10    0.07    0.07
   4   2  10    0.16    0.09
  -5  -2 -10   -0.04    0.07
  -5  -2 -10    0.10    0.09
   5   2  10    0.11    0.10
   5   2  10    0.03    0.08
   5   2  10    0.14    0.09
  -6  -2 -10    0.45    0.13
   6   2  10    0.55    0.14
   6   2  10    0.48    0.14
   6   2  10    0.44    0.16
  -7  -2 -10   -0.17    0.06
   7   2  10   -0.04    0.10
   7   2  10    0.04    0.12
   6  -3 -10    0.20    0.12
  -6   3  10    0.20    0.13
  -6   3  10    0.14    0.13
   5  -3 -10    0.46    0.14
  -5   3  10    0.49    0.15
  -5   3  10    0.45    0.15
   4  -3 -10    6.36    0.34
  -4   3  10    6.78    0.38
  -4   3  10    7.00    0.37
   3  -3 -10    0.37    0.09
  -3   3  10    0.24    0.10
  -3   3  10    0.28    0.10
  -3   3  10    0.37    0.08
   2  -3 -10   70.64    1.81
  -2   3  10   72.57    1.80
  -2   3  10   70.50    1.75
  -2   3  10   70.50    1.72
  -2   3  10   67.94    1.72
   1  -3 -10    0.15    0.06
  -1   3  10    0.23    0.05
  -1   3  10    0.26    0.05
  -1   3  10    0.24    0.07
  -1   3  10    0.16    0.05
  -1   3  10    0.16    0.07
   0  -3 -10    9.22    0.36
   0   3  10    9.37    0.30
   0   3  10    9.33    0.34
   0   3  10    9.64    0.33
   0   3  10    9.28    0.33
  -1  -3 -10    6.83    0.28
  -1  -3 -10    6.99    0.31
  -1  -3 -10    7.17    0.24
   1   3  10    7.37    0.30
   1   3  10    6.75    0.23
   1   3  10    6.55    0.27
   1   3  10    7.52    0.30
  -2  -3 -10   32.57    0.93
  -2  -3 -10   33.29    0.91
   2   3  10   30.98    0.92
   2   3  10   33.20    0.90
   2   3  10   31.64    0.93
  -3  -3 -10    3.95    0.25
  -3  -3 -10    3.53    0.23
   3   3  10    3.70    0.23
   3   3  10    3.78    0.24
   3   3  10    3.54    0.23
  -4  -3 -10    9.60    0.43
  -4  -3 -10    8.84    0.41
   4   3  10    8.21    0.41
   4   3  10    9.78    0.44
   4   3  10    8.94    0.41
  -5  -3 -10    4.50    0.31
  -5  -3 -10    4.42    0.30
   5   3  10    4.45    0.31
   5   3  10    4.16    0.30
   5   3  10    4.56    0.31
  -6  -3 -10    1.25    0.21
  -6  -3 -10    1.01    0.19
   6   3  10    1.08    0.19
   6   3  10    0.99    0.20
   6   3  10    1.50    0.23
   7   3  10    0.43    0.16
   7   3  10    0.19    0.13
   6  -4 -10   -0.06    0.09
  -6   4  10   -0.04    0.08
  -6   4  10    0.06    0.09
   5  -4 -10    3.12    0.25
  -5   4  10    3.02    0.31
  -5   4  10    3.51    0.28
   4  -4 -10    3.40    0.24
  -4   4  10    3.23    0.22
  -4   4  10    3.29    0.26
  -4   4  10    3.28    0.26
   3  -4 -10    0.29    0.09
  -3   4  10    0.47    0.12
  -3   4  10    0.62    0.10
  -3   4  10    0.39    0.11
   2  -4 -10    6.69    0.30
  -2   4  10    6.94    0.33
  -2   4  10    5.91    0.27
  -2   4  10    6.70    0.24
  -2   4  10    6.69    0.32
   1  -4 -10    4.82    0.24
  -1   4  10    4.70    0.24
  -1   4  10    4.35    0.19
  -1   4  10    4.74    0.24
  -1   4  10    4.18    0.15
  -1   4  10    4.03    0.21
   0  -4 -10   23.48    0.71
   0   4  10   24.64    0.62
   0   4  10   23.03    0.65
   0   4  10   23.69    0.69
   0   4  10   23.23    0.66
   0   4  10   23.33    0.66
  -1  -4 -10   16.45    0.56
  -1  -4 -10   16.73    0.52
   1   4  10   16.87    0.46
   1   4  10   16.92    0.51
   1   4  10   17.46    0.56
   1   4  10   16.76    0.53
  -2  -4 -10   14.74    0.51
  -2  -4 -10   14.24    0.49
   2   4  10   13.82    0.50
   2   4  10   15.07    0.52
   2   4  10   13.98    0.49
  -3  -4 -10    0.02    0.07
  -3  -4 -10   -0.10    0.05
   3   4  10    0.02    0.06
   3   4  10    0.03    0.06
   3   4  10   -0.02    0.06
  -4  -4 -10    0.08    0.08
  -4  -4 -10    0.18    0.09
   4   4  10    0.22    0.09
   4   4  10    0.32    0.11
   4   4  10    0.23    0.09
  -5  -4 -10   11.43    0.52
  -5  -4 -10   11.38    0.52
   5   4  10   11.60    0.53
   5   4  10   10.69    0.51
   5   4  10   10.40    0.50
  -6  -4 -10    0.06    0.10
  -6  -4 -10   -0.01    0.10
   6   4  10    0.13    0.12
   6   4  10    0.17    0.11
   6   4  10    0.23    0.12
   6  -5 -10    1.40    0.21
  -6   5  10    1.22    0.22
  -6   5  10    1.65    0.25
   5  -5 -10    2.87    0.23
  -5   5  10    2.75    0.30
  -5   5  10    2.33    0.29
   4  -5 -10    3.41    0.24
  -4   5  10    3.36    0.23
  -4   5  10    3.75    0.28
  -4   5  10    2.71    0.28
   3  -5 -10    0.58    0.12
  -3   5  10    0.24    0.07
  -3   5  10    0.55    0.13
  -3   5  10    0.78    0.15
   2  -5 -10    0.00    0.05
  -2   5  10    0.02    0.05
  -2   5  10   -0.04    0.05
  -2   5  10   -0.05    0.06
   1  -5 -10    1.51    0.17
  -1   5  10    2.16    0.12
  -1   5  10    1.51    0.16
  -1   5  10    2.38    0.17
   0  -5 -10    2.52    0.19
   0  -5 -10    2.65    0.14
   0   5  10    2.51    0.17
   0   5  10    2.60    0.17
   0   5  10    2.72    0.17
   0   5  10    2.75    0.15
   0   5  10    2.91    0.14
  -1  -5 -10   50.64    1.28
  -1  -5 -10   50.37    1.37
   1   5  10   50.63    1.23
   1   5  10   50.95    1.32
   1   5  10   51.24    1.22
   1   5  10   51.53    1.35
   1   5  10   51.02    1.28
  -2  -5 -10    0.11    0.06
  -2  -5 -10   -0.03    0.06
   2   5  10    0.07    0.06
   2   5  10    0.09    0.06
   2   5  10    0.02    0.06
  -3  -5 -10    3.11    0.23
  -3  -5 -10    3.12    0.23
   3   5  10    3.16    0.23
   3   5  10    3.12    0.22
   3   5  10    3.29    0.23
  -4  -5 -10    0.58    0.13
  -4  -5 -10    0.52    0.13
   4   5  10    0.28    0.10
   4   5  10    0.32    0.11
   4   5  10    0.55    0.13
  -5  -5 -10   -0.08    0.08
  -5  -5 -10    0.12    0.11
   5   5  10   -0.18    0.08
   5   5  10    0.04    0.09
   5   5  10   -0.03    0.09
  -6  -5 -10    0.22    0.12
  -6  -5 -10    0.21    0.13
   6   5  10    0.05    0.08
   6   5  10    0.18    0.12
   6   5  10    0.05    0.10
  -6   6  10    0.44    0.17
   5  -6 -10    0.16    0.11
  -5   6  10    0.01    0.10
  -5   6  10   -0.01    0.09
  -5   6  10    0.21    0.11
   4  -6 -10    6.78    0.34
  -4   6  10    6.66    0.40
  -4   6  10    6.16    0.38
  -4   6  10    7.35    0.36
   3  -6 -10    0.37    0.10
  -3   6  10    0.28    0.11
  -3   6  10    0.18    0.08
  -3   6  10    0.25    0.10
   2  -6 -10   11.00    0.43
  -2   6  10   10.25    0.44
  -2   6  10   10.96    0.42
  -2   6  10   10.42    0.45
   1  -6 -10    0.58    0.11
  -1   6  10    0.35    0.09
  -1   6  10    0.64    0.07
  -1   6  10    0.49    0.10
  -1   6  10    0.57    0.11
   0  -6 -10   39.01    0.99
   0  -6 -10   38.77    1.12
   0   6  10   39.58    1.03
   0   6  10   39.58    1.04
   0   6  10   41.17    1.10
   0   6  10   40.32    1.03
   0   6  10   38.81    0.99
  -1  -6 -10    8.65    0.34
  -1  -6 -10    9.59    0.40
   1   6  10    9.19    0.32
   1   6  10    9.16    0.35
   1   6  10    9.43    0.36
   1   6  10    9.35    0.39
  -2  -6 -10   -0.06    0.05
  -2  -6 -10   -0.01    0.06
   2   6  10    0.00    0.06
   2   6  10   -0.03    0.05
   2   6  10    0.01    0.06
  -3  -6 -10    6.58    0.36
  -3  -6 -10    6.66    0.35
   3   6  10    6.94    0.35
   3   6  10    7.09    0.35
   3   6  10    6.80    0.35
  -4  -6 -10    0.25    0.11
  -4  -6 -10    0.18    0.10
   4   6  10    0.27    0.10
   4   6  10    0.13    0.09
   4   6  10    0.20    0.10
  -5  -6 -10    7.03    0.41
  -5  -6 -10    6.36    0.40
   5   6  10    6.56    0.40
   5   6  10    7.09    0.40
   5   6  10    7.52    0.42
  -6  -6 -10    0.48    0.17
  -6  -6 -10    0.20    0.11
   6   6  10    0.36    0.14
   6   6  10    0.35    0.14
   5  -7 -10    2.26    0.25
  -5   7  10    2.53    0.30
  -5   7  10    2.62    0.31
  -5   7  10    2.95    0.30
   4  -7 -10   -0.09    0.08
  -4   7  10    0.03    0.09
  -4   7  10   -0.04    0.07
  -4   7  10    0.04    0.10
   3  -7 -10   -0.12    0.08
  -3   7  10   -0.07    0.06
  -3   7  10   -0.08    0.09
  -3   7  10    0.09    0.10
   2  -7 -10    5.22    0.29
  -2   7  10    5.17    0.29
  -2   7  10    5.39    0.31
  -2   7  10    5.23    0.31
   1  -7 -10    0.29    0.09
  -1   7  10    0.34    0.10
  -1   7  10    0.43    0.11
  -1   7  10    0.29    0.09
   0  -7 -10   15.38    0.56
   0   7  10   15.79    0.48
   0   7  10   16.41    0.52
   0   7  10   15.88    0.56
   0   7  10   15.46    0.52
  -1  -7 -10    1.02    0.13
  -1  -7 -10    1.13    0.16
   1   7  10    0.82    0.11
   1   7  10    0.74    0.11
   1   7  10    0.94    0.13
   1   7  10    0.79    0.13
  -2  -7 -10    3.03    0.23
  -2  -7 -10    2.79    0.21
   2   7  10    2.73    0.20
   2   7  10    2.51    0.20
   2   7  10    2.39    0.24
  -3  -7 -10    0.67    0.14
  -3  -7 -10    0.41    0.11
   3   7  10    0.85    0.15
   3   7  10    0.30    0.12
   3   7  10    0.47    0.12
  -4  -7 -10    0.28    0.12
  -4  -7 -10    0.13    0.10
   4   7  10    0.29    0.12
   4   7  10    0.21    0.12
   4   7  10    0.25    0.12
  -5  -7 -10    0.81    0.19
  -5  -7 -10    0.36    0.14
   5   7  10    0.58    0.15
   5   7  10    0.70    0.18
   5   7  10    0.69    0.16
  -6  -7 -10   -0.04    0.10
  -6  -7 -10    0.00    0.09
   6   7  10    0.06    0.11
   6   7  10   -0.07    0.10
  -5   8  10    0.77    0.19
  -5   8  10    1.12    0.21
  -5   8  10    0.79    0.20
   4  -8 -10    2.26    0.24
  -4   8  10    2.09    0.26
  -4   8  10    2.21    0.28
  -4   8  10    1.94    0.26
   3  -8 -10    0.33    0.11
  -3   8  10    0.65    0.16
  -3   8  10    0.65    0.16
  -3   8  10    0.29    0.10
   2  -8 -10    6.02    0.33
  -2   8  10    6.50    0.36
  -2   8  10    7.34    0.37
  -2   8  10    6.74    0.36
   1  -8 -10    0.36    0.12
  -1   8  10    0.43    0.12
  -1   8  10    0.28    0.10
  -1   8  10    0.25    0.10
   0  -8 -10    8.73    0.41
   0   8  10    9.67    0.39
   0   8  10    8.92    0.38
   0   8  10    9.65    0.43
  -1  -8 -10    0.88    0.13
  -1  -8 -10    0.87    0.16
   1   8  10    0.82    0.13
   1   8  10    0.93    0.13
   1   8  10    0.99    0.13
   1   8  10    0.87    0.15
  -2  -8 -10    0.95    0.17
  -2  -8 -10    1.01    0.16
   2   8  10    1.05    0.16
   2   8  10    1.25    0.18
   2   8  10    1.21    0.17
  -3  -8 -10    5.84    0.36
  -3  -8 -10    5.50    0.33
   3   8  10    6.03    0.34
   3   8  10    5.60    0.33
   3   8  10    5.49    0.34
  -4  -8 -10    0.23    0.12
  -4  -8 -10    0.59    0.16
   4   8  10    0.32    0.12
   4   8  10    0.40    0.13
  -5  -8 -10    0.83    0.19
  -5  -8 -10    0.97    0.21
   5   8  10    1.03    0.20
   5   8  10    1.30    0.21
   5   8  10    1.04    0.21
  -6  -8 -10    0.22    0.16
  -6  -8 -10    0.28    0.14
   6   8  10    0.33    0.15
   6   8  10    0.36    0.15
  -5   9  10    0.08    0.11
  -5   9  10   -0.12    0.10
  -4   9  10    3.09    0.32
  -4   9  10    3.10    0.33
  -4   9  10    2.46    0.29
   3  -9 -10    0.91    0.16
  -3   9  10    0.94    0.18
  -3   9  10    0.89    0.18
  -3   9  10    1.03    0.19
   2  -9 -10    5.33    0.32
  -2   9  10    5.14    0.34
  -2   9  10    5.78    0.35
  -2   9  10    5.44    0.33
   1  -9 -10    3.26    0.25
  -1   9  10    3.86    0.27
  -1   9  10    2.72    0.28
  -1   9  10    3.48    0.26
   0  -9 -10    4.62    0.30
   0   9  10    4.22    0.27
   0   9  10    4.52    0.31
  -1  -9 -10   13.96    0.58
   1   9  10   16.12    0.53
   1   9  10   14.54    0.58
  -2  -9 -10    7.50    0.41
  -2  -9 -10    8.77    0.40
   2   9  10    7.53    0.38
   2   9  10    7.65    0.40
   2   9  10    7.97    0.39
  -3  -9 -10    5.93    0.38
  -3  -9 -10    5.62    0.35
   3   9  10    5.70    0.35
   3   9  10    5.14    0.33
   3   9  10    5.57    0.35
  -4  -9 -10   -0.05    0.10
  -4  -9 -10    0.06    0.11
   4   9  10    0.07    0.10
   4   9  10    0.17    0.12
   4   9  10   -0.05    0.09
  -5  -9 -10    1.04    0.21
  -5  -9 -10    0.77    0.20
   5   9  10    1.19    0.22
   5   9  10    0.81    0.18
   5   9  10    1.05    0.19
  -4  10  10   -0.07    0.10
  -4  10  10    0.02    0.11
  -4  10  10    0.09    0.10
  -3  10  10   -0.03    0.09
  -3  10  10    0.01    0.10
  -3  10  10   -0.07    0.10
   2 -10 -10    0.45    0.13
  -2  10  10    0.52    0.14
  -2  10  10    0.57    0.15
  -2  10  10    0.36    0.12
   1 -10 -10    5.94    0.34
  -1  10  10    5.67    0.34
  -1  10  10    5.74    0.34
  -1  10  10    5.58    0.35
   0 -10 -10    8.12    0.41
   0  10  10    8.07    0.42
   0  10  10    8.76    0.40
  -1 -10 -10    0.44    0.13
   1  10  10    0.62    0.14
   1  10  10    0.31    0.12
  -2 -10 -10    0.26    0.10
  -2 -10 -10    0.26    0.14
   2  10  10    0.39    0.13
   2  10  10    0.35    0.12
  -3 -10 -10    0.30    0.12
  -3 -10 -10    0.73    0.18
   3  10  10    0.55    0.14
   3  10  10    0.61    0.16
   3  10  10    0.54    0.15
  -4 -10 -10    0.77    0.20
  -4 -10 -10    0.59    0.16
   4  10  10    0.61    0.17
   4  10  10    1.05    0.21
   4  10  10    0.85    0.18
  -5 -10 -10    0.15    0.14
  -5 -10 -10    0.15    0.13
   5  10  10    0.16    0.14
   5  10  10    0.17    0.13
  -3  11  10    0.45    0.15
  -3  11  10    0.63    0.16
  -3  11  10    0.34    0.14
   2 -11 -10    0.61    0.15
  -2  11  10    0.63    0.17
  -2  11  10    0.39    0.14
  -2  11  10    0.48    0.15
   1 -11 -10    0.30    0.12
  -1  11  10    0.23    0.11
  -1  11  10    0.32    0.13
  -1  11  10    0.39    0.13
   0 -11 -10    0.19    0.11
   0  11  10    0.27    0.12
   0  11  10    0.28    0.10
  -1 -11 -10    1.16    0.20
   1  11  10    1.25    0.18
   1  11  10    1.11    0.19
  -2 -11 -10    0.42    0.15
   2  11  10    0.14    0.11
  -3 -11 -10    1.59    0.25
  -3 -11 -10    1.51    0.23
   3  11  10    1.70    0.24
   3  11  10    1.26    0.21
  -4 -11 -10    0.13    0.13
  -4 -11 -10    0.06    0.11
   4  11  10    0.11    0.12
   4  11  10   -0.09    0.10
   4  11  10    0.08    0.11
  -2  12  10    1.64    0.26
  -2  12  10    2.40    0.29
  -2  12  10    2.73    0.31
   1 -12 -10   -0.01    0.10
  -1  12  10   -0.14    0.08
  -1  12  10    0.03    0.10
   0 -12 -10    0.77    0.17
   0  12  10    0.76    0.16
   0  12  10    1.14    0.20
  -1 -12 -10   -0.06    0.09
   1  12  10   -0.04    0.08
  -2 -12 -10   -0.03    0.10
   2  12  10    0.07    0.11
  -3 -12 -10    0.93    0.21
   3  12  10    0.94    0.19
  -1  13  10    0.11    0.10
  -1  13  10    0.01    0.11
   0 -13 -10    0.09    0.12
   0  13  10   -0.06    0.09
   0  13  10   -0.03    0.10
  -1 -13 -10    0.21    0.13
   1  13  10    0.19    0.13
   2   9 -11    0.43    0.15
  -2  -9  11    0.25    0.12
   1   9 -11    0.21    0.12
  -1  -9  11    0.16    0.10
   0   9 -11    0.04    0.10
   0  -9  11   -0.03    0.08
  -1   9 -11    1.66    0.26
   1  -9  11    1.94    0.25
   3   8 -11    1.57    0.23
   3   8 -11    1.52    0.24
  -3  -8  11    1.65    0.25
  -3  -8  11    1.60    0.24
   2   8 -11    0.65    0.17
  -2  -8  11    0.71    0.17
   1   8 -11    1.13    0.20
  -1  -8  11    0.65    0.15
   0   8 -11    0.08    0.10
   0  -8  11   -0.12    0.06
  -1   8 -11    1.00    0.19
   1  -8  11    1.07    0.18
   1  -8  11    1.03    0.18
  -2   8 -11    0.72    0.18
   2  -8  11    0.80    0.15
   2  -8  11    0.73    0.15
  -3   8 -11    0.06    0.10
  -3   8 -11    0.01    0.12
  -3   8 -11    0.07    0.12
   3  -8  11    0.00    0.07
   3  -8  11   -0.03    0.08
   4   7 -11    0.32    0.16
   4   7 -11    0.36    0.13
  -4  -7  11    0.27    0.14
  -4  -7  11    0.16    0.11
   3   7 -11    0.89    0.18
   3   7 -11    1.08    0.20
  -3  -7  11    0.83    0.18
  -3  -7  11    0.94    0.19
   2   7 -11    2.47    0.27
   2   7 -11    3.00    0.25
  -2  -7  11    2.65    0.28
  -2  -7  11    3.06    0.30
   1   7 -11    5.37    0.34
  -1  -7  11    4.92    0.32
   0   7 -11    0.23    0.10
   0  -7  11    0.19    0.09
   0  -7  11    0.07    0.08
  -1   7 -11    2.31    0.26
   1  -7  11    2.01    0.22
   1  -7  11    1.97    0.23
  -2   7 -11    0.11    0.11
  -2   7 -11    0.06    0.11
  -2   7 -11    0.09    0.09
   2  -7  11    0.08    0.08
   2  -7  11    0.05    0.07
  -3   7 -11    0.77    0.17
  -3   7 -11    0.51    0.16
  -3   7 -11    0.89    0.20
   3  -7  11    0.87    0.20
   3  -7  11    0.53    0.13
   3  -7  11    0.67    0.15
   4   6 -11    0.00    0.12
   4   6 -11    0.09    0.10
  -4  -6  11    0.04    0.11
  -4  -6  11    0.03    0.08
   3   6 -11    0.13    0.10
   3   6 -11    0.30    0.13
  -3  -6  11    0.10    0.10
  -3  -6  11    0.03    0.07
   2   6 -11    5.50    0.32
   2   6 -11    5.62    0.34
  -2  -6  11    5.53    0.33
  -2  -6  11    5.41    0.33
   1   6 -11    0.20    0.10
  -1  -6  11    0.34    0.11
   0   6 -11    4.26    0.29
   0  -6  11    3.80    0.26
   0  -6  11    3.70    0.26
  -1   6 -11    0.26    0.10
   1  -6  11    0.24    0.09
   1  -6  11    0.11    0.09
  -2   6 -11    1.62    0.24
  -2   6 -11    1.46    0.22
  -2   6 -11    1.56    0.20
   2  -6  11    1.33    0.21
   2  -6  11    1.50    0.19
   2  -6  11    1.58    0.19
  -3   6 -11    1.74    0.24
  -3   6 -11    1.66    0.23
  -3   6 -11    1.34    0.22
   3  -6  11    1.78    0.21
   3  -6  11    1.46    0.19
   3  -6  11    2.07    0.27
  -4   6 -11    0.37    0.15
  -4   6 -11    0.37    0.14
  -4   6 -11    0.22    0.11
   4  -6  11    0.41    0.12
   4  -6  11    0.43    0.12
   4  -6  11    0.45    0.17
   5   5 -11    1.51    0.25
   5   5 -11    1.29    0.21
  -5  -5  11    1.48    0.25
  -5  -5  11    1.47    0.23
   4   5 -11    0.78    0.16
   4   5 -11    0.87    0.18
  -4  -5  11    0.60    0.16
  -4  -5  11    0.79    0.18
   3   5 -11    1.34    0.19
   3   5 -11    1.55    0.21
  -3  -5  11    1.11    0.18
  -3  -5  11    1.32    0.19
   2   5 -11    0.01    0.09
   2   5 -11    0.02    0.07
  -2  -5  11    0.20    0.09
  -2  -5  11    0.04    0.08
   1   5 -11   11.04    0.47
  -1  -5  11   11.08    0.46
  -1  -5  11   10.84    0.48
   0   5 -11    1.34    0.19
   0  -5  11    1.14    0.16
   0  -5  11    1.01    0.15
  -1   5 -11    0.66    0.13
  -1   5 -11    0.34    0.12
  -1   5 -11    0.33    0.13
   1  -5  11    0.38    0.10
   1  -5  11    0.48    0.13
   1  -5  11    0.56    0.11
  -2   5 -11    1.46    0.22
  -2   5 -11    1.72    0.22
  -2   5 -11    1.26    0.19
   2  -5  11    1.23    0.16
   2  -5  11    1.61    0.19
   2  -5  11    1.86    0.22
  -3   5 -11    0.52    0.15
  -3   5 -11    0.68    0.15
  -3   5 -11    0.87    0.16
   3  -5  11    0.58    0.15
   3  -5  11    0.73    0.14
   3  -5  11    0.52    0.12
  -4   5 -11    2.51    0.28
  -4   5 -11    2.99    0.32
  -4   5 -11    2.52    0.26
   4  -5  11    2.69    0.26
   4  -5  11    2.77    0.23
   4  -5  11    2.72    0.32
  -5   5 -11    0.34    0.12
  -5   5 -11    0.41    0.16
  -5   5 -11    0.32    0.14
   5  -5  11    0.16    0.10
   5  -5  11    0.33    0.11
   5  -5  11    0.41    0.16
   5   4 -11   -0.04    0.08
   5   4 -11    0.13    0.11
  -5  -4  11    0.25    0.11
  -5  -4  11    0.08    0.12
   4   4 -11    1.47    0.22
   4   4 -11    1.18    0.19
  -4  -4  11    1.71    0.22
  -4  -4  11    1.10    0.20
   3   4 -11    6.09    0.35
   3   4 -11    6.29    0.36
  -3  -4  11    5.47    0.32
  -3  -4  11    6.50    0.37
   2   4 -11    8.00    0.39
   2   4 -11    7.69    0.38
  -2  -4  11    8.71    0.39
  -2  -4  11    8.71    0.40
   1   4 -11    7.41    0.36
   1   4 -11    8.32    0.36
  -1  -4  11    8.43    0.37
  -1  -4  11    7.83    0.38
   0   4 -11    0.12    0.08
   0   4 -11    0.20    0.07
   0  -4  11   -0.01    0.05
   0  -4  11   -0.04    0.04
  -1   4 -11    9.43    0.40
  -1   4 -11    9.50    0.47
  -1   4 -11    8.64    0.39
   1  -4  11    9.70    0.40
   1  -4  11    8.95    0.38
   1  -4  11    8.53    0.39
  -2   4 -11    0.48    0.11
  -2   4 -11    0.48    0.13
  -2   4 -11    0.59    0.14
   2  -4  11    0.69    0.12
   2  -4  11    0.57    0.14
   2  -4  11    0.49    0.11
  -3   4 -11    2.73    0.22
  -3   4 -11    2.47    0.27
  -3   4 -11    2.92    0.29
   3  -4  11    2.43    0.27
   3  -4  11    2.81    0.22
   3  -4  11    2.54    0.20
  -4   4 -11    1.83    0.25
  -4   4 -11    2.15    0.23
  -4   4 -11    1.65    0.23
   4  -4  11    1.62    0.20
   4  -4  11    1.96    0.27
   4  -4  11    1.70    0.20
  -5   4 -11    0.39    0.13
  -5   4 -11    0.38    0.15
   5  -4  11    0.24    0.12
   5  -4  11    0.19    0.10
   5  -4  11    0.35    0.11
   6   3 -11    0.48    0.15
   6   3 -11    0.85    0.20
  -6  -3  11    0.94    0.21
   5   3 -11    0.32    0.13
   5   3 -11    0.42    0.16
  -5  -3  11    0.28    0.11
  -5  -3  11    0.27    0.13
   4   3 -11    0.26    0.12
   4   3 -11    0.25    0.11
  -4  -3  11    0.27    0.10
  -4  -3  11    0.18    0.11
   3   3 -11    1.74    0.21
   3   3 -11    2.09    0.23
  -3  -3  11    1.70    0.20
  -3  -3  11    1.64    0.21
   2   3 -11    1.13    0.16
   2   3 -11    0.72    0.14
  -2  -3  11    1.13    0.16
   1   3 -11    1.67    0.18
   1   3 -11    1.93    0.19
  -1  -3  11    1.99    0.20
  -1  -3  11    2.01    0.19
   0   3 -11    3.18    0.19
   0   3 -11    2.93    0.21
   0   3 -11    3.27    0.25
   0  -3  11    2.97    0.21
   0  -3  11    3.26    0.20
  -1   3 -11    0.01    0.05
  -1   3 -11    0.06    0.06
  -1   3 -11   -0.07    0.07
  -1   3 -11   -0.03    0.06
   1  -3  11   -0.02    0.04
   1  -3  11    0.09    0.07
   1  -3  11   -0.01    0.05
  -2   3 -11    1.52    0.17
  -2   3 -11    1.42    0.19
  -2   3 -11    1.44    0.20
   2  -3  11    1.51    0.19
   2  -3  11    1.52    0.17
   2  -3  11    1.50    0.17
  -3   3 -11    0.20    0.08
  -3   3 -11    0.06    0.09
  -3   3 -11    0.22    0.11
   3  -3  11    0.06    0.06
   3  -3  11    0.16    0.08
   3  -3  11    0.24    0.11
  -4   3 -11    2.16    0.27
  -4   3 -11    2.59    0.26
  -4   3 -11    2.24    0.23
   4  -3  11    2.50    0.29
   4  -3  11    2.01    0.21
   4  -3  11    2.30    0.23
  -5   3 -11    0.13    0.12
  -5   3 -11    0.11    0.10
   5  -3  11    0.12    0.09
   5  -3  11    0.39    0.12
   5  -3  11    0.10    0.11
  -6   3 -11    0.06    0.09
  -6   3 -11   -0.11    0.11
   6  -3  11    0.00    0.09
   6  -3  11    0.10    0.13
   6   2 -11    0.67    0.18
   6   2 -11    0.64    0.16
  -6  -2  11    0.57    0.17
   5   2 -11    0.39    0.13
   5   2 -11    0.49    0.14
  -5  -2  11    0.32    0.11
  -5  -2  11    0.32    0.12
   4   2 -11    3.61    0.28
   4   2 -11    4.12    0.29
  -4  -2  11    3.49    0.24
  -4  -2  11    3.24    0.27
   3   2 -11   15.38    0.60
   3   2 -11   15.86    0.60
  -3  -2  11   16.82    0.63
  -3  -2  11   16.29    0.56
   2   2 -11    0.18    0.08
   2   2 -11    0.02    0.07
  -2  -2  11    0.16    0.07
  -2  -2  11    0.18    0.07
   1   2 -11   16.01    0.55
   1   2 -11   16.42    0.54
  -1  -2  11   15.10    0.55
  -1  -2  11   15.52    0.51
   0   2 -11    1.77    0.18
   0  -2  11    1.55    0.17
   0  -2  11    1.58    0.13
   0  -2  11    1.66    0.14
  -1   2 -11    1.74    0.18
  -1   2 -11    1.93    0.14
  -1   2 -11    1.45    0.16
   1  -2  11    2.00    0.16
   1  -2  11    1.59    0.17
   1  -2  11    1.57    0.16
  -2   2 -11    8.66    0.39
  -2   2 -11    8.77    0.36
   2  -2  11    8.52    0.36
   2  -2  11    8.19    0.36
   2  -2  11    8.60    0.39
  -3   2 -11   11.77    0.50
  -3   2 -11   11.48    0.43
   3  -2  11   11.36    0.49
   3  -2  11   10.32    0.44
   3  -2  11   11.22    0.44
  -4   2 -11    1.57    0.18
  -4   2 -11    1.49    0.23
   4  -2  11    1.98    0.22
   4  -2  11    1.56    0.23
   4  -2  11    1.88    0.21
  -5   2 -11    0.10    0.09
  -5   2 -11    0.30    0.14
   5  -2  11   -0.03    0.07
   5  -2  11   -0.05    0.07
   5  -2  11    0.02    0.10
  -6   2 -11    0.88    0.16
  -6   2 -11    1.03    0.22
   6  -2  11    0.74    0.15
   6  -2  11    0.48    0.18
   6  -2  11    0.82    0.17
   6   1 -11    1.50    0.24
  -6  -1  11    1.07    0.20
  -6  -1  11    1.40    0.24
   5   1 -11    1.24    0.21
  -5  -1  11    0.99    0.19
  -5  -1  11    1.18    0.20
   4   1 -11    6.60    0.36
   4   1 -11    5.72    0.35
  -4  -1  11    6.33    0.36
  -4  -1  11    6.31    0.36
  -4  -1  11    6.19    0.31
   3   1 -11    1.74    0.20
   3   1 -11    1.23    0.17
  -3  -1  11    1.52    0.16
   2   1 -11    1.86    0.20
   2   1 -11    2.15    0.21
  -2  -1  11    2.16    0.17
  -2  -1  11    1.95    0.17
   1   1 -11    7.57    0.33
   1   1 -11    7.95    0.34
  -1  -1  11    7.51    0.33
  -1  -1  11    7.77    0.30
   0   1 -11    0.10    0.06
   0   1 -11    0.08    0.05
   0  -1  11    0.10    0.05
   0  -1  11    0.07    0.05
   0  -1  11    0.12    0.05
  -1   1 -11    3.07    0.18
  -1   1 -11    3.23    0.19
   1  -1  11    3.00    0.19
   1  -1  11    3.08    0.19
  -2   1 -11   30.27    0.83
  -2   1 -11   29.83    0.83
   2  -1  11   30.30    0.89
   2  -1  11   29.63    0.88
   2  -1  11   28.39    0.84
  -3   1 -11   11.15    0.48
  -3   1 -11   10.70    0.40
   3  -1  11   10.12    0.43
   3  -1  11   11.25    0.48
   3  -1  11   11.17    0.44
  -4   1 -11   11.42    0.52
   4  -1  11   10.90    0.46
   4  -1  11   10.36    0.46
   4  -1  11   10.47    0.50
  -5   1 -11    1.80    0.25
   5  -1  11    1.84    0.22
   5  -1  11    1.82    0.26
   5  -1  11    1.46    0.19
  -6   1 -11    1.97    0.22
   6  -1  11    2.28    0.25
   6  -1  11    1.82    0.27
   6  -1  11    1.88    0.23
   6   0 -11    0.49    0.16
  -6   0  11    0.55    0.15
   5   0 -11    3.63    0.29
  -5   0  11    3.71    0.29
   4   0 -11    0.72    0.15
  -4   0  11    0.86    0.17
   3   0 -11    0.16    0.09
  -3   0  11   -0.07    0.06
  -3   0  11    0.04    0.05
   2   0 -11    2.25    0.19
   2   0 -11    2.37    0.19
  -2   0  11    2.32    0.19
  -2   0  11    2.28    0.16
  -2   0  11    2.49    0.18
   1   0 -11    2.20    0.17
   1   0 -11    2.47    0.18
  -1   0  11    2.46    0.15
  -1   0  11    2.41    0.17
  -1   0  11    2.35    0.12
   0   0 -11    0.23    0.07
   0   0 -11    0.12    0.06
   0   0  11    0.28    0.07
   0   0  11    0.24    0.07
   0   0  11    0.34    0.07
  -1   0 -11    0.43    0.08
  -1   0 -11    0.53    0.09
   1   0  11    0.26    0.07
   1   0  11    0.47    0.09
   1   0  11    0.67    0.11
  -2   0 -11    0.23    0.07
  -2   0 -11    0.28    0.07
   2   0  11    0.30    0.08
   2   0  11    0.26    0.08
   2   0  11    0.23    0.08
  -3   0 -11    0.88    0.12
  -3   0 -11    0.73    0.10
   3   0  11    0.91    0.14
   3   0  11    0.67    0.13
   3   0  11    0.88    0.14
   4   0  11    8.82    0.41
   4   0  11    8.17    0.40
   4   0  11    9.19    0.45
   5   0  11    2.33    0.25
   5   0  11    3.20    0.32
   5   0  11    2.46    0.26
   6   0  11    1.34    0.20
   6   0  11    1.29    0.20
   6   0  11    1.39    0.23
   6  -1 -11    0.67    0.17
  -6   1  11    0.69    0.17
  -6   1  11    0.35    0.14
   5  -1 -11    0.49    0.14
  -5   1  11    0.28    0.13
  -5   1  11    0.13    0.12
   4  -1 -11    0.78    0.15
  -4   1  11    0.61    0.15
  -4   1  11    0.80    0.16
   3  -1 -11    8.29    0.38
  -3   1  11    8.49    0.40
  -3   1  11    8.54    0.32
  -3   1  11    8.55    0.39
   2  -1 -11    2.62    0.19
  -2   1  11    2.61    0.17
  -2   1  11    2.56    0.15
  -2   1  11    1.96    0.20
   1  -1 -11    9.06    0.36
   1  -1 -11    9.52    0.37
  -1   1  11    8.47    0.34
  -1   1  11    9.72    0.31
  -1   1  11    9.96    0.32
  -1   1  11    8.89    0.35
   0  -1 -11    1.29    0.14
   0  -1 -11    1.53    0.15
   0   1  11    1.31    0.13
   0   1  11    1.55    0.13
   0   1  11    1.68    0.12
  -1  -1 -11    9.90    0.34
  -1  -1 -11    9.90    0.37
   1   1  11    9.97    0.36
   1   1  11    9.90    0.38
   1   1  11   10.41    0.38
  -2  -1 -11   22.45    0.62
  -2  -1 -11   22.67    0.68
   2   1  11   23.22    0.71
   2   1  11   22.68    0.68
   2   1  11   22.43    0.71
  -3  -1 -11    7.85    0.33
   3   1  11    7.46    0.34
   3   1  11    7.07    0.34
   3   1  11    7.66    0.38
  -4  -1 -11    4.52    0.29
  -4  -1 -11    4.93    0.27
   4   1  11    4.44    0.28
   4   1  11    4.08    0.30
   4   1  11    4.86    0.30
  -5  -1 -11    5.98    0.36
   5   1  11    6.95    0.40
   5   1  11    6.83    0.37
   5   1  11    6.05    0.35
  -6  -1 -11    0.28    0.11
   6   1  11    0.31    0.12
   6   1  11    0.22    0.13
   6   1  11    0.43    0.13
   6  -2 -11   -0.09    0.10
  -6   2  11    0.10    0.10
  -6   2  11    0.00    0.09
   5  -2 -11    1.01    0.19
  -5   2  11    1.12    0.20
  -5   2  11    1.04    0.19
   4  -2 -11   12.81    0.52
  -4   2  11   12.10    0.53
  -4   2  11   12.33    0.53
   3  -2 -11    2.58    0.20
  -3   2  11    2.40    0.24
  -3   2  11    2.63    0.21
   2  -2 -11   12.61    0.46
  -2   2  11   12.23    0.37
  -2   2  11   12.43    0.39
  -2   2  11   12.19    0.47
  -2   2  11   12.17    0.47
  -2   2  11   12.69    0.43
   1  -2 -11    1.19    0.14
  -1   2  11    1.39    0.12
  -1   2  11    1.19    0.14
  -1   2  11    1.27    0.10
  -1   2  11    1.19    0.12
   0  -2 -11    6.68    0.30
   0  -2 -11    7.06    0.28
   0   2  11    6.88    0.27
   0   2  11    7.05    0.28
   0   2  11    6.51    0.25
  -1  -2 -11    0.29    0.06
  -1  -2 -11    0.23    0.07
   1   2  11    0.22    0.06
   1   2  11    0.28    0.08
   1   2  11    0.23    0.07
  -2  -2 -11    2.69    0.18
  -2  -2 -11    2.29    0.13
   2   2  11    2.04    0.16
   2   2  11    2.35    0.19
   2   2  11    2.38    0.18
  -3  -2 -11    1.61    0.18
  -3  -2 -11    1.74    0.18
   3   2  11    1.55    0.17
   3   2  11    1.61    0.18
   3   2  11    2.11    0.21
  -4  -2 -11    0.79    0.15
   4   2  11    0.64    0.13
   4   2  11    0.90    0.17
   4   2  11    0.57    0.13
  -5  -2 -11    0.48    0.13
  -5  -2 -11    0.56    0.14
   5   2  11    0.63    0.13
   5   2  11    0.57    0.15
   5   2  11    0.97    0.17
  -6  -2 -11    0.04    0.09
   6   2  11   -0.08    0.09
   6   2  11   -0.01    0.11
   6   2  11    0.15    0.09
   6  -3 -11    0.07    0.10
  -6   3  11   -0.09    0.09
  -6   3  11   -0.09    0.09
   5  -3 -11    0.17    0.11
  -5   3  11    0.10    0.10
  -5   3  11    0.08    0.11
   4  -3 -11    2.09    0.22
  -4   3  11    1.89    0.23
  -4   3  11    2.58    0.27
   3  -3 -11    2.61    0.20
  -3   3  11    2.33    0.23
  -3   3  11    2.46    0.24
   2  -3 -11    8.15    0.36
  -2   3  11    8.05    0.36
  -2   3  11    8.33    0.37
  -2   3  11    8.42    0.31
  -2   3  11    8.31    0.31
   1  -3 -11    1.09    0.14
  -1   3  11    1.26    0.11
  -1   3  11    1.23    0.09
  -1   3  11    1.33    0.15
  -1   3  11    1.30    0.13
  -1   3  11    1.05    0.13
   0  -3 -11    1.22    0.14
   0   3  11    1.31    0.12
   0   3  11    1.24    0.13
   0   3  11    0.98    0.11
   0   3  11    1.06    0.13
  -1  -3 -11    0.66    0.08
  -1  -3 -11    0.55    0.10
   1   3  11    0.68    0.10
   1   3  11    0.47    0.09
   1   3  11    0.52    0.09
   1   3  11    0.49    0.07
  -2  -3 -11    0.38    0.09
  -2  -3 -11    0.57    0.11
   2   3  11    0.45    0.10
   2   3  11    0.43    0.09
   2   3  11    0.39    0.09
  -3  -3 -11    2.07    0.21
  -3  -3 -11    2.44    0.20
   3   3  11    2.62    0.20
   3   3  11    2.14    0.22
   3   3  11    1.76    0.19
  -4  -3 -11    3.51    0.25
  -4  -3 -11    3.12    0.24
   4   3  11    3.50    0.25
   4   3  11    3.79    0.26
   4   3  11    4.03    0.27
  -5  -3 -11    3.28    0.27
  -5  -3 -11    3.37    0.28
   5   3  11    3.34    0.27
   5   3  11    2.94    0.29
   5   3  11    3.40    0.28
  -6  -3 -11    2.14    0.26
   6   3  11    2.35    0.29
   6   3  11    1.66    0.23
   6   3  11    2.23    0.28
   6  -4 -11   -0.08    0.10
  -6   4  11   -0.17    0.08
  -6   4  11   -0.04    0.09
   5  -4 -11   -0.02    0.10
  -5   4  11    0.23    0.13
  -5   4  11    0.00    0.09
   4  -4 -11    0.29    0.11
  -4   4  11    0.02    0.09
  -4   4  11    0.12    0.10
   3  -4 -11    0.95    0.15
  -3   4  11    0.71    0.14
  -3   4  11    0.71    0.15
  -3   4  11    0.92    0.12
   2  -4 -11    0.05    0.06
  -2   4  11    0.04    0.06
  -2   4  11   -0.02    0.03
  -2   4  11    0.08    0.07
  -2   4  11    0.06    0.05
   1  -4 -11    3.21    0.21
  -1   4  11    3.34    0.21
  -1   4  11    3.22    0.16
  -1   4  11    3.04    0.13
  -1   4  11    3.39    0.21
   0  -4 -11    9.11    0.38
   0   4  11    9.84    0.32
   0   4  11    9.79    0.35
   0   4  11    9.88    0.35
   0   4  11    9.61    0.35
   0   4  11    9.43    0.36
  -1  -4 -11    3.44    0.19
  -1  -4 -11    3.63    0.16
  -1  -4 -11    3.47    0.22
   1   4  11    3.33    0.16
   1   4  11    3.43    0.21
   1   4  11    3.30    0.18
   1   4  11    3.26    0.20
  -2  -4 -11    1.20    0.15
  -2  -4 -11    1.14    0.15
   2   4  11    0.85    0.14
   2   4  11    1.17    0.14
   2   4  11    1.38    0.15
  -3  -4 -11    4.31    0.26
  -3  -4 -11    3.86    0.25
   3   4  11    3.97    0.25
   3   4  11    3.88    0.25
   3   4  11    3.52    0.25
  -4  -4 -11    4.75    0.30
  -4  -4 -11    4.40    0.29
   4   4  11    5.26    0.32
   4   4  11    4.86    0.30
   4   4  11    3.87    0.28
  -5  -4 -11    1.97    0.24
  -5  -4 -11    2.60    0.29
   5   4  11    1.94    0.25
   5   4  11    2.37    0.26
   5   4  11    2.06    0.25
  -6  -4 -11    0.12    0.10
  -6  -4 -11    0.33    0.14
   6   4  11    0.19    0.11
   6   4  11    0.16    0.12
   6  -5 -11    0.10    0.12
  -6   5  11    0.12    0.13
   5  -5 -11    0.17    0.11
  -5   5  11   -0.04    0.08
  -5   5  11   -0.12    0.08
   4  -5 -11    0.26    0.11
  -4   5  11    0.02    0.09
  -4   5  11    0.08    0.08
  -4   5  11   -0.06    0.09
   3  -5 -11    0.00    0.07
  -3   5  11   -0.04    0.06
  -3   5  11   -0.03    0.07
  -3   5  11   -0.03    0.05
   2  -5 -11    0.88    0.13
  -2   5  11    0.98    0.13
  -2   5  11    1.19    0.17
  -2   5  11    1.01    0.16
   1  -5 -11    0.00    0.06
  -1   5  11   -0.01    0.04
  -1   5  11   -0.02    0.03
  -1   5  11    0.02    0.06
  -1   5  11    0.01    0.06
   0  -5 -11    1.23    0.16
   0   5  11    1.26    0.13
   0   5  11    1.39    0.15
   0   5  11    1.44    0.14
   0   5  11    1.35    0.11
   0   5  11    1.57    0.16
  -1  -5 -11    0.52    0.11
  -1  -5 -11    0.63    0.10
   1   5  11    0.52    0.11
   1   5  11    0.78    0.11
   1   5  11    0.64    0.11
   1   5  11    0.75    0.10
  -2  -5 -11    0.72    0.12
  -2  -5 -11    0.53    0.12
   2   5  11    0.68    0.12
   2   5  11    0.64    0.12
   2   5  11    0.80    0.12
  -3  -5 -11    0.09    0.08
  -3  -5 -11    0.17    0.09
   3   5  11    0.12    0.08
   3   5  11    0.12    0.07
   3   5  11    0.11    0.09
  -4  -5 -11    0.78    0.15
  -4  -5 -11    1.07    0.18
   4   5  11    1.01    0.17
   4   5  11    1.05    0.17
   4   5  11    0.97    0.17
  -5  -5 -11    0.66    0.17
  -5  -5 -11    0.41    0.14
   5   5  11    0.58    0.16
   5   5  11    0.57    0.15
   5   5  11    0.40    0.15
  -6  -5 -11    0.43    0.16
  -6  -5 -11    0.29    0.13
   6   5  11    0.61    0.17
   6   5  11    0.26    0.13
  -6   6  11   -0.08    0.10
   5  -6 -11    0.13    0.11
  -5   6  11    0.23    0.14
  -5   6  11    0.31    0.14
   4  -6 -11   -0.01    0.07
  -4   6  11   -0.05    0.06
  -4   6  11    0.05    0.10
  -4   6  11   -0.01    0.08
   3  -6 -11    0.12    0.08
  -3   6  11    0.09    0.09
  -3   6  11    0.18    0.10
  -3   6  11    0.26    0.09
   2  -6 -11   -0.05    0.06
  -2   6  11   -0.01    0.08
  -2   6  11    0.11    0.07
  -2   6  11    0.10    0.08
   1  -6 -11    0.12    0.07
  -1   6  11    0.06    0.06
  -1   6  11    0.13    0.08
  -1   6  11    0.02    0.07
   0  -6 -11    2.24    0.20
   0   6  11    2.32    0.17
   0   6  11    2.19    0.14
   0   6  11    2.79    0.20
   0   6  11    2.39    0.15
   0   6  11    2.97    0.19
  -1  -6 -11    3.48    0.20
  -1  -6 -11    3.16    0.23
   1   6  11    3.25    0.23
   1   6  11    3.51    0.18
   1   6  11    3.25    0.19
   1   6  11    3.19    0.19
  -2  -6 -11    0.26    0.10
  -2  -6 -11    0.47    0.11
   2   6  11    0.44    0.10
   2   6  11    0.45    0.11
   2   6  11    0.53    0.10
  -3  -6 -11    1.90    0.21
  -3  -6 -11    1.83    0.22
   3   6  11    1.53    0.19
   3   6  11    1.94    0.21
   3   6  11    1.57    0.19
  -4  -6 -11   -0.01    0.08
  -4  -6 -11   -0.02    0.07
   4   6  11    0.02    0.07
   4   6  11    0.09    0.09
   4   6  11    0.04    0.08
  -5  -6 -11    1.02    0.20
  -5  -6 -11    0.36    0.15
   5   6  11    0.64    0.16
   5   6  11    0.53    0.16
   5   6  11    0.71    0.16
  -6  -6 -11    0.18    0.11
  -6  -6 -11    0.34    0.15
   6   6  11    0.12    0.11
   6   6  11    0.29    0.14
   5  -7 -11    0.00    0.10
  -5   7  11    0.03    0.10
  -5   7  11   -0.11    0.09
   4  -7 -11    0.60    0.14
  -4   7  11    0.56    0.14
  -4   7  11    0.68    0.17
  -4   7  11    0.64    0.17
   3  -7 -11    1.09    0.17
  -3   7  11    1.72    0.21
  -3   7  11    1.36    0.21
  -3   7  11    1.12    0.19
   2  -7 -11    0.24    0.11
  -2   7  11    0.24    0.09
  -2   7  11    0.21    0.10
  -2   7  11    0.31    0.11
   1  -7 -11   -0.06    0.06
  -1   7  11   -0.06    0.04
  -1   7  11   -0.06    0.06
  -1   7  11   -0.02    0.07
   0  -7 -11    0.12    0.08
   0   7  11    0.00    0.04
   0   7  11   -0.08    0.06
   0   7  11    0.01    0.06
   0   7  11    0.02    0.07
  -1  -7 -11    0.04    0.06
  -1  -7 -11   -0.01    0.07
   1   7  11   -0.04    0.06
   1   7  11    0.10    0.07
   1   7  11    0.07    0.07
   1   7  11    0.07    0.05
  -2  -7 -11    3.36    0.25
  -2  -7 -11    3.48    0.24
   2   7  11    3.67    0.26
   2   7  11    3.54    0.24
   2   7  11    3.42    0.23
  -3  -7 -11    0.17    0.10
  -3  -7 -11    0.53    0.13
   3   7  11    0.29    0.10
   3   7  11    0.30    0.11
   3   7  11    0.35    0.11
  -4  -7 -11    0.46    0.13
  -4  -7 -11    0.40    0.14
   4   7  11    0.33    0.12
   4   7  11    0.36    0.12
   4   7  11    0.35    0.13
  -5  -7 -11    1.06    0.20
  -5  -7 -11    1.71    0.26
   5   7  11    1.89    0.24
   5   7  11    1.56    0.23
   5   7  11    1.87    0.26
  -6  -7 -11    0.03    0.11
  -6  -7 -11    0.10    0.12
   6   7  11   -0.01    0.11
   6   7  11    0.07    0.11
  -5   8  11    0.05    0.12
  -5   8  11    0.16    0.12
   4  -8 -11    0.23    0.11
  -4   8  11    0.34    0.14
  -4   8  11    0.32    0.13
  -4   8  11    0.35    0.14
   3  -8 -11    0.91    0.16
  -3   8  11    1.00    0.18
  -3   8  11    0.83    0.17
  -3   8  11    0.91    0.18
   2  -8 -11   -0.17    0.07
  -2   8  11    0.09    0.08
  -2   8  11   -0.08    0.08
  -2   8  11   -0.02    0.09
   1  -8 -11    0.18    0.11
  -1   8  11    0.37    0.12
  -1   8  11    0.33    0.12
  -1   8  11    0.20    0.11
   0  -8 -11    1.16    0.17
   0   8  11    1.17    0.17
   0   8  11    1.00    0.15
  -1  -8 -11    1.41    0.20
   1   8  11    2.01    0.19
   1   8  11    1.94    0.18
   1   8  11    1.95    0.19
   1   8  11    1.80    0.21
  -2  -8 -11   -0.12    0.07
  -2  -8 -11   -0.04    0.08
   2   8  11   -0.10    0.08
   2   8  11   -0.07    0.07
   2   8  11   -0.09    0.08
  -3  -8 -11    4.78    0.31
  -3  -8 -11    4.93    0.33
   3   8  11    4.56    0.30
   3   8  11    4.42    0.30
   3   8  11    4.93    0.32
  -4  -8 -11    0.13    0.11
  -4  -8 -11    0.23    0.12
   4   8  11    0.10    0.09
   4   8  11    0.28    0.12
   4   8  11    0.04    0.09
  -5  -8 -11   -0.02    0.11
  -5  -8 -11    0.07    0.13
   5   8  11    0.05    0.10
   5   8  11    0.00    0.11
   5   8  11    0.04    0.11
   4  -9 -11    0.70    0.16
  -4   9  11    0.53    0.17
  -4   9  11    0.47    0.16
  -4   9  11    0.45    0.16
   3  -9 -11    1.84    0.22
  -3   9  11    1.76    0.24
  -3   9  11    1.61    0.24
  -3   9  11    1.79    0.24
   2  -9 -11    2.32    0.25
  -2   9  11    2.31    0.26
  -2   9  11    2.49    0.27
  -2   9  11    3.06    0.30
   1  -9 -11    1.57    0.21
  -1   9  11    1.65    0.21
  -1   9  11    1.56    0.21
  -1   9  11    1.39    0.20
   0  -9 -11   12.23    0.53
   0   9  11   13.23    0.51
   0   9  11   13.33    0.54
  -1  -9 -11    7.41    0.40
   1   9  11    7.32    0.39
  -2  -9 -11    1.02    0.16
  -2  -9 -11    0.82    0.18
   2   9  11    1.18    0.17
   2   9  11    1.25    0.18
   2   9  11    0.80    0.16
  -3  -9 -11    6.18    0.40
  -3  -9 -11    6.16    0.36
   3   9  11    5.74    0.35
   3   9  11    5.13    0.33
   3   9  11    5.45    0.34
  -4  -9 -11    2.82    0.33
  -4  -9 -11    2.01    0.26
   4   9  11    2.45    0.28
   4   9  11    3.01    0.31
   4   9  11    2.37    0.27
  -5  -9 -11    0.22    0.15
  -5  -9 -11    0.39    0.15
   5   9  11    0.09    0.10
   5   9  11    0.19    0.14
  -4  10  11    0.17    0.11
  -4  10  11   -0.11    0.08
   3 -10 -11   -0.01    0.10
  -3  10  11    0.05    0.08
  -3  10  11   -0.06    0.10
  -3  10  11   -0.02    0.10
   2 -10 -11    0.64    0.15
  -2  10  11    0.37    0.15
  -2  10  11    0.35    0.14
  -2  10  11    0.42    0.13
   1 -10 -11    0.60    0.15
  -1  10  11    0.28    0.12
  -1  10  11    0.47    0.13
  -1  10  11    0.50    0.14
   0 -10 -11    0.75    0.16
   0  10  11    1.19    0.20
   0  10  11    1.29    0.19
  -1 -10 -11    2.66    0.28
   1  10  11    2.16    0.25
  -2 -10 -11    7.14    0.42
   2  10  11    7.52    0.41
  -3 -10 -11    3.11    0.33
  -3 -10 -11    2.90    0.30
   3  10  11    3.14    0.26
   3  10  11    3.42    0.32
   3  10  11    3.30    0.28
  -4 -10 -11    3.04    0.35
  -4 -10 -11    2.82    0.30
   4  10  11    2.40    0.28
   4  10  11    2.61    0.29
   4  10  11    3.15    0.33
  -3  11  11    0.02    0.10
  -3  11  11    0.15    0.12
  -3  11  11    0.07    0.11
   2 -11 -11    0.24    0.12
  -2  11  11    0.30    0.14
  -2  11  11    0.11    0.11
  -2  11  11    0.21    0.12
   1 -11 -11    0.31    0.13
  -1  11  11    0.04    0.11
  -1  11  11    0.14    0.10
   0 -11 -11    0.29    0.12
   0  11  11    0.33    0.12
   0  11  11    0.31    0.12
  -1 -11 -11   -0.04    0.09
   1  11  11    0.07    0.10
  -2 -11 -11    2.33    0.29
   2  11  11    2.35    0.27
  -3 -11 -11    0.18    0.12
  -3 -11 -11    0.12    0.12
   3  11  11   -0.05    0.10
   3  11  11    0.00    0.09
  -4 -11 -11    0.25    0.13
  -4 -11 -11    0.35    0.16
   4  11  11    0.20    0.14
   4  11  11    0.05    0.10
   4  11  11    0.05    0.11
  -2  12  11    0.04    0.11
  -2  12  11    0.10    0.12
  -2  12  11    0.39    0.14
   1 -12 -11    1.44    0.22
  -1  12  11    1.26    0.21
  -1  12  11    1.11    0.21
   0 -12 -11   -0.02    0.10
   0  12  11    0.03    0.09
   0  12  11    0.17    0.12
  -1 -12 -11    0.09    0.11
   1  12  11    0.00    0.09
  -2 -12 -11    0.46    0.16
   2  12  11    0.44    0.15
  -3 -12 -11    0.25    0.15
   3  12  11    0.06    0.11
   0 -13 -11    0.16    0.13
   0  13  11    0.26    0.14
   0  13  11    0.20    0.13
  -1 -13 -11    0.16    0.14
   1  13  11    0.22    0.13
   2   8 -12    0.00    0.10
  -2  -8  12    0.08    0.11
   1   8 -12    0.38    0.14
  -1  -8  12    1.04    0.19
   0   8 -12    0.07    0.11
   0  -8  12    0.03    0.08
  -1   8 -12    0.13    0.12
   1  -8  12    0.47    0.13
   1  -8  12    0.26    0.11
  -2   8 -12    1.02    0.20
   2  -8  12    0.39    0.13
   3   7 -12    0.80    0.18
   3   7 -12    0.64    0.17
  -3  -7  12    0.71    0.18
  -3  -7  12    0.62    0.16
   2   7 -12    1.40    0.22
  -2  -7  12    1.84    0.24
   1   7 -12    2.45    0.28
  -1  -7  12    1.79    0.23
   0   7 -12    3.01    0.30
   0  -7  12    2.37    0.26
   0  -7  12    2.36    0.25
  -1   7 -12    4.09    0.30
   1  -7  12    3.43    0.27
   1  -7  12    3.67    0.27
  -2   7 -12    3.38    0.27
   2  -7  12    3.28    0.26
   2  -7  12    2.41    0.25
  -3   7 -12    1.26    0.23
  -3   7 -12    1.25    0.21
  -3   7 -12    1.00    0.22
   3  -7  12    1.12    0.18
   3  -7  12    1.69    0.26
   3  -7  12    1.14    0.18
   4   6 -12    1.09    0.19
   4   6 -12    0.62    0.18
  -4  -6  12    0.83    0.19
  -4  -6  12    0.80    0.19
   3   6 -12    0.32    0.13
   3   6 -12    0.17    0.12
  -3  -6  12    0.40    0.13
  -3  -6  12    0.45    0.14
   2   6 -12    0.86    0.16
   2   6 -12    0.73    0.16
  -2  -6  12    0.66    0.14
  -2  -6  12    0.69    0.15
   1   6 -12    0.56    0.14
  -1  -6  12    0.62    0.13
   0   6 -12    1.64    0.21
   0  -6  12    1.40    0.19
   0  -6  12    1.18    0.17
  -1   6 -12    1.00    0.18
   1  -6  12    0.79    0.15
   1  -6  12    1.00    0.16
  -2   6 -12    0.16    0.10
  -2   6 -12    0.21    0.13
  -2   6 -12    0.20    0.13
   2  -6  12    0.30    0.13
   2  -6  12    0.48    0.12
   2  -6  12    0.20    0.10
  -3   6 -12    2.77    0.29
  -3   6 -12    2.41    0.30
  -3   6 -12    2.68    0.31
   3  -6  12    2.54    0.26
   3  -6  12    2.98    0.32
   3  -6  12    2.57    0.26
  -4   6 -12    1.00    0.19
  -4   6 -12    0.89    0.21
  -4   6 -12    0.50    0.16
   4  -6  12    0.73    0.20
   4  -6  12    0.68    0.15
   4  -6  12    0.99    0.17
   5   5 -12    0.07    0.12
   5   5 -12   -0.02    0.09
  -5  -5  12   -0.08    0.09
  -5  -5  12   -0.11    0.10
   4   5 -12    0.82    0.19
   4   5 -12    1.03    0.19
  -4  -5  12    1.13    0.20
  -4  -5  12    0.98    0.20
   3   5 -12    1.25    0.19
   3   5 -12    1.32    0.20
  -3  -5  12    1.34    0.20
  -3  -5  12    1.20    0.19
   2   5 -12   -0.02    0.08
   2   5 -12   -0.06    0.08
  -2  -5  12    0.15    0.09
  -2  -5  12    0.05    0.08
   1   5 -12    0.24    0.10
   1   5 -12    0.05    0.07
  -1  -5  12    0.23    0.09
  -1  -5  12    0.20    0.09
   0   5 -12    0.70    0.15
   0  -5  12    0.37    0.11
   0  -5  12    0.30    0.10
  -1   5 -12    2.22    0.24
   1  -5  12    2.12    0.22
   1  -5  12    2.13    0.22
  -2   5 -12    5.75    0.35
  -2   5 -12    4.27    0.34
  -2   5 -12    5.77    0.33
   2  -5  12    5.63    0.35
   2  -5  12    5.20    0.31
   2  -5  12    5.52    0.31
  -3   5 -12    0.88    0.19
  -3   5 -12    1.29    0.19
  -3   5 -12    0.73    0.17
   3  -5  12    0.87    0.15
   3  -5  12    0.95    0.15
   3  -5  12    0.90    0.19
  -4   5 -12    1.55    0.25
  -4   5 -12    1.61    0.23
  -4   5 -12    1.47    0.22
   4  -5  12    1.01    0.17
   4  -5  12    1.47    0.20
   4  -5  12    1.35    0.24
   5   4 -12    0.03    0.11
   5   4 -12    0.17    0.13
  -5  -4  12    0.13    0.11
  -5  -4  12    0.40    0.15
   4   4 -12    0.03    0.11
   4   4 -12    0.33    0.12
  -4  -4  12    0.19    0.11
  -4  -4  12    0.14    0.10
   3   4 -12    0.03    0.10
   3   4 -12    0.17    0.10
  -3  -4  12    0.18    0.10
  -3  -4  12    0.18    0.09
   2   4 -12    0.76    0.14
   2   4 -12    1.01    0.17
  -2  -4  12    0.80    0.15
   1   4 -12    7.83    0.36
   1   4 -12    7.74    0.38
  -1  -4  12    7.46    0.38
  -1  -4  12    8.32    0.37
   0   4 -12    0.03    0.07
   0   4 -12   -0.06    0.05
   0  -4  12    0.02    0.06
   0  -4  12    0.05    0.06
  -1   4 -12    7.56    0.37
  -1   4 -12    8.75    0.45
   1  -4  12    7.27    0.36
   1  -4  12    7.60    0.36
   1  -4  12    7.82    0.36
  -2   4 -12    0.90    0.16
  -2   4 -12    0.59    0.15
  -2   4 -12    0.57    0.13
   2  -4  12    0.74    0.13
   2  -4  12    0.79    0.13
   2  -4  12    0.72    0.15
  -3   4 -12    0.17    0.11
  -3   4 -12    0.13    0.10
  -3   4 -12    0.27    0.10
   3  -4  12    0.23    0.09
   3  -4  12    0.12    0.08
   3  -4  12    0.20    0.11
  -4   4 -12    0.21    0.13
  -4   4 -12    0.36    0.11
  -4   4 -12    0.52    0.15
   4  -4  12    0.07    0.07
   4  -4  12    0.35    0.10
   4  -4  12    0.19    0.13
  -5   4 -12   -0.02    0.08
  -5   4 -12    0.09    0.12
   5  -4  12    0.02    0.08
   5  -4  12   -0.03    0.10
   5  -4  12    0.09    0.10
   5   3 -12    0.03    0.09
   5   3 -12    0.04    0.10
  -5  -3  12    0.03    0.10
  -5  -3  12    0.12    0.10
   4   3 -12    0.04    0.10
   4   3 -12    0.00    0.08
  -4  -3  12    0.08    0.10
  -4  -3  12    0.00    0.08
   3   3 -12    1.38    0.20
   3   3 -12    1.01    0.17
  -3  -3  12    1.57    0.20
  -3  -3  12    1.84    0.23
   2   3 -12    4.42    0.28
   2   3 -12    4.42    0.28
  -2  -3  12    4.57    0.27
   1   3 -12    0.51    0.12
   1   3 -12    0.40    0.11
  -1  -3  12    0.37    0.10
  -1  -3  12    0.43    0.10
   0   3 -12    0.00    0.06
   0   3 -12    0.09    0.06
   0  -3  12    0.05    0.06
   0  -3  12   -0.08    0.04
  -1   3 -12    1.98    0.21
  -1   3 -12    1.39    0.21
  -1   3 -12    2.24    0.19
   1  -3  12    1.93    0.19
   1  -3  12    2.20    0.21
   1  -3  12    2.07    0.20
  -2   3 -12    5.83    0.33
  -2   3 -12    5.92    0.36
  -2   3 -12    5.89    0.31
   2  -3  12    5.34    0.32
   2  -3  12    5.47    0.30
   2  -3  12    5.69    0.30
  -3   3 -12    5.09    0.34
  -3   3 -12    5.44    0.30
  -3   3 -12    5.41    0.34
   3  -3  12    6.06    0.36
   3  -3  12    4.97    0.30
   3  -3  12    5.68    0.31
  -4   3 -12   -0.11    0.08
  -4   3 -12   -0.06    0.08
  -4   3 -12    0.01    0.07
   4  -3  12    0.14    0.09
   4  -3  12   -0.04    0.07
   4  -3  12    0.01    0.11
  -5   3 -12    0.80    0.17
  -5   3 -12    1.01    0.20
   5  -3  12    0.84    0.16
   5  -3  12    0.88    0.20
   5  -3  12    0.98    0.17
   6   2 -12    0.87    0.19
   6   2 -12    0.51    0.18
   5   2 -12    0.21    0.12
   5   2 -12    0.02    0.11
  -5  -2  12    0.10    0.11
   4   2 -12    0.45    0.14
   4   2 -12    0.58    0.15
  -4  -2  12    0.66    0.13
  -4  -2  12    0.78    0.16
   3   2 -12    0.68    0.14
   3   2 -12    0.50    0.13
  -3  -2  12    0.73    0.13
   2   2 -12    7.63    0.37
   2   2 -12    8.30    0.38
  -2  -2  12    7.97    0.35
  -2  -2  12    7.89    0.37
   1   2 -12    1.88    0.19
   1   2 -12    1.64    0.18
  -1  -2  12    1.76    0.19
  -1  -2  12    1.60    0.17
   0   2 -12    0.57    0.10
   0   2 -12    1.22    0.15
   0  -2  12    1.05    0.14
   0  -2  12    1.24    0.15
  -1   2 -12    1.28    0.14
  -1   2 -12    1.05    0.14
   1  -2  12    1.22    0.15
   1  -2  12    1.54    0.17
   1  -2  12    1.28    0.16
  -2   2 -12    1.37    0.16
  -2   2 -12    1.47    0.19
   2  -2  12    1.33    0.18
   2  -2  12    1.53    0.17
   2  -2  12    1.25    0.16
  -3   2 -12   -0.08    0.05
  -3   2 -12    0.11    0.09
   3  -2  12   -0.13    0.06
   3  -2  12    0.06    0.07
   3  -2  12   -0.06    0.08
  -4   2 -12    7.53    0.43
   4  -2  12    7.84    0.39
   4  -2  12    7.49    0.38
   4  -2  12    8.17    0.45
  -5   2 -12   -0.03    0.10
  -5   2 -12    0.00    0.08
   5  -2  12   -0.05    0.10
   5  -2  12    0.01    0.08
   5  -2  12    0.02    0.08
   6   1 -12   -0.02    0.12
   5   1 -12    0.01    0.10
   5   1 -12    0.03    0.10
   4   1 -12    0.02    0.09
   4   1 -12   -0.02    0.08
  -4  -1  12   -0.03    0.06
   3   1 -12    8.13    0.40
   3   1 -12    8.45    0.41
  -3  -1  12    8.96    0.37
   2   1 -12    0.64    0.13
   2   1 -12    0.52    0.12
  -2  -1  12    0.43    0.10
  -2  -1  12    0.47    0.10
   1   1 -12    5.18    0.28
   1   1 -12    5.19    0.27
  -1  -1  12    4.81    0.26
  -1  -1  12    4.84    0.24
   0   1 -12   17.18    0.56
   0   1 -12   17.65    0.57
   0  -1  12   16.47    0.58
   0  -1  12   18.25    0.56
   0  -1  12   18.19    0.53
  -1   1 -12    2.47    0.18
  -1   1 -12    2.10    0.16
   1  -1  12    2.50    0.18
   1  -1  12    2.39    0.18
   1  -1  12    2.45    0.18
  -2   1 -12    0.77    0.11
  -2   1 -12    0.81    0.12
   2  -1  12    0.80    0.13
   2  -1  12    0.87    0.13
   2  -1  12    0.81    0.14
  -3   1 -12    2.53    0.19
   3  -1  12    2.67    0.21
   3  -1  12    3.24    0.22
   3  -1  12    3.10    0.25
   4  -1  12    0.81    0.15
   4  -1  12    0.73    0.17
   4  -1  12    0.76    0.15
   5  -1  12    0.59    0.14
   5  -1  12    0.73    0.18
   5  -1  12    0.52    0.13
  -6   1 -12    1.77    0.22
   6  -1  12    2.17    0.26
   6  -1  12    2.09    0.29
   6   0 -12    1.85    0.26
   5   0 -12    1.16    0.20
  -5   0  12    1.19    0.20
   4   0 -12    0.10    0.10
  -4   0  12   -0.05    0.08
   3   0 -12    9.93    0.44
   3   0 -12    9.65    0.44
  -3   0  12    9.77    0.44
  -3   0  12   10.92    0.39
   2   0 -12   14.68    0.54
   2   0 -12   14.41    0.53
  -2   0  12   14.14    0.52
  -2   0  12   14.17    0.46
  -2   0  12   13.77    0.51
   1   0 -12    5.07    0.26
   1   0 -12    5.43    0.28
  -1   0  12    5.20    0.26
  -1   0  12    5.30    0.24
   0   0 -12    4.59    0.24
   0   0 -12    4.99    0.25
   0   0  12    4.86    0.22
   0   0  12    4.10    0.23
   0   0  12    4.83    0.23
  -1   0 -12    4.40    0.23
  -1   0 -12    3.66    0.21
   1   0  12    3.55    0.22
   1   0  12    3.52    0.20
  -2   0 -12    2.63    0.17
  -2   0 -12    2.80    0.19
   2   0  12    2.51    0.19
   2   0  12    2.74    0.22
   2   0  12    2.62    0.19
  -3   0 -12    5.73    0.28
   3   0  12    6.16    0.32
   3   0  12    5.74    0.30
   3   0  12    6.05    0.34
   4   0  12   14.10    0.58
   4   0  12   16.15    0.64
   4   0  12   15.74    0.59
   5   0  12    0.08    0.08
   5   0  12    0.03    0.10
   5   0  12   -0.06    0.07
   6   0  12    1.08    0.22
   6   0  12    1.07    0.19
   6  -1 -12    1.21    0.22
  -6   1  12    1.16    0.22
  -6   1  12    0.83    0.17
   5  -1 -12    1.20    0.20
  -5   1  12    1.52    0.22
  -5   1  12    1.20    0.20
   4  -1 -12    0.52    0.13
  -4   1  12    0.43    0.13
  -4   1  12    0.60    0.15
   3  -1 -12    0.43    0.12
  -3   1  12    0.64    0.13
   2  -1 -12   13.64    0.50
  -2   1  12   13.56    0.43
  -2   1  12   14.30    0.51
  -2   1  12   12.94    0.47
   1  -1 -12    3.56    0.22
   1  -1 -12    3.87    0.22
  -1   1  12    3.06    0.19
  -1   1  12    3.52    0.21
  -1   1  12    3.27    0.18
  -1   1  12    3.16    0.16
   0  -1 -12   11.15    0.41
   0  -1 -12   11.62    0.42
   0   1  12   11.46    0.39
   0   1  12   11.90    0.39
   0   1  12   11.49    0.42
  -1  -1 -12    0.14    0.06
  -1  -1 -12    0.11    0.06
   1   1  12    0.13    0.06
   1   1  12    0.09    0.06
   1   1  12    0.09    0.07
  -2  -1 -12    0.72    0.12
  -2  -1 -12    0.61    0.09
   2   1  12    0.50    0.10
   2   1  12    0.64    0.12
   2   1  12    0.50    0.10
  -3  -1 -12    7.19    0.31
   3   1  12    6.32    0.35
   3   1  12    5.72    0.31
   3   1  12    6.97    0.34
   4   1  12    2.88    0.23
   4   1  12    2.94    0.23
   4   1  12    3.36    0.27
   5   1  12    0.63    0.15
   5   1  12    0.94    0.19
   5   1  12    0.63    0.14
  -6  -1 -12    0.17    0.11
   6   1  12    0.06    0.11
   6   1  12    0.16    0.11
   6  -2 -12    0.07    0.12
  -6   2  12    0.10    0.11
  -6   2  12   -0.09    0.09
   5  -2 -12    5.38    0.34
  -5   2  12    4.80    0.35
  -5   2  12    5.65    0.37
   4  -2 -12    3.34    0.25
  -4   2  12    3.05    0.29
  -4   2  12    3.65    0.29
   3  -2 -12    0.79    0.14
  -3   2  12    0.79    0.15
  -3   2  12    0.76    0.14
   2  -2 -12    3.17    0.21
  -2   2  12    3.00    0.19
  -2   2  12    3.04    0.16
  -2   2  12    2.74    0.21
  -2   2  12    3.14    0.22
   1  -2 -12    1.09    0.14
  -1   2  12    1.20    0.11
  -1   2  12    1.26    0.13
  -1   2  12    1.45    0.11
  -1   2  12    1.44    0.16
   0  -2 -12   23.40    0.73
   0  -2 -12   24.71    0.70
   0   2  12   24.28    0.69
   0   2  12   23.98    0.66
   0   2  12   24.12    0.66
   0   2  12   22.73    0.70
  -1  -2 -12    4.08    0.20
  -1  -2 -12    4.26    0.23
   1   2  12    4.42    0.24
   1   2  12    4.20    0.21
   1   2  12    3.90    0.22
  -2  -2 -12    1.50    0.17
   2   2  12    1.30    0.16
   2   2  12    1.21    0.15
   2   2  12    1.09    0.14
  -3  -2 -12    2.07    0.21
   3   2  12    2.23    0.21
   3   2  12    1.84    0.20
   3   2  12    1.63    0.20
  -4  -2 -12    0.13    0.09
  -4  -2 -12    0.03    0.05
   4   2  12    0.13    0.10
   4   2  12    0.31    0.10
   4   2  12    0.19    0.10
  -5  -2 -12    0.06    0.09
   5   2  12    0.14    0.11
   5   2  12    0.04    0.07
   5   2  12   -0.06    0.08
  -6  -2 -12    0.16    0.10
   6   2  12   -0.01    0.10
   6   2  12    0.12    0.11
   6  -3 -12    0.01    0.11
  -6   3  12    0.16    0.12
   5  -3 -12    0.60    0.15
  -5   3  12    0.46    0.15
  -5   3  12    0.59    0.16
   4  -3 -12   14.92    0.57
  -4   3  12   13.21    0.58
  -4   3  12   13.46    0.58
   3  -3 -12    0.00    0.08
  -3   3  12    0.10    0.08
  -3   3  12    0.13    0.09
   2  -3 -12    5.13    0.28
  -2   3  12    5.27    0.24
  -2   3  12    5.59    0.30
  -2   3  12    5.37    0.24
  -2   3  12    5.40    0.30
   1  -3 -12    0.03    0.06
  -1   3  12    0.17    0.07
  -1   3  12    0.11    0.07
  -1   3  12    0.04    0.05
  -1   3  12    0.07    0.05
  -1   3  12    0.09    0.04
   0  -3 -12    1.27    0.13
   0  -3 -12    1.06    0.14
   0   3  12    1.44    0.14
   0   3  12    0.88    0.12
   0   3  12    1.11    0.11
   0   3  12    1.33    0.13
  -1  -3 -12    0.86    0.13
  -1  -3 -12    1.01    0.11
   1   3  12    0.87    0.11
   1   3  12    0.83    0.09
   1   3  12    0.87    0.12
   1   3  12    0.96    0.13
  -2  -3 -12    0.04    0.05
  -2  -3 -12    0.10    0.07
   2   3  12    0.13    0.07
   2   3  12    0.20    0.07
   2   3  12    0.12    0.07
  -3  -3 -12   13.49    0.51
  -3  -3 -12   13.81    0.52
   3   3  12   13.02    0.52
   3   3  12   13.50    0.52
   3   3  12   12.65    0.50
  -4  -3 -12    1.13    0.17
  -4  -3 -12    0.93    0.16
   4   3  12    0.79    0.14
   4   3  12    0.85    0.16
   4   3  12    0.81    0.16
  -5  -3 -12    1.47    0.21
  -5  -3 -12    1.74    0.23
   5   3  12    1.41    0.22
   5   3  12    2.01    0.25
   5   3  12    1.31    0.20
  -6  -3 -12   -0.05    0.07
   6   3  12   -0.07    0.09
   6   3  12    0.04    0.09
   6  -4 -12    0.05    0.11
  -6   4  12   -0.12    0.09
   5  -4 -12    3.75    0.28
  -5   4  12    4.00    0.33
  -5   4  12    4.01    0.31
   4  -4 -12    4.14    0.28
  -4   4  12    3.82    0.30
  -4   4  12    3.13    0.31
   3  -4 -12   -0.02    0.07
  -3   4  12    0.03    0.07
  -3   4  12    0.08    0.08
   2  -4 -12   11.24    0.46
  -2   4  12   12.00    0.47
  -2   4  12   11.68    0.41
  -2   4  12   11.64    0.47
  -2   4  12   11.77    0.39
   1  -4 -12    0.72    0.12
  -1   4  12    0.82    0.12
  -1   4  12    0.68    0.12
  -1   4  12    0.86    0.10
   0  -4 -12   12.08    0.46
   0   4  12   13.26    0.45
   0   4  12   12.12    0.42
   0   4  12   12.38    0.39
   0   4  12   12.51    0.42
  -1  -4 -12    0.79    0.13
  -1  -4 -12    0.94    0.10
   1   4  12    0.89    0.12
   1   4  12    0.41    0.10
   1   4  12    0.68    0.10
  -2  -4 -12    4.04    0.25
  -2  -4 -12    3.83    0.23
   2   4  12    4.23    0.26
   2   4  12    4.28    0.24
   2   4  12    3.57    0.23
  -3  -4 -12    1.09    0.15
  -3  -4 -12    1.34    0.18
   3   4  12    1.31    0.18
   3   4  12    1.15    0.16
   3   4  12    1.07    0.16
  -4  -4 -12    0.25    0.10
  -4  -4 -12    0.09    0.09
   4   4  12    0.03    0.09
   4   4  12    0.12    0.09
   4   4  12    0.12    0.09
  -5  -4 -12    2.78    0.30
  -5  -4 -12    2.00    0.25
   5   4  12    2.37    0.26
   5   4  12    2.49    0.28
   5   4  12    2.32    0.27
  -6  -4 -12    0.56    0.17
  -6  -4 -12    0.31    0.12
   6   4  12    0.67    0.17
   6   4  12    0.39    0.14
  -6   5  12    0.81    0.21
   5  -5 -12    1.91    0.23
  -5   5  12    1.94    0.27
  -5   5  12    2.36    0.28
   4  -5 -12    0.71    0.15
  -4   5  12    0.85    0.17
  -4   5  12    1.19    0.20
   3  -5 -12    0.11    0.09
  -3   5  12    0.05    0.08
  -3   5  12    0.21    0.08
  -3   5  12   -0.03    0.07
   2  -5 -12    0.04    0.07
  -2   5  12   -0.07    0.06
  -2   5  12   -0.08    0.06
  -2   5  12    0.01    0.04
   1  -5 -12    1.41    0.17
  -1   5  12    1.61    0.18
  -1   5  12    1.77    0.18
  -1   5  12    1.81    0.18
  -1   5  12    1.72    0.12
   0  -5 -12    5.36    0.29
   0   5  12    5.46    0.28
   0   5  12    5.32    0.26
   0   5  12    6.04    0.27
   0   5  12    5.84    0.23
   0   5  12    5.69    0.25
  -1  -5 -12    1.65    0.16
  -1  -5 -12    1.70    0.19
   1   5  12    1.71    0.16
   1   5  12    1.81    0.15
   1   5  12    1.94    0.20
  -2  -5 -12    0.11    0.07
  -2  -5 -12    0.06    0.07
   2   5  12    0.00    0.05
   2   5  12    0.18    0.07
   2   5  12    0.08    0.07
  -3  -5 -12    0.17    0.09
  -3  -5 -12    0.49    0.12
   3   5  12    0.24    0.08
   3   5  12    0.31    0.10
   3   5  12    0.44    0.11
  -4  -5 -12    2.19    0.26
  -4  -5 -12    2.37    0.26
   4   5  12    2.11    0.24
   4   5  12    1.97    0.24
   4   5  12    2.31    0.24
  -5  -5 -12    0.04    0.09
  -5  -5 -12   -0.04    0.11
   5   5  12    0.16    0.10
   5   5  12   -0.06    0.09
   5   5  12   -0.03    0.09
  -6  -5 -12    3.20    0.34
  -6  -5 -12    3.14    0.33
   6   5  12    2.88    0.32
   6   5  12    3.31    0.34
   5  -6 -12    0.38    0.13
  -5   6  12    0.44    0.16
  -5   6  12    0.32    0.13
   4  -6 -12    5.08    0.32
  -4   6  12    5.07    0.35
  -4   6  12    5.64    0.37
   3  -6 -12    0.02    0.08
  -3   6  12    0.08    0.07
  -3   6  12   -0.10    0.07
  -3   6  12    0.14    0.10
   2  -6 -12    5.99    0.32
  -2   6  12    6.01    0.31
  -2   6  12    5.94    0.33
  -2   6  12    5.50    0.32
   1  -6 -12    0.64    0.13
  -1   6  12    0.38    0.10
  -1   6  12    0.54    0.11
   0  -6 -12   15.74    0.58
   0   6  12   17.41    0.58
   0   6  12   16.44    0.53
   0   6  12   16.48    0.53
   0   6  12   15.68    0.51
  -1  -6 -12   19.46    0.59
  -1  -6 -12   18.22    0.66
   1   6  12   18.86    0.61
   1   6  12   19.79    0.65
   1   6  12   19.52    0.59
  -2  -6 -12    0.05    0.07
  -2  -6 -12    0.03    0.07
   2   6  12    0.03    0.06
   2   6  12    0.11    0.07
   2   6  12    0.20    0.09
  -3  -6 -12    7.33    0.37
  -3  -6 -12    7.10    0.38
   3   6  12    7.25    0.37
   3   6  12    6.91    0.36
   3   6  12    7.07    0.36
  -4  -6 -12    0.17    0.12
  -4  -6 -12    0.31    0.11
   4   6  12    0.32    0.12
   4   6  12    0.04    0.08
   4   6  12    0.25    0.11
  -5  -6 -12    3.16    0.32
  -5  -6 -12    3.58    0.30
   5   6  12    4.19    0.32
   5   6  12    3.69    0.30
   5   6  12    3.42    0.29
  -6  -6 -12    2.14    0.30
  -6  -6 -12    1.65    0.25
   6   6  12    2.68    0.32
   6   6  12    2.25    0.29
   5  -7 -12    1.09    0.19
  -5   7  12    0.89    0.19
  -5   7  12    0.86    0.20
   4  -7 -12    0.57    0.14
  -4   7  12    0.61    0.16
  -4   7  12    0.75    0.16
  -4   7  12    0.51    0.16
   3  -7 -12    0.58    0.14
  -3   7  12    0.86    0.17
  -3   7  12    0.57    0.15
  -3   7  12    0.64    0.14
   2  -7 -12    7.39    0.37
  -2   7  12    7.18    0.38
  -2   7  12    7.41    0.37
  -2   7  12    8.44    0.41
   1  -7 -12    1.40    0.19
  -1   7  12    1.75    0.19
  -1   7  12    1.70    0.20
   0  -7 -12   14.11    0.56
   0   7  12   14.89    0.55
   0   7  12   15.12    0.52
  -1  -7 -12    5.17    0.31
  -1  -7 -12    5.59    0.27
   1   7  12    5.28    0.26
   1   7  12    5.86    0.32
   1   7  12    5.00    0.26
  -2  -7 -12    0.09    0.07
  -2  -7 -12    0.03    0.08
   2   7  12    0.15    0.08
   2   7  12   -0.04    0.06
   2   7  12    0.08    0.07
  -3  -7 -12    1.02    0.17
  -3  -7 -12    0.67    0.16
   3   7  12    1.26    0.18
   3   7  12    0.83    0.16
   3   7  12    1.27    0.18
  -4  -7 -12    0.91    0.18
  -4  -7 -12    1.10    0.20
   4   7  12    1.18    0.20
   4   7  12    1.10    0.18
   4   7  12    1.02    0.18
  -5  -7 -12    1.61    0.26
  -5  -7 -12    2.02    0.26
   5   7  12    2.19    0.28
   5   7  12    1.71    0.24
   5   7  12    1.77    0.25
   6   7  12   -0.10    0.10
   6   7  12    0.05    0.11
   5  -8 -12    1.17    0.20
  -5   8  12    1.27    0.24
   4  -8 -12    7.13    0.39
  -4   8  12    6.81    0.43
  -4   8  12    7.37    0.45
  -4   8  12    6.73    0.40
   3  -8 -12   -0.09    0.08
  -3   8  12   -0.03    0.07
  -3   8  12    0.11    0.11
  -3   8  12   -0.06    0.09
   2  -8 -12    5.34    0.32
  -2   8  12    5.59    0.32
  -2   8  12    6.34    0.36
  -2   8  12    5.29    0.33
   1  -8 -12    1.44    0.19
  -1   8  12    1.22    0.17
  -1   8  12    1.17    0.18
  -1   8  12    1.27    0.18
   0  -8 -12    3.65    0.26
   0   8  12    2.96    0.24
   0   8  12    3.32    0.24
  -1  -8 -12   13.97    0.57
   1   8  12   14.03    0.56
   1   8  12   15.14    0.52
  -2  -8 -12    4.54    0.28
  -2  -8 -12    4.04    0.30
   2   8  12    4.33    0.30
   2   8  12    4.11    0.27
   2   8  12    3.87    0.26
  -3  -8 -12    0.01    0.09
  -3  -8 -12    0.19    0.11
   3   8  12   -0.02    0.08
   3   8  12    0.01    0.08
   3   8  12   -0.03    0.08
  -4  -8 -12    0.31    0.14
  -4  -8 -12    0.22    0.12
   4   8  12    0.15    0.12
   4   8  12    0.15    0.12
   4   8  12    0.26    0.11
  -5  -8 -12    0.75    0.20
  -5  -8 -12    1.18    0.21
   5   8  12    0.63    0.16
   5   8  12    0.70    0.18
   5   8  12    0.89    0.19
   4  -9 -12    3.93    0.29
  -4   9  12    3.14    0.34
  -4   9  12    2.73    0.33
  -4   9  12    4.23    0.32
   3  -9 -12    1.30    0.20
  -3   9  12    1.52    0.24
  -3   9  12    1.04    0.19
   2  -9 -12    1.69    0.22
  -2   9  12    1.01    0.18
  -2   9  12    1.20    0.20
  -2   9  12    1.08    0.19
   1  -9 -12    1.51    0.21
  -1   9  12    1.34    0.20
  -1   9  12    1.03    0.18
  -1   9  12    1.25    0.20
   0  -9 -12   17.52    0.68
   0   9  12   19.66    0.65
   0   9  12   17.54    0.67
  -1  -9 -12    2.32    0.26
   1   9  12    2.57    0.27
  -2  -9 -12    0.70    0.17
   2   9  12    0.73    0.16
   2   9  12    0.83    0.16
   2   9  12    0.75    0.14
  -3  -9 -12    7.32    0.39
  -3  -9 -12    7.19    0.43
   3   9  12    7.03    0.39
   3   9  12    6.52    0.38
   3   9  12    7.38    0.40
  -4  -9 -12    3.04    0.33
  -4  -9 -12    3.11    0.32
   4   9  12    2.80    0.30
   4   9  12    2.72    0.30
   4   9  12    2.92    0.32
  -5  -9 -12    1.54    0.27
  -5  -9 -12    1.49    0.24
   5   9  12    1.23    0.23
   5   9  12    1.02    0.20
   3 -10 -12    0.55    0.15
  -3  10  12    0.41    0.13
  -3  10  12    0.36    0.14
  -3  10  12    0.56    0.17
   2 -10 -12    2.64    0.28
  -2  10  12    2.82    0.30
  -2  10  12    2.78    0.30
  -2  10  12    3.18    0.31
   1 -10 -12    0.49    0.15
  -1  10  12    0.54    0.15
  -1  10  12    0.62    0.15
   0 -10 -12    0.93    0.18
   0  10  12    0.76    0.16
   0  10  12    0.82    0.17
  -1 -10 -12    1.78    0.24
   1  10  12    1.61    0.22
  -2 -10 -12    2.42    0.28
   2  10  12    2.27    0.26
  -3 -10 -12    2.87    0.33
   3  10  12    2.99    0.31
   3  10  12    2.77    0.28
   3  10  12    2.80    0.29
  -4 -10 -12    0.53    0.16
  -4 -10 -12    0.33    0.15
   4  10  12    0.38    0.14
   4  10  12    0.10    0.12
   4  10  12    0.21    0.14
  -3  11  12    0.46    0.15
  -3  11  12    0.34    0.15
  -3  11  12    0.71    0.19
   2 -11 -12    0.07    0.11
  -2  11  12   -0.07    0.09
  -2  11  12   -0.05    0.10
  -2  11  12    0.01    0.10
   1 -11 -12    0.98    0.19
  -1  11  12    1.26    0.21
  -1  11  12    1.17    0.20
   0 -11 -12    0.68    0.16
   0  11  12    0.42    0.13
   0  11  12    0.34    0.12
  -1 -11 -12    2.44    0.28
   1  11  12    3.03    0.31
  -2 -11 -12    0.59    0.17
   2  11  12    0.50    0.14
  -3 -11 -12    0.22    0.13
  -2  12  12    2.43    0.29
   1 -12 -12    0.05    0.11
  -1  12  12   -0.06    0.09
  -1  12  12    0.04    0.10
   0 -12 -12    0.06    0.11
   0  12  12    0.00    0.09
  -1 -12 -12    0.14    0.11
   1  12  12    0.02    0.08
  -2 -12 -12    0.55    0.17
   2  12  12    0.28    0.13
   1   8 -13    0.24    0.13
  -1  -8  13    0.40    0.13
   0   8 -13   -0.07    0.10
   0  -8  13    0.02    0.08
   3   7 -13    0.49    0.15
   2   7 -13    1.52    0.23
  -2  -7  13    1.65    0.23
   1   7 -13    2.34    0.28
  -1  -7  13    2.40    0.27
   0   7 -13    1.91    0.25
   0  -7  13    1.35    0.20
  -1   7 -13    3.22    0.32
   1  -7  13    2.92    0.29
   1  -7  13    3.22    0.26
  -2   7 -13    0.12    0.11
   2  -7  13    0.05    0.09
   3   6 -13    0.10    0.12
   3   6 -13    0.10    0.09
  -3  -6  13   -0.05    0.09
  -3  -6  13    0.14    0.11
   2   6 -13    0.12    0.10
   2   6 -13    0.22    0.12
  -2  -6  13    0.32    0.12
   1   6 -13    0.97    0.18
  -1  -6  13    1.01    0.17
  -1  -6  13    0.97    0.17
   0   6 -13    1.60    0.22
   0  -6  13    1.66    0.22
   0  -6  13    2.05    0.23
  -1   6 -13    0.03    0.09
   1  -6  13    0.13    0.08
   1  -6  13    0.20    0.09
  -2   6 -13    3.98    0.29
   2  -6  13    3.78    0.27
   2  -6  13    3.02    0.25
  -3   6 -13    0.30    0.13
  -3   6 -13    0.41    0.16
  -3   6 -13    0.25    0.14
   3  -6  13    0.39    0.12
   3  -6  13    0.28    0.11
   3  -6  13    0.36    0.16
   4   5 -13    0.08    0.10
   4   5 -13    0.15    0.13
  -4  -5  13    0.09    0.12
  -4  -5  13   -0.03    0.09
   3   5 -13    1.71    0.23
   3   5 -13    1.57    0.23
  -3  -5  13    1.35    0.21
   2   5 -13    0.09    0.09
   2   5 -13    0.05    0.09
  -2  -5  13   -0.05    0.06
   1   5 -13    4.24    0.30
  -1  -5  13    4.06    0.29
  -1  -5  13    4.17    0.27
   0   5 -13   -0.01    0.08
   0  -5  13    0.01    0.07
   0  -5  13    0.10    0.07
  -1   5 -13    0.20    0.09
   1  -5  13    0.09    0.08
   1  -5  13    0.04    0.06
  -2   5 -13    0.46    0.14
  -2   5 -13    0.87    0.16
   2  -5  13    0.52    0.12
   2  -5  13    0.43    0.13
   2  -5  13    0.64    0.13
  -3   5 -13   -0.11    0.08
  -3   5 -13   -0.03    0.10
  -3   5 -13    0.08    0.08
   3  -5  13    0.04    0.07
   3  -5  13    0.16    0.11
   3  -5  13    0.02    0.08
  -4   5 -13    0.06    0.12
  -4   5 -13    0.12    0.14
  -4   5 -13    0.24    0.11
   4  -5  13    0.40    0.13
   4  -5  13    0.44    0.16
   5   4 -13    0.38    0.14
  -5  -4  13    0.37    0.14
   4   4 -13    1.28    0.22
   4   4 -13    0.97    0.19
  -4  -4  13    0.95    0.20
  -4  -4  13    1.52    0.21
   3   4 -13    1.76    0.22
   3   4 -13    1.89    0.24
  -3  -4  13    1.90    0.23
   2   4 -13    4.89    0.31
   2   4 -13    4.97    0.31
  -2  -4  13    5.11    0.31
   1   4 -13    7.32    0.38
   1   4 -13    8.32    0.37
  -1  -4  13    8.03    0.38
  -1  -4  13    7.49    0.39
   0   4 -13    0.11    0.08
   0  -4  13    0.17    0.08
   0  -4  13    0.17    0.08
  -1   4 -13    3.37    0.25
   1  -4  13    2.54    0.21
   1  -4  13    3.24    0.23
  -2   4 -13    3.22    0.27
  -2   4 -13    2.76    0.23
  -2   4 -13    2.60    0.30
   2  -4  13    2.99    0.23
   2  -4  13    3.34    0.31
   2  -4  13    3.20    0.24
  -3   4 -13    2.55    0.26
  -3   4 -13    2.31    0.28
  -3   4 -13    2.97    0.31
   3  -4  13    2.57    0.25
   3  -4  13    2.46    0.24
   3  -4  13    2.59    0.29
  -4   4 -13    1.05    0.20
  -4   4 -13    0.71    0.19
  -4   4 -13    0.88    0.17
   4  -4  13    0.72    0.19
   4  -4  13    0.97    0.16
   4  -4  13    0.76    0.15
   5   3 -13    0.53    0.17
   5   3 -13    0.51    0.15
  -5  -3  13    0.41    0.15
   4   3 -13    1.85    0.25
   4   3 -13    1.85    0.24
  -4  -3  13    2.07    0.26
  -4  -3  13    2.13    0.24
   3   3 -13    0.29    0.12
   3   3 -13    0.17    0.10
  -3  -3  13    0.31    0.11
   2   3 -13   -0.06    0.06
   2   3 -13   -0.04    0.08
  -2  -3  13    0.02    0.07
   1   3 -13    0.51    0.12
   1   3 -13    0.44    0.12
  -1  -3  13    0.54    0.12
  -1  -3  13    0.52    0.12
   0   3 -13    1.04    0.16
   0   3 -13    1.15    0.15
   0  -3  13    0.90    0.15
   0  -3  13    0.95    0.15
  -1   3 -13    1.10    0.19
  -1   3 -13    0.76    0.14
   1  -3  13    0.78    0.14
   1  -3  13    0.65    0.12
  -2   3 -13    1.89    0.25
  -2   3 -13    1.37    0.18
  -2   3 -13    1.68    0.21
   2  -3  13    1.87    0.22
   2  -3  13    1.52    0.18
   2  -3  13    1.62    0.19
  -3   3 -13    0.27    0.12
  -3   3 -13    0.63    0.16
  -3   3 -13    0.19    0.09
   3  -3  13    0.09    0.11
   3  -3  13    0.05    0.08
   3  -3  13    0.15    0.08
  -4   3 -13    0.05    0.10
  -4   3 -13   -0.08    0.09
   4  -3  13   -0.06    0.10
   4  -3  13    0.09    0.08
   4  -3  13    0.07    0.09
  -5   3 -13    0.10    0.11
  -5   3 -13    0.00    0.09
   5  -3  13    0.04    0.12
   5  -3  13    0.10    0.10
   5   2 -13    0.81    0.18
   5   2 -13    1.35    0.23
   4   2 -13    0.14    0.10
   4   2 -13    0.24    0.13
  -4  -2  13    0.04    0.08
   3   2 -13    9.23    0.44
   3   2 -13    8.64    0.43
  -3  -2  13    9.55    0.41
   2   2 -13    0.47    0.12
   2   2 -13    0.55    0.13
  -2  -2  13    0.37    0.10
  -2  -2  13    0.52    0.12
   1   2 -13    6.47    0.31
   1   2 -13    5.56    0.31
  -1  -2  13    5.61    0.29
  -1  -2  13    5.51    0.31
   0   2 -13    1.90    0.17
   0   2 -13    2.64    0.21
   0  -2  13    2.63    0.20
   0  -2  13    2.75    0.19
  -1   2 -13    7.56    0.35
  -1   2 -13    7.19    0.31
   1  -2  13    7.51    0.34
   1  -2  13    7.07    0.34
   1  -2  13    6.85    0.34
  -2   2 -13    4.16    0.26
   2  -2  13    4.04    0.26
   2  -2  13    4.30    0.28
   2  -2  13    4.38    0.26
  -3   2 -13    0.89    0.17
  -3   2 -13    0.97    0.14
   3  -2  13    0.68    0.16
   3  -2  13    0.60    0.13
   3  -2  13    0.75    0.14
  -4   2 -13    2.36    0.28
   4  -2  13    2.61    0.26
   4  -2  13    2.59    0.30
   4  -2  13    2.76    0.26
  -5   2 -13    1.06    0.21
  -5   2 -13    1.18    0.20
   5  -2  13    1.37    0.20
   5  -2  13    1.12    0.18
   5  -2  13    1.34    0.24
   5   1 -13    1.35    0.22
   5   1 -13    0.90    0.19
   4   1 -13    5.95    0.36
   4   1 -13    5.73    0.36
   3   1 -13   -0.10    0.07
   3   1 -13    0.01    0.07
  -3  -1  13    0.11    0.07
   2   1 -13    0.48    0.13
   2   1 -13    0.66    0.13
  -2  -1  13    0.57    0.11
  -2  -1  13    0.57    0.12
   1   1 -13    8.02    0.37
   1   1 -13    8.72    0.37
  -1  -1  13    7.91    0.37
  -1  -1  13    8.07    0.34
   0   1 -13   15.63    0.54
   0   1 -13   15.84    0.53
   0  -1  13   14.94    0.55
   0  -1  13   16.29    0.53
  -1   1 -13   11.18    0.43
  -1   1 -13   10.32    0.40
   1  -1  13   11.70    0.44
   1  -1  13   11.34    0.42
   1  -1  13   11.22    0.45
  -2   1 -13    4.92    0.26
  -2   1 -13    5.26    0.26
   2  -1  13    4.72    0.29
   2  -1  13    5.63    0.29
   2  -1  13    4.84    0.28
  -3   1 -13    0.06    0.07
   3  -1  13    0.13    0.08
   3  -1  13    0.23    0.11
   3  -1  13    0.10    0.08
   4  -1  13    3.52    0.26
   4  -1  13    3.37    0.26
   4  -1  13    3.02    0.31
   5  -1  13    1.41    0.20
   5  -1  13    1.27    0.20
   5  -1  13    1.61    0.24
   5   0 -13    0.42    0.14
  -5   0  13    0.48    0.15
   4   0 -13    0.82    0.16
  -4   0  13    0.77    0.17
   3   0 -13   15.05    0.58
   3   0 -13   15.02    0.58
  -3   0  13   14.52    0.50
  -3   0  13   14.21    0.57
   2   0 -13    2.46    0.24
   2   0 -13    3.00    0.22
  -2   0  13    2.50    0.19
  -2   0  13    2.49    0.20
   1   0 -13    5.24    0.28
   1   0 -13    4.99    0.27
  -1   0  13    5.07    0.27
  -1   0  13    4.91    0.24
   0   0 -13   -0.03    0.05
   0   0 -13    0.11    0.08
   0   0  13    0.13    0.07
   0   0  13    0.00    0.06
   0   0  13    0.08    0.06
  -1   0 -13    0.28    0.09
  -1   0 -13    0.26    0.09
   1   0  13    0.12    0.07
   1   0  13    0.15    0.07
   1   0  13    0.18    0.07
  -2   0 -13    8.01    0.34
  -2   0 -13    7.94    0.32
   2   0  13    7.79    0.34
   2   0  13    8.01    0.38
   2   0  13    7.51    0.36
   3   0  13    4.40    0.27
   3   0  13    4.14    0.29
   3   0  13    4.89    0.28
   4   0  13    0.46    0.13
   4   0  13    0.39    0.13
   4   0  13    0.52    0.12
   5   0  13    0.50    0.13
   5   0  13    0.60    0.14
   5   0  13    0.46    0.16
   6   0  13    2.21    0.30
   6   0  13    2.31    0.27
   6  -1 -13    0.48    0.17
  -6   1  13    0.49    0.16
   5  -1 -13    0.08    0.11
  -5   1  13    0.17    0.11
   4  -1 -13    1.79    0.22
  -4   1  13    1.69    0.22
   3  -1 -13    6.39    0.34
  -3   1  13    5.73    0.34
   2  -1 -13    2.65    0.21
   2  -1 -13    2.84    0.22
  -2   1  13    2.83    0.18
  -2   1  13    2.75    0.19
  -2   1  13    3.05    0.22
   1  -1 -13    1.95    0.20
   1  -1 -13    2.46    0.19
  -1   1  13    2.30    0.15
  -1   1  13    2.02    0.16
  -1   1  13    2.27    0.18
   0  -1 -13   29.02    0.84
   0  -1 -13   28.62    0.81
   0   1  13   28.31    0.79
   0   1  13   27.31    0.83
   0   1  13   28.50    0.79
  -1  -1 -13   16.13    0.51
  -1  -1 -13   16.29    0.54
   1   1  13   15.84    0.55
   1   1  13   15.33    0.51
  -2  -1 -13    5.95    0.29
  -2  -1 -13    5.51    0.25
   2   1  13    6.28    0.30
   2   1  13    5.35    0.29
   2   1  13    5.90    0.31
  -3  -1 -13    6.53    0.32
   3   1  13    6.07    0.33
   3   1  13    6.82    0.36
   3   1  13    6.96    0.34
   4   1  13    0.19    0.10
   4   1  13   -0.01    0.07
   4   1  13    0.08    0.09
   5   1  13    0.73    0.16
   5   1  13    0.44    0.14
   5   1  13    0.40    0.14
   6   1  13    1.87    0.28
   6   1  13    1.78    0.25
   6  -2 -13    1.31    0.22
  -6   2  13    1.64    0.27
   5  -2 -13    0.10    0.10
  -5   2  13    0.07    0.11
  -5   2  13    0.18    0.12
   4  -2 -13   -0.10    0.08
  -4   2  13    0.05    0.09
  -4   2  13    0.04    0.10
   3  -2 -13    1.38    0.18
  -3   2  13    1.68    0.21
  -3   2  13    1.28    0.18
   2  -2 -13    1.27    0.17
  -2   2  13    1.25    0.15
  -2   2  13    1.44    0.18
   1  -2 -13    0.82    0.13
   1  -2 -13    0.91    0.14
  -1   2  13    0.97    0.12
  -1   2  13    0.98    0.11
  -1   2  13    1.21    0.15
  -1   2  13    0.86    0.10
   0  -2 -13    0.10    0.07
   0  -2 -13    0.15    0.07
   0   2  13    0.17    0.07
   0   2  13    0.22    0.07
   0   2  13    0.14    0.06
   0   2  13    0.16    0.06
  -1  -2 -13    3.33    0.18
  -1  -2 -13    3.40    0.22
   1   2  13    3.43    0.21
   1   2  13    2.86    0.20
   1   2  13    3.40    0.20
  -2  -2 -13    2.98    0.21
   2   2  13    3.31    0.23
   2   2  13    2.84    0.20
   2   2  13    3.05    0.21
  -3  -2 -13    0.50    0.11
   3   2  13    0.55    0.12
   3   2  13    0.27    0.09
   3   2  13    0.51    0.13
  -4  -2 -13   -0.02    0.06
   4   2  13    0.30    0.11
   4   2  13    0.19    0.10
   4   2  13    0.21    0.09
  -5  -2 -13    0.26    0.12
   5   2  13    0.40    0.13
   5   2  13    0.43    0.12
   5   2  13    0.31    0.13
  -6  -2 -13    0.25    0.12
   6   2  13    0.41    0.14
   6   2  13    0.15    0.13
  -6   3  13    0.31    0.14
   5  -3 -13    0.08    0.09
  -5   3  13    0.32    0.14
  -5   3  13    0.19    0.12
   4  -3 -13    0.07    0.10
  -4   3  13    0.04    0.10
  -4   3  13    0.08    0.09
   3  -3 -13    2.84    0.23
  -3   3  13    3.39    0.26
  -3   3  13    2.63    0.26
   2  -3 -13    1.11    0.16
  -2   3  13    0.96    0.12
  -2   3  13    0.83    0.14
  -2   3  13    0.90    0.15
   1  -3 -13    0.86    0.14
  -1   3  13    0.89    0.13
  -1   3  13    0.80    0.11
  -1   3  13    1.06    0.12
  -1   3  13    0.87    0.10
   0  -3 -13    3.96    0.24
   0  -3 -13    3.64    0.21
   0   3  13    3.65    0.21
   0   3  13    3.58    0.20
   0   3  13    4.04    0.20
  -1  -3 -13    2.13    0.18
  -1  -3 -13    1.75    0.13
   1   3  13    1.79    0.18
   1   3  13    1.97    0.16
   1   3  13    2.08    0.16
  -2  -3 -13    0.41    0.11
   2   3  13    0.53    0.11
   2   3  13    0.50    0.12
   2   3  13    0.44    0.10
  -3  -3 -13    2.52    0.21
  -3  -3 -13    2.36    0.23
   3   3  13    1.91    0.22
   3   3  13    2.18    0.22
   3   3  13    2.59    0.21
  -4  -3 -13    2.33    0.25
  -4  -3 -13    2.70    0.23
   4   3  13    2.50    0.25
   4   3  13    2.99    0.29
   4   3  13    2.65    0.26
  -5  -3 -13    0.47    0.14
  -5  -3 -13    0.50    0.15
   5   3  13    0.35    0.13
   5   3  13    0.61    0.15
   5   3  13    0.41    0.12
  -6  -3 -13    1.38    0.23
   6   3  13    1.11    0.20
   6   3  13    0.90    0.20
   5  -4 -13    0.07    0.11
  -5   4  13    0.21    0.12
  -5   4  13    0.06    0.12
   4  -4 -13    0.44    0.13
  -4   4  13    0.30    0.13
  -4   4  13    0.28    0.13
   3  -4 -13    3.35    0.24
  -3   4  13    3.35    0.26
  -3   4  13    3.32    0.26
   2  -4 -13    0.10    0.08
  -2   4  13    0.03    0.04
  -2   4  13    0.04    0.08
  -2   4  13    0.13    0.06
  -2   4  13    0.06    0.08
   1  -4 -13    0.08    0.07
  -1   4  13    0.10    0.07
  -1   4  13    0.10    0.08
  -1   4  13    0.10    0.06
  -1   4  13    0.11    0.05
   0  -4 -13   -0.04    0.05
   0   4  13   -0.01    0.04
   0   4  13    0.00    0.05
   0   4  13    0.04    0.04
   0   4  13   -0.03    0.06
  -1  -4 -13    2.52    0.20
   1   4  13    2.61    0.19
   1   4  13    2.48    0.17
   1   4  13    2.20    0.17
  -2  -4 -13    3.82    0.24
  -2  -4 -13    3.52    0.25
   2   4  13    3.43    0.24
   2   4  13    3.88    0.24
   2   4  13    3.98    0.23
  -3  -4 -13    2.87    0.23
  -3  -4 -13    3.11    0.23
   3   4  13    3.31    0.25
   3   4  13    2.48    0.21
   3   4  13    3.23    0.24
  -4  -4 -13    0.41    0.13
  -4  -4 -13    0.45    0.13
   4   4  13    0.20    0.11
   4   4  13    0.41    0.11
   4   4  13    0.37    0.12
  -5  -4 -13    5.77    0.37
  -5  -4 -13    5.84    0.37
   5   4  13    5.69    0.37
   5   4  13    4.55    0.33
   5   4  13    5.75    0.37
  -6  -4 -13    0.97    0.19
   6   4  13    1.09    0.21
   6   4  13    1.52    0.23
   5  -5 -13   -0.11    0.09
  -5   5  13   -0.19    0.09
  -5   5  13   -0.02    0.10
   4  -5 -13    0.39    0.13
  -4   5  13    0.25    0.12
  -4   5  13    0.55    0.15
   3  -5 -13   -0.06    0.07
  -3   5  13   -0.06    0.07
  -3   5  13   -0.05    0.08
   2  -5 -13    0.07    0.08
  -2   5  13   -0.01    0.07
  -2   5  13    0.01    0.06
  -2   5  13    0.01    0.08
   1  -5 -13    1.35    0.18
  -1   5  13    1.18    0.12
  -1   5  13    1.28    0.15
  -1   5  13    1.52    0.17
  -1   5  13    1.14    0.16
   0  -5 -13    3.13    0.23
   0   5  13    2.95    0.18
   0   5  13    3.25    0.20
   0   5  13    3.20    0.21
   0   5  13    2.99    0.20
   0   5  13    3.02    0.17
  -1  -5 -13    0.39    0.10
   1   5  13    0.62    0.11
   1   5  13    0.57    0.12
   1   5  13    0.44    0.09
  -2  -5 -13    0.04    0.06
  -2  -5 -13    0.10    0.07
   2   5  13    0.00    0.07
   2   5  13    0.04    0.06
   2   5  13    0.23    0.08
  -3  -5 -13    0.28    0.10
  -3  -5 -13    0.33    0.12
   3   5  13    0.20    0.08
   3   5  13    0.30    0.10
   3   5  13    0.39    0.12
  -4  -5 -13   -0.04    0.08
  -4  -5 -13   -0.08    0.07
   4   5  13   -0.07    0.07
   4   5  13   -0.01    0.08
   4   5  13    0.08    0.09
  -5  -5 -13    0.70    0.17
  -5  -5 -13    0.92    0.19
   5   5  13    0.90    0.19
   5   5  13    1.04    0.19
   5   5  13    0.58    0.17
  -6  -5 -13   -0.02    0.12
  -6  -5 -13    0.20    0.12
   6   5  13    0.07    0.11
   6   5  13    0.07    0.11
   5  -6 -13    0.59    0.16
  -5   6  13    0.40    0.16
  -5   6  13    0.57    0.18
   4  -6 -13    0.30    0.13
  -4   6  13    0.50    0.15
  -4   6  13    0.33    0.15
   3  -6 -13    0.03    0.08
  -3   6  13    0.04    0.09
  -3   6  13    0.01    0.05
  -3   6  13    0.06    0.09
   2  -6 -13    0.05    0.08
  -2   6  13   -0.04    0.06
  -2   6  13    0.10    0.09
  -2   6  13    0.01    0.08
   1  -6 -13    1.45    0.19
  -1   6  13    0.71    0.13
  -1   6  13    1.08    0.16
  -1   6  13    1.08    0.15
   0  -6 -13    1.13    0.17
   0   6  13    0.85    0.15
   0   6  13    0.90    0.12
   0   6  13    1.27    0.16
   0   6  13    0.93    0.14
  -1  -6 -13    7.46    0.37
  -1  -6 -13    7.66    0.32
   1   6  13    7.55    0.31
   1   6  13    7.10    0.33
   1   6  13    8.23    0.38
  -2  -6 -13    0.91    0.14
  -2  -6 -13    1.17    0.18
   2   6  13    1.05    0.15
   2   6  13    1.01    0.16
   2   6  13    0.95    0.14
  -3  -6 -13    0.50    0.14
  -3  -6 -13    0.64    0.14
   3   6  13    0.60    0.14
   3   6  13    0.81    0.14
   3   6  13    0.68    0.15
  -4  -6 -13    0.37    0.13
  -4  -6 -13    0.14    0.10
   4   6  13    0.09    0.08
   4   6  13    0.31    0.12
   4   6  13    0.20    0.10
  -5  -6 -13    0.61    0.18
  -5  -6 -13    0.49    0.15
   5   6  13    0.41    0.16
   5   6  13    0.46    0.14
   5   6  13    0.45    0.15
   5  -7 -13    0.01    0.11
  -5   7  13    0.17    0.15
   4  -7 -13    0.81    0.16
  -4   7  13    0.52    0.17
  -4   7  13    0.37    0.15
   3  -7 -13    2.18    0.24
  -3   7  13    2.47    0.28
  -3   7  13    2.66    0.22
  -3   7  13    2.23    0.26
   2  -7 -13   -0.02    0.09
  -2   7  13   -0.05    0.08
  -2   7  13   -0.03    0.06
  -2   7  13   -0.08    0.09
   1  -7 -13    1.25    0.18
  -1   7  13    1.07    0.16
  -1   7  13    1.30    0.18
  -1   7  13    1.45    0.19
   0  -7 -13    5.17    0.32
   0   7  13    5.15    0.28
   0   7  13    5.29    0.31
  -1  -7 -13   -0.01    0.07
   1   7  13    0.13    0.09
   1   7  13    0.04    0.06
  -2  -7 -13    0.02    0.08
  -2  -7 -13    0.01    0.08
   2   7  13   -0.02    0.05
   2   7  13    0.02    0.09
   2   7  13    0.01    0.08
  -3  -7 -13    0.20    0.11
  -3  -7 -13    0.25    0.10
   3   7  13    0.17    0.10
   3   7  13    0.22    0.10
   3   7  13    0.42    0.12
  -4  -7 -13   -0.01    0.09
  -4  -7 -13    0.21    0.12
   4   7  13    0.32    0.13
   4   7  13    0.34    0.12
   4   7  13    0.27    0.11
  -5  -7 -13    1.40    0.23
  -5  -7 -13    2.05    0.28
   5   7  13    1.06    0.20
   5   7  13    2.17    0.27
   4  -8 -13    1.32    0.21
  -4   8  13    0.99    0.21
  -4   8  13    0.99    0.19
  -4   8  13    1.11    0.22
   3  -8 -13    0.05    0.11
  -3   8  13    0.04    0.09
  -3   8  13    0.25    0.14
  -3   8  13   -0.08    0.09
   2  -8 -13    2.60    0.26
  -2   8  13    3.24    0.30
  -2   8  13    2.41    0.27
  -2   8  13    3.16    0.25
   1  -8 -13    1.51    0.21
  -1   8  13    1.88    0.22
  -1   8  13    1.69    0.22
  -1   8  13    1.35    0.19
   0  -8 -13    0.51    0.14
   0   8  13    0.73    0.15
   0   8  13    0.40    0.12
  -1  -8 -13    1.14    0.19
   1   8  13    1.09    0.18
  -2  -8 -13   -0.09    0.08
  -2  -8 -13   -0.08    0.07
   2   8  13   -0.05    0.06
   2   8  13    0.07    0.08
   2   8  13   -0.12    0.07
  -3  -8 -13   -0.02    0.09
  -3  -8 -13   -0.08    0.07
   3   8  13    0.00    0.09
   3   8  13    0.00    0.07
   3   8  13   -0.02    0.09
  -4  -8 -13    0.24    0.13
  -4  -8 -13    0.19    0.11
   4   8  13    0.04    0.10
   4   8  13    0.17    0.12
   4   8  13    0.24    0.11
  -5  -8 -13    0.09    0.11
  -5  -8 -13    0.03    0.12
   5   8  13    0.05    0.10
   5   8  13   -0.01    0.11
   4  -9 -13    0.11    0.12
  -4   9  13    0.09    0.12
  -4   9  13    0.30    0.14
  -4   9  13    0.26    0.14
   3  -9 -13    0.01    0.11
  -3   9  13    0.02    0.09
  -3   9  13    0.04    0.11
  -3   9  13    0.25    0.14
   2  -9 -13    3.60    0.28
  -2   9  13    3.54    0.29
  -2   9  13    3.72    0.29
  -2   9  13    2.58    0.28
   1  -9 -13    1.15    0.20
  -1   9  13    1.45    0.20
  -1   9  13    1.50    0.22
   0  -9 -13    0.65    0.16
   0   9  13    0.92    0.18
  -1  -9 -13    1.30    0.21
   1   9  13    1.00    0.18
  -2  -9 -13    0.36    0.14
   2   9  13    0.41    0.14
   2   9  13    0.56    0.13
  -3  -9 -13   -0.05    0.09
  -3  -9 -13    0.01    0.11
   3   9  13    0.09    0.11
   3   9  13   -0.03    0.07
   3   9  13   -0.09    0.09
  -4  -9 -13   -0.08    0.10
  -4  -9 -13    0.10    0.11
   4   9  13    0.14    0.11
   4   9  13   -0.04    0.10
   4   9  13    0.05    0.10
   3 -10 -13    0.36    0.13
  -3  10  13    0.02    0.11
  -3  10  13   -0.08    0.11
  -3  10  13    0.00    0.09
   2 -10 -13    0.17    0.12
  -2  10  13    0.11    0.10
  -2  10  13    0.12    0.11
  -2  10  13    0.07    0.10
   1 -10 -13    0.54    0.15
  -1  10  13    0.72    0.16
  -1  10  13    1.01    0.18
   0 -10 -13    1.73    0.23
   0  10  13    1.91    0.24
  -1 -10 -13    0.14    0.12
   1  10  13    0.05    0.10
  -2 -10 -13    0.81    0.19
   2  10  13    1.13    0.19
  -3 -10 -13    0.29    0.16
   3  10  13    0.15    0.11
   3  10  13    0.18    0.13
   3  10  13    0.32    0.13
  -4 -10 -13    0.36    0.14
  -4 -10 -13    0.14    0.14
   4  10  13    0.31    0.13
   4  10  13    0.21    0.13
   4  10  13    0.21    0.12
   2 -11 -13    0.08    0.11
  -2  11  13    0.15    0.11
  -2  11  13    0.01    0.10
  -2  11  13    0.09    0.10
   1 -11 -13    0.07    0.11
  -1  11  13    0.21    0.12
  -1  11  13    0.11    0.10
   0 -11 -13    0.91    0.19
   0  11  13    1.01    0.19
  -1 -11 -13   -0.09    0.08
   1  11  13    0.00    0.10
  -2 -11 -13    0.30    0.15
   2  11  13    0.23    0.12
  -3 -11 -13   -0.09    0.10
   3  11  13    0.08    0.11
   1 -12 -13    0.32    0.14
  -1  12  13    0.10    0.12
  -1  12  13    0.13    0.12
   0 -12 -13   -0.07    0.10
   0  12  13    0.10    0.10
  -1 -12 -13   -0.04    0.11
   1  12  13    0.02    0.10
  -2 -12 -13    0.94    0.22
   2  12  13    1.01    0.19
   1   7 -14    3.61    0.35
  -1  -7  14    3.02    0.31
   0   7 -14    0.56    0.16
   0  -7  14    0.47    0.14
  -1   7 -14    1.79    0.25
   1  -7  14    1.53    0.21
   3   6 -14    0.03    0.11
   3   6 -14    0.41    0.16
  -3  -6  14    0.16    0.12
   2   6 -14    0.46    0.15
  -2  -6  14    0.38    0.13
   1   6 -14    0.36    0.13
  -1  -6  14    0.45    0.13
   0   6 -14    0.16    0.11
   0  -6  14    0.51    0.13
   0  -6  14    0.22    0.10
  -1   6 -14    4.29    0.32
   1  -6  14    4.77    0.31
   1  -6  14    4.84    0.32
  -2   6 -14    0.15    0.10
   2  -6  14    0.11    0.09
   3   5 -14    0.99    0.19
   3   5 -14    0.86    0.18
  -3  -5  14    0.75    0.17
   2   5 -14    0.23    0.11
   2   5 -14    0.20    0.11
  -2  -5  14    0.32    0.12
   1   5 -14    0.66    0.15
  -1  -5  14    0.71    0.15
  -1  -5  14    0.96    0.17
   0   5 -14    0.16    0.11
   0  -5  14    0.38    0.11
   0  -5  14    0.30    0.11
  -1   5 -14    0.25    0.11
   1  -5  14    0.10    0.08
   1  -5  14    0.11    0.09
  -2   5 -14    0.29    0.12
   2  -5  14    0.23    0.10
   2  -5  14    0.33    0.12
  -3   5 -14    0.42    0.15
  -3   5 -14    0.22    0.14
  -3   5 -14    0.37    0.14
   3  -5  14    0.13    0.09
   3  -5  14    0.37    0.15
   4   4 -14    0.33    0.15
   4   4 -14    0.06    0.10
  -4  -4  14    0.15    0.11
   3   4 -14    0.93    0.18
   3   4 -14    0.81    0.17
  -3  -4  14    0.99    0.18
   2   4 -14    0.37    0.13
   2   4 -14    0.31    0.12
  -2  -4  14    0.51    0.13
   1   4 -14    2.51    0.26
   1   4 -14    2.64    0.22
  -1  -4  14    2.44    0.25
  -1  -4  14    2.60    0.25
   0   4 -14    0.42    0.12
   0  -4  14    0.28    0.10
   0  -4  14    0.66    0.13
  -1   4 -14    5.70    0.33
   1  -4  14    5.56    0.31
   1  -4  14    5.52    0.33
  -2   4 -14   -0.06    0.10
  -2   4 -14    0.02    0.07
   2  -4  14    0.06    0.08
   2  -4  14    0.05    0.07
  -3   4 -14    0.12    0.09
  -3   4 -14    0.16    0.12
  -3   4 -14   -0.03    0.10
   3  -4  14    0.09    0.10
   3  -4  14    0.05    0.09
   3  -4  14    0.12    0.08
  -4   4 -14    1.47    0.24
  -4   4 -14    1.85    0.27
   4  -4  14    2.22    0.30
   4  -4  14    1.74    0.22
   4   3 -14    1.14    0.20
   4   3 -14    1.19    0.21
  -4  -3  14    1.45    0.21
   3   3 -14    0.37    0.13
   3   3 -14    0.53    0.14
  -3  -3  14    0.50    0.13
   2   3 -14    0.24    0.12
   2   3 -14    0.65    0.14
  -2  -3  14    0.34    0.11
   1   3 -14    2.92    0.24
   1   3 -14    3.03    0.22
  -1  -3  14    2.70    0.22
  -1  -3  14    2.93    0.24
   0   3 -14    0.05    0.08
   0   3 -14   -0.09    0.06
   0  -3  14    0.02    0.06
   0  -3  14   -0.04    0.05
  -1   3 -14    1.39    0.19
   1  -3  14    1.28    0.17
   1  -3  14    1.44    0.18
  -2   3 -14    5.34    0.31
  -2   3 -14    6.16    0.40
   2  -3  14    4.60    0.31
   2  -3  14    5.44    0.31
   2  -3  14    4.80    0.30
  -3   3 -14    2.16    0.27
  -3   3 -14    2.31    0.28
  -3   3 -14    2.76    0.26
   3  -3  14    2.54    0.25
   3  -3  14    2.96    0.31
   3  -3  14    2.57    0.25
  -4   3 -14   -0.01    0.11
  -4   3 -14    0.27    0.13
   4  -3  14    0.45    0.13
   4  -3  14    0.25    0.11
   4  -3  14    0.17    0.13
   5   2 -14    0.05    0.11
   5   2 -14    0.24    0.14
   4   2 -14    0.88    0.19
   4   2 -14    0.51    0.14
   3   2 -14    0.85    0.17
   3   2 -14    1.19    0.19
  -3  -2  14    0.62    0.14
   2   2 -14    3.13    0.24
   2   2 -14    2.86    0.24
  -2  -2  14    2.92    0.24
  -2  -2  14    3.03    0.23
   1   2 -14    1.69    0.19
   1   2 -14    1.69    0.20
  -1  -2  14    1.61    0.19
  -1  -2  14    1.72    0.20
   0   2 -14    0.73    0.13
   0   2 -14    0.47    0.12
   0  -2  14    0.60    0.12
   0  -2  14    0.55    0.12
  -1   2 -14    6.53    0.33
   1  -2  14    6.28    0.33
   1  -2  14    6.53    0.32
  -2   2 -14    1.77    0.20
   2  -2  14    2.07    0.22
   2  -2  14    1.78    0.21
   2  -2  14    1.82    0.22
  -3   2 -14    4.05    0.26
   3  -2  14    4.79    0.32
   3  -2  14    3.87    0.27
   3  -2  14    4.35    0.28
   4  -2  14    0.98    0.17
   4  -2  14    0.88    0.19
   4  -2  14    1.48    0.20
  -5   2 -14    0.22    0.12
   5  -2  14    0.20    0.10
   5  -2  14    0.00    0.10
   5   1 -14    1.01    0.20
   5   1 -14    0.85    0.19
   4   1 -14    0.21    0.12
   4   1 -14    0.14    0.11
   3   1 -14   -0.04    0.07
   3   1 -14    0.02    0.10
  -3  -1  14    0.11    0.08
   2   1 -14    4.51    0.29
   2   1 -14    4.57    0.29
  -2  -1  14    5.06    0.27
  -2  -1  14    4.49    0.28
   1   1 -14    0.04    0.08
   1   1 -14    0.21    0.09
  -1  -1  14    0.09    0.07
  -1  -1  14    0.03    0.06
   0   1 -14    0.32    0.10
   0   1 -14    0.28    0.10
   0  -1  14    0.38    0.09
   0  -1  14    0.27    0.09
  -1   1 -14   11.76    0.45
  -1   1 -14    9.81    0.41
   1  -1  14   11.85    0.45
   1  -1  14   11.62    0.44
   1  -1  14   11.47    0.47
  -2   1 -14    6.24    0.30
   2  -1  14    5.81    0.32
   2  -1  14    5.98    0.34
   2  -1  14    6.30    0.32
   3  -1  14    0.19    0.09
   3  -1  14    0.27    0.12
   3  -1  14    0.20    0.10
   4  -1  14    6.51    0.37
   4  -1  14    6.90    0.42
   4  -1  14    7.14    0.37
   5  -1  14   -0.03    0.08
   5  -1  14   -0.04    0.10
   5   0 -14    2.66    0.30
   5   0 -14    2.50    0.29
  -5   0  14    2.42    0.28
   4   0 -14    0.66    0.15
   4   0 -14    0.51    0.14
  -4   0  14    0.57    0.15
   3   0 -14    0.50    0.13
   3   0 -14    0.45    0.13
   2   0 -14    0.21    0.10
   2   0 -14    0.12    0.09
  -2   0  14    0.00    0.06
  -2   0  14   -0.05    0.05
   1   0 -14    6.70    0.33
   1   0 -14    6.08    0.32
  -1   0  14    6.10    0.28
  -1   0  14    5.33    0.30
   0   0 -14    5.70    0.29
   0   0 -14    5.92    0.30
   0   0  14    5.81    0.28
   0   0  14    5.55    0.30
  -1   0 -14   21.46    0.67
  -1   0 -14   20.16    0.64
   1   0  14   20.59    0.66
   1   0  14   19.76    0.68
   1   0  14   19.96    0.64
  -2   0 -14   20.33    0.64
  -2   0 -14   21.34    0.68
   2   0  14   20.40    0.67
   2   0  14   21.19    0.71
   2   0  14   20.94    0.71
   3   0  14    0.05    0.07
   3   0  14   -0.10    0.07
   3   0  14    0.02    0.08
   4   0  14    0.04    0.08
   4   0  14    0.17    0.11
   4   0  14    0.11    0.09
   5   0  14    0.14    0.10
   5   0  14    0.00    0.11
   5  -1 -14    0.10    0.12
  -5   1  14    0.10    0.11
   4  -1 -14    2.16    0.25
  -4   1  14    2.67    0.28
   3  -1 -14    1.70    0.21
  -3   1  14    1.77    0.21
   2  -1 -14    3.65    0.25
   2  -1 -14    3.59    0.26
  -2   1  14    3.95    0.22
  -2   1  14    3.89    0.26
  -2   1  14    3.75    0.24
   1  -1 -14    8.56    0.39
   1  -1 -14    9.25    0.40
  -1   1  14    9.05    0.39
  -1   1  14    9.30    0.35
   0  -1 -14   16.52    0.59
   0  -1 -14   17.65    0.58
   0   1  14   16.79    0.54
   0   1  14   17.56    0.59
   0   1  14   17.46    0.55
  -1  -1 -14   10.98    0.40
  -1  -1 -14   10.49    0.42
   1   1  14   10.91    0.41
   1   1  14   10.09    0.42
  -2  -1 -14    8.38    0.37
   2   1  14    7.98    0.38
   2   1  14    8.59    0.39
   2   1  14    8.23    0.37
  -3  -1 -14    0.96    0.15
   3   1  14    0.97    0.17
   3   1  14    1.16    0.16
   3   1  14    0.78    0.15
   4   1  14    0.04    0.08
   4   1  14    0.05    0.10
   4   1  14   -0.10    0.06
   5   1  14    1.28    0.20
   5   1  14    1.82    0.23
   5   1  14    1.28    0.22
   5  -2 -14    0.12    0.11
  -5   2  14    0.09    0.12
  -5   2  14    0.09    0.11
   4  -2 -14    0.65    0.16
  -4   2  14    0.94    0.18
  -4   2  14    0.76    0.17
   3  -2 -14    0.93    0.16
  -3   2  14    0.86    0.16
   2  -2 -14    0.10    0.08
  -2   2  14    0.09    0.09
  -2   2  14    0.24    0.08
   1  -2 -14    5.77    0.30
   1  -2 -14    5.02    0.29
  -1   2  14    5.62    0.24
  -1   2  14    5.64    0.28
  -1   2  14    6.29    0.30
   0  -2 -14   11.68    0.45
   0  -2 -14   11.20    0.42
   0   2  14   10.73    0.39
   0   2  14   12.19    0.42
   0   2  14   10.37    0.42
  -1  -2 -14    1.52    0.18
  -1  -2 -14    1.53    0.15
   1   2  14    1.56    0.18
   1   2  14    1.28    0.16
   1   2  14    1.72    0.17
  -2  -2 -14   -0.04    0.07
   2   2  14   -0.01    0.05
   2   2  14   -0.01    0.07
   2   2  14    0.02    0.07
  -3  -2 -14    0.08    0.08
   3   2  14    0.22    0.11
   3   2  14    0.16    0.09
   3   2  14    0.14    0.08
  -4  -2 -14   -0.01    0.06
   4   2  14    0.11    0.09
   4   2  14   -0.09    0.06
   4   2  14    0.03    0.07
   5   2  14    0.36    0.12
   5   2  14    0.08    0.10
   5  -3 -14    0.29    0.14
  -5   3  14    0.21    0.13
  -5   3  14    0.26    0.14
   4  -3 -14    0.50    0.14
  -4   3  14    1.14    0.20
  -4   3  14    0.91    0.19
   3  -3 -14    1.87    0.21
  -3   3  14    1.83    0.23
  -3   3  14    1.61    0.21
   2  -3 -14    4.41    0.28
  -2   3  14    4.48    0.24
  -2   3  14    4.98    0.29
   1  -3 -14    0.09    0.08
  -1   3  14    0.08    0.05
  -1   3  14    0.08    0.06
  -1   3  14   -0.05    0.06
   0  -3 -14    0.92    0.15
   0  -3 -14    0.80    0.12
   0   3  14    0.50    0.10
   0   3  14    0.83    0.12
   0   3  14    1.09    0.12
   0   3  14    0.81    0.12
  -1  -3 -14    8.60    0.39
   1   3  14    8.54    0.34
   1   3  14    9.08    0.38
   1   3  14    8.29    0.36
  -2  -3 -14    2.00    0.21
   2   3  14    2.15    0.18
   2   3  14    2.13    0.22
   2   3  14    2.20    0.21
  -3  -3 -14   10.18    0.44
   3   3  14   10.84    0.45
   3   3  14    9.17    0.44
   3   3  14   10.39    0.47
  -4  -3 -14    0.05    0.08
  -4  -3 -14    0.05    0.09
   4   3  14    0.12    0.09
   4   3  14    0.17    0.09
   4   3  14    0.04    0.08
  -5  -3 -14    0.08    0.09
   5   3  14    0.12    0.10
   5   3  14    0.14    0.12
   5   3  14    0.13    0.11
   5  -4 -14    1.80    0.24
  -5   4  14    1.43    0.24
  -5   4  14    1.68    0.26
   4  -4 -14    3.83    0.28
  -4   4  14    3.58    0.34
  -4   4  14    4.20    0.32
   3  -4 -14   -0.04    0.07
  -3   4  14   -0.07    0.07
  -3   4  14   -0.01    0.08
   2  -4 -14    8.71    0.41
  -2   4  14    9.12    0.42
  -2   4  14   10.21    0.44
   1  -4 -14    1.55    0.19
  -1   4  14    1.73    0.19
  -1   4  14    1.83    0.18
  -1   4  14    1.89    0.15
   0  -4 -14    6.21    0.29
   0  -4 -14    5.93    0.32
   0   4  14    7.08    0.30
   0   4  14    6.65    0.31
   0   4  14    5.95    0.28
   0   4  14    6.38    0.26
  -1  -4 -14    1.07    0.16
   1   4  14    0.72    0.13
   1   4  14    0.84    0.13
   1   4  14    1.09    0.13
  -2  -4 -14    1.25    0.17
   2   4  14    1.14    0.15
   2   4  14    0.92    0.14
   2   4  14    1.01    0.16
  -3  -4 -14    1.24    0.19
  -3  -4 -14    1.15    0.18
   3   4  14    1.34    0.18
   3   4  14    1.61    0.20
   3   4  14    1.42    0.20
  -4  -4 -14    0.52    0.13
  -4  -4 -14    0.87    0.17
   4   4  14    0.64    0.15
   4   4  14    0.74    0.15
   4   4  14    0.77    0.16
  -5  -4 -14    0.39    0.14
  -5  -4 -14    0.30    0.13
   5   4  14    0.32    0.14
   5   4  14    0.26    0.13
   5   4  14    0.43    0.13
   5  -5 -14    2.04    0.26
  -5   5  14    2.06    0.29
  -5   5  14    1.89    0.26
   4  -5 -14    1.16    0.19
  -4   5  14    1.07    0.21
  -4   5  14    0.95    0.19
  -3   5  14    0.14    0.11
  -3   5  14    0.10    0.10
   2  -5 -14    0.00    0.07
  -2   5  14    0.07    0.09
  -2   5  14    0.01    0.08
  -2   5  14    0.09    0.06
   1  -5 -14    0.82    0.15
  -1   5  14    0.88    0.15
  -1   5  14    1.00    0.12
  -1   5  14    0.77    0.13
  -1   5  14    0.89    0.14
   0  -5 -14    8.92    0.41
   0   5  14    8.12    0.34
   0   5  14    9.37    0.39
  -1  -5 -14    0.00    0.07
   1   5  14    0.11    0.07
   1   5  14    0.09    0.06
   1   5  14    0.02    0.07
  -2  -5 -14    1.39    0.19
  -2  -5 -14    1.11    0.16
   2   5  14    1.23    0.16
   2   5  14    0.95    0.16
   2   5  14    1.41    0.18
  -3  -5 -14    0.08    0.08
   3   5  14    0.34    0.11
   3   5  14    0.25    0.09
   3   5  14    0.14    0.09
  -4  -5 -14   -0.01    0.09
   4   5  14    0.07    0.09
   4   5  14    0.10    0.08
   4   5  14    0.01    0.09
  -5  -5 -14    0.21    0.11
  -5  -5 -14    0.16    0.12
   5   5  14    0.08    0.11
   5   5  14    0.04    0.11
   5  -6 -14   -0.02    0.11
  -5   6  14    0.06    0.12
   4  -6 -14    6.52    0.38
  -4   6  14    7.27    0.44
  -4   6  14    7.08    0.43
   3  -6 -14    0.19    0.10
  -3   6  14   -0.01    0.09
  -3   6  14    0.20    0.11
   2  -6 -14    3.46    0.26
  -2   6  14    3.75    0.28
  -2   6  14    3.38    0.26
  -2   6  14    3.32    0.23
   1  -6 -14    0.67    0.14
  -1   6  14    0.38    0.11
  -1   6  14    0.30    0.11
  -1   6  14    0.53    0.13
   0  -6 -14    1.20    0.17
   0   6  14    1.08    0.13
   0   6  14    0.91    0.15
  -1  -6 -14   10.58    0.47
   1   6  14   11.26    0.47
   1   6  14   10.90    0.40
   1   6  14   10.95    0.43
  -2  -6 -14   -0.06    0.07
  -2  -6 -14   -0.02    0.06
   2   6  14   -0.07    0.04
   2   6  14   -0.02    0.08
   2   6  14   -0.05    0.06
  -3  -6 -14    1.25    0.18
  -3  -6 -14    1.35    0.21
   3   6  14    1.47    0.20
   3   6  14    1.97    0.22
   3   6  14    1.48    0.19
  -4  -6 -14    0.23    0.12
  -4  -6 -14    0.41    0.13
   4   6  14    0.25    0.11
   4   6  14    0.27    0.11
   4   6  14    0.26    0.11
  -5  -6 -14    3.71    0.37
  -5  -6 -14    3.06    0.32
   5   6  14    3.10    0.33
   5   6  14    3.05    0.32
   4  -7 -14    2.41    0.26
  -4   7  14    2.07    0.28
  -4   7  14    2.07    0.27
   3  -7 -14    0.16    0.11
  -3   7  14    0.26    0.10
  -3   7  14    0.02    0.11
  -3   7  14    0.25    0.13
   2  -7 -14    3.19    0.26
  -2   7  14    3.56    0.27
  -2   7  14    3.37    0.27
  -2   7  14    3.58    0.25
   1  -7 -14    0.11    0.09
  -1   7  14    0.05    0.09
  -1   7  14    0.14    0.10
  -1   7  14    0.18    0.09
   0  -7 -14    6.62    0.37
   0   7  14    7.08    0.36
  -1  -7 -14    0.02    0.08
   1   7  14    0.12    0.07
   1   7  14    0.03    0.07
  -2  -7 -14    0.05    0.08
  -2  -7 -14    0.24    0.09
   2   7  14    0.19    0.10
   2   7  14    0.15    0.08
   2   7  14    0.13    0.08
  -3  -7 -14    1.11    0.18
  -3  -7 -14    1.01    0.19
   3   7  14    1.32    0.19
   3   7  14    1.19    0.19
   3   7  14    1.33    0.19
  -4  -7 -14    0.12    0.11
  -4  -7 -14    0.25    0.13
   4   7  14    0.05    0.10
   4   7  14    0.08    0.10
   4   7  14   -0.04    0.08
  -5  -7 -14    1.75    0.25
  -5  -7 -14    2.35    0.31
   5   7  14    1.85    0.26
   5   7  14    2.05    0.26
   4  -8 -14    0.42    0.15
  -4   8  14    0.26    0.14
  -4   8  14    0.12    0.12
   3  -8 -14    0.72    0.17
  -3   8  14    0.46    0.16
  -3   8  14    0.33    0.12
  -3   8  14    0.38    0.15
   2  -8 -14    0.03    0.10
  -2   8  14    0.03    0.08
  -2   8  14   -0.09    0.09
  -2   8  14   -0.11    0.09
   1  -8 -14    2.69    0.27
  -1   8  14    3.66    0.26
  -1   8  14    3.23    0.26
   0  -8 -14    0.55    0.15
  -1  -8 -14    3.31    0.27
   1   8  14    3.37    0.27
  -2  -8 -14    0.11    0.10
   2   8  14    0.21    0.11
   2   8  14    0.08    0.08
   2   8  14    0.25    0.10
  -3  -8 -14    0.23    0.12
  -3  -8 -14    0.42    0.14
   3   8  14    0.35    0.13
   3   8  14    0.43    0.14
   3   8  14    0.20    0.11
  -4  -8 -14   -0.01    0.10
  -4  -8 -14    0.02    0.11
   4   8  14    0.10    0.11
   4   8  14    0.00    0.09
   4   8  14    0.12    0.10
  -5  -8 -14   -0.05    0.10
  -5  -8 -14    0.00    0.11
   5   8  14    0.08    0.12
   5   8  14    0.00    0.11
   3  -9 -14    1.13    0.20
  -3   9  14    0.84    0.18
  -3   9  14    1.13    0.21
  -3   9  14    0.72    0.18
   2  -9 -14    8.07    0.43
  -2   9  14    8.28    0.43
  -2   9  14    8.15    0.44
  -2   9  14    7.84    0.44
   1  -9 -14    1.62    0.23
  -1   9  14    2.11    0.25
  -1   9  14    2.30    0.24
   0  -9 -14    0.02    0.10
   0   9  14   -0.03    0.09
  -1  -9 -14    0.55    0.16
   1   9  14    0.46    0.13
  -2  -9 -14    0.53    0.17
   2   9  14    0.68    0.15
  -3  -9 -14    4.07    0.31
  -3  -9 -14    3.63    0.31
   3   9  14    3.73    0.29
   3   9  14    3.77    0.29
   3   9  14    3.71    0.28
  -4  -9 -14    0.03    0.10
  -4  -9 -14    0.18    0.13
   4   9  14    0.02    0.10
   4   9  14    0.25    0.13
   4   9  14    0.16    0.11
   3 -10 -14    0.22    0.12
  -3  10  14    0.04    0.11
  -3  10  14    0.14    0.14
  -3  10  14    0.00    0.09
   2 -10 -14    2.90    0.30
  -2  10  14    3.28    0.33
  -2  10  14    2.80    0.30
  -2  10  14    2.63    0.29
   1 -10 -14    0.14    0.11
  -1  10  14    0.03    0.09
  -1  10  14    0.12    0.10
   0 -10 -14    2.00    0.26
   0  10  14    2.38    0.28
  -1 -10 -14    0.32    0.13
   1  10  14    0.34    0.13
  -2 -10 -14    0.50    0.16
   2  10  14    0.61    0.15
  -3 -10 -14   -0.01    0.10
   3  10  14    0.04    0.10
   2 -11 -14   -0.24    0.10
  -2  11  14    0.04    0.11
  -2  11  14    0.00    0.09
   1 -11 -14    0.12    0.12
  -1  11  14    0.30    0.13
   0 -11 -14    0.20    0.12
   0  11  14    0.18    0.12
  -1 -11 -14    0.59    0.17
   1  11  14    0.86    0.19
  -2 -11 -14    0.41    0.15
   2  11  14    0.33    0.13
  -3 -11 -14    1.75    0.27
   3  11  14    1.09    0.22
   0 -12 -14    1.08    0.22
   0  12  14    1.28    0.23
   1  12  14    1.25    0.22
   2   6 -15    0.71    0.17
  -2  -6  15    0.70    0.17
   1   6 -15    1.93    0.26
  -1  -6  15    1.82    0.24
   0   6 -15    0.45    0.15
   0  -6  15    0.59    0.14
  -1   6 -15    0.40    0.15
   1  -6  15    0.30    0.11
   3   5 -15    1.47    0.23
   3   5 -15    1.69    0.24
  -3  -5  15    1.51    0.23
   2   5 -15    1.57    0.22
   2   5 -15    1.35    0.21
  -2  -5  15    1.26    0.21
   1   5 -15    0.20    0.12
  -1  -5  15    0.23    0.11
   0   5 -15    2.15    0.26
   0  -5  15    1.91    0.23
   0  -5  15    1.73    0.23
  -1   5 -15    0.42    0.14
   1  -5  15    0.13    0.09
  -2   5 -15    0.13    0.11
   2  -5  15    0.03    0.09
  -3   5 -15    0.08    0.10
   3   4 -15    1.27    0.21
   3   4 -15    1.46    0.22
  -3  -4  15    1.86    0.24
   2   4 -15    0.06    0.08
   2   4 -15    0.50    0.13
  -2  -4  15    0.43    0.13
   1   4 -15    6.25    0.36
   1   4 -15    6.24    0.34
  -1  -4  15    5.56    0.36
  -1  -4  15    6.33    0.35
   0   4 -15    0.44    0.13
   0  -4  15    0.39    0.12
   0  -4  15    0.49    0.13
  -1   4 -15    0.63    0.14
   1  -4  15    0.59    0.14
   1  -4  15    0.52    0.13
  -2   4 -15    0.07    0.09
   2  -4  15    0.09    0.08
   2  -4  15    0.12    0.09
  -3   4 -15    1.25    0.19
  -3   4 -15    1.06    0.21
  -3   4 -15    1.22    0.21
   3  -4  15    1.09    0.18
   3  -4  15    1.17    0.22
   4   3 -15    0.18    0.11
   4   3 -15    0.26    0.15
  -4  -3  15    0.21    0.12
   3   3 -15    0.44    0.15
   3   3 -15    0.26    0.11
  -3  -3  15    0.56    0.14
   2   3 -15    0.83    0.17
   2   3 -15    0.61    0.15
  -2  -3  15    0.87    0.16
  -2  -3  15    0.71    0.15
   1   3 -15    0.29    0.11
   1   3 -15    0.16    0.10
  -1  -3  15    0.22    0.10
  -1  -3  15    0.14    0.08
   0   3 -15    2.19    0.25
   0  -3  15    2.55    0.24
   0  -3  15    1.77    0.21
  -1   3 -15    1.77    0.22
   1  -3  15    2.04    0.22
   1  -3  15    2.06    0.23
  -2   3 -15    1.09    0.17
   2  -3  15    0.85    0.15
   2  -3  15    0.67    0.13
  -3   3 -15    0.82    0.15
  -3   3 -15    0.88    0.19
   3  -3  15    0.68    0.15
   3  -3  15    0.91    0.19
   3  -3  15    0.73    0.15
  -4   3 -15    0.00    0.11
   4  -3  15   -0.11    0.10
   4  -3  15   -0.06    0.07
   4   2 -15    0.35    0.13
   4   2 -15    0.47    0.15
   3   2 -15    0.40    0.13
   3   2 -15    0.20    0.13
  -3  -2  15    0.28    0.11
   2   2 -15    5.03    0.31
   2   2 -15    4.73    0.31
  -2  -2  15    4.19    0.28
  -2  -2  15    4.13    0.29
   1   2 -15   12.46    0.52
   1   2 -15   13.50    0.51
  -1  -2  15   12.82    0.50
  -1  -2  15   11.89    0.52
   0   2 -15    0.50    0.12
   0   2 -15    0.57    0.13
   0  -2  15    0.42    0.11
   0  -2  15    0.36    0.11
  -1   2 -15    0.07    0.08
   1  -2  15    0.12    0.08
   1  -2  15    0.02    0.06
  -2   2 -15    2.70    0.22
   2  -2  15    2.36    0.24
   2  -2  15    1.49    0.21
   2  -2  15    2.15    0.23
   3  -2  15    1.08    0.17
   3  -2  15    1.06    0.19
   3  -2  15    1.09    0.17
   4  -2  15    3.11    0.33
   4  -2  15    2.47    0.26
   5   1 -15    0.02    0.11
   4   1 -15   -0.01    0.10
   4   1 -15   -0.01    0.11
   3   1 -15    4.45    0.32
   3   1 -15    4.84    0.32
   2   1 -15   10.83    0.48
   2   1 -15   12.12    0.50
  -2  -1  15   11.26    0.45
  -2  -1  15   11.44    0.50
   1   1 -15    7.36    0.37
   1   1 -15    7.77    0.37
  -1  -1  15    7.36    0.34
  -1  -1  15    6.57    0.35
   0   1 -15    9.77    0.42
   0   1 -15    9.63    0.41
   0  -1  15    8.71    0.41
   0  -1  15    9.54    0.40
  -1   1 -15    0.87    0.14
  -1   1 -15    1.34    0.17
   1  -1  15    1.27    0.18
   1  -1  15    1.17    0.16
  -2   1 -15    9.11    0.39
   2  -1  15    8.75    0.42
   2  -1  15    9.71    0.45
   2  -1  15    8.60    0.39
   3  -1  15    1.56    0.20
   3  -1  15    2.17    0.23
   3  -1  15    1.83    0.25
   4  -1  15    0.41    0.12
   4  -1  15    0.42    0.16
   4  -1  15    0.30    0.11
   5  -1  15    0.05    0.09
   5  -1  15    0.15    0.13
   5   0 -15    1.01    0.20
   5   0 -15    0.93    0.20
   4   0 -15    2.00    0.25
   4   0 -15    1.51    0.22
   3   0 -15    0.02    0.09
   3   0 -15    0.06    0.10
   2   0 -15    0.68    0.15
   2   0 -15    0.95    0.17
  -2   0  15    0.45    0.11
  -2   0  15    0.57    0.12
   1   0 -15    0.94    0.15
   1   0 -15    0.91    0.15
  -1   0  15    0.94    0.14
  -1   0  15    0.84    0.13
   0   0 -15    6.21    0.32
   0   0 -15    6.54    0.32
   0   0  15    6.52    0.31
   0   0  15    6.64    0.34
  -1   0 -15    0.53    0.12
  -1   0 -15    0.65    0.12
   1   0  15    0.46    0.12
   1   0  15    0.48    0.11
   1   0  15    0.47    0.11
  -2   0 -15    0.90    0.14
   2   0  15    0.76    0.16
   2   0  15    0.72    0.14
   2   0  15    0.63    0.13
   3   0  15    0.72    0.14
   3   0  15    0.89    0.16
   3   0  15    0.59    0.15
   4   0  15    3.77    0.28
   4   0  15    3.66    0.28
   4   0  15    3.77    0.32
   5   0  15    0.08    0.09
   5   0  15    0.10    0.11
   5  -1 -15    1.15    0.21
  -5   1  15    1.42    0.23
   4  -1 -15   -0.04    0.09
  -4   1  15    0.04    0.09
   3  -1 -15    0.37    0.13
   3  -1 -15    0.57    0.14
  -3   1  15    0.58    0.15
   2  -1 -15    2.43    0.25
   2  -1 -15    2.55    0.26
  -2   1  15    2.45    0.20
   1  -1 -15   13.43    0.52
   1  -1 -15   13.29    0.52
  -1   1  15   13.77    0.47
  -1   1  15   14.01    0.52
   0  -1 -15    0.04    0.07
   0  -1 -15    0.03    0.08
   0   1  15    0.08    0.07
   0   1  15    0.25    0.08
  -1  -1 -15    0.07    0.06
  -1  -1 -15    0.33    0.10
   1   1  15    0.07    0.06
   1   1  15    0.13    0.08
   1   1  15    0.07    0.07
  -2  -1 -15    8.04    0.37
   2   1  15    8.74    0.40
   2   1  15    8.17    0.37
   2   1  15    7.73    0.39
   3   1  15    8.42    0.43
   3   1  15    8.67    0.40
   3   1  15    8.13    0.41
   4   1  15    0.08    0.09
   4   1  15    0.01    0.11
   4   1  15    0.14    0.09
   5   1  15    0.18    0.13
   5   1  15    0.13    0.11
   5  -2 -15   -0.03    0.10
  -5   2  15   -0.08    0.10
   4  -2 -15    0.17    0.11
  -4   2  15    0.04    0.10
   3  -2 -15    0.03    0.09
  -3   2  15    0.01    0.09
   2  -2 -15    1.83    0.22
   2  -2 -15    1.87    0.21
  -2   2  15    1.73    0.21
  -2   2  15    1.98    0.20
   1  -2 -15   11.68    0.48
   1  -2 -15   12.16    0.49
  -1   2  15   11.80    0.46
  -1   2  15   12.10    0.41
  -1   2  15   12.39    0.47
   0  -2 -15    0.40    0.10
   0  -2 -15    0.56    0.13
   0   2  15    0.54    0.11
   0   2  15    0.51    0.10
   0   2  15    0.43    0.10
  -1  -2 -15    2.29    0.17
  -1  -2 -15    2.44    0.20
   1   2  15    1.81    0.20
   1   2  15    2.30    0.22
   1   2  15    2.47    0.19
  -2  -2 -15    8.14    0.38
   2   2  15    8.96    0.41
   2   2  15    8.56    0.38
   2   2  15    8.03    0.39
  -3  -2 -15    1.39    0.19
   3   2  15    1.40    0.20
   3   2  15    1.26    0.18
   3   2  15    1.41    0.19
   4   2  15    0.60    0.14
   4   2  15    0.52    0.14
   4   2  15    0.44    0.13
   5   2  15    0.36    0.14
   5   2  15    0.27    0.13
   5  -3 -15    0.41    0.15
  -5   3  15    0.57    0.17
  -5   3  15    0.36    0.15
   4  -3 -15    0.21    0.11
  -4   3  15    0.14    0.12
  -4   3  15    0.30    0.14
   3  -3 -15    0.60    0.14
  -3   3  15    0.54    0.14
  -3   3  15    0.43    0.13
   2  -3 -15    0.57    0.13
  -2   3  15    0.41    0.12
  -2   3  15    0.63    0.11
   1  -3 -15    0.31    0.10
   1  -3 -15    0.37    0.11
  -1   3  15    0.34    0.10
  -1   3  15    0.36    0.09
   0  -3 -15    1.74    0.20
   0  -3 -15    1.57    0.17
   0   3  15    1.64    0.18
   0   3  15    1.97    0.17
   0   3  15    1.79    0.17
  -1  -3 -15    1.89    0.21
   1   3  15    2.36    0.17
   1   3  15    1.92    0.20
   1   3  15    1.62    0.19
  -2  -3 -15    1.20    0.17
   2   3  15    1.42    0.18
   2   3  15    1.23    0.18
   2   3  15    1.18    0.16
  -3  -3 -15    2.18    0.24
   3   3  15    1.92    0.22
   3   3  15    1.42    0.21
   3   3  15    2.03    0.23
  -4  -3 -15    0.48    0.14
   4   3  15    0.58    0.14
   4   3  15    0.41    0.12
   4   3  15    0.47    0.14
   5   3  15    0.34    0.14
   5   3  15    0.34    0.13
   5  -4 -15    0.19    0.13
  -5   4  15    0.13    0.12
   4  -4 -15   -0.06    0.09
  -4   4  15   -0.11    0.09
  -4   4  15    0.19    0.12
   3  -4 -15    3.33    0.25
  -3   4  15    3.38    0.27
  -3   4  15    3.40    0.28
   2  -4 -15    0.29    0.11
  -2   4  15    0.48    0.12
  -2   4  15    0.35    0.12
   1  -4 -15    0.09    0.08
  -1   4  15    0.05    0.08
  -1   4  15    0.00    0.05
  -1   4  15    0.11    0.06
   0  -4 -15    2.35    0.20
   0  -4 -15    2.08    0.19
   0   4  15    2.04    0.20
   0   4  15    1.98    0.16
  -1  -4 -15    0.65    0.14
   1   4  15    0.65    0.13
   1   4  15    0.61    0.11
   1   4  15    0.77    0.13
  -2  -4 -15    1.33    0.19
   2   4  15    1.73    0.20
   2   4  15    1.49    0.18
   2   4  15    1.38    0.18
  -3  -4 -15    4.97    0.31
   3   4  15    4.70    0.29
   3   4  15    4.63    0.31
   3   4  15    4.70    0.30
  -4  -4 -15    1.05    0.19
  -4  -4 -15    1.41    0.21
   4   4  15    1.40    0.20
   4   4  15    0.98    0.17
   4   4  15    0.98    0.18
  -5  -4 -15    0.93    0.18
  -5  -4 -15    1.65    0.24
   5   4  15    0.89    0.19
   5   4  15    1.45    0.22
  -5   5  15   -0.09    0.10
   4  -5 -15    1.09    0.18
  -4   5  15    1.20    0.22
  -4   5  15    1.37    0.23
   3  -5 -15    1.14    0.18
  -3   5  15    1.02    0.18
  -3   5  15    0.89    0.18
   2  -5 -15    0.35    0.11
  -2   5  15    0.52    0.13
  -2   5  15    0.32    0.11
   1  -5 -15   -0.03    0.07
  -1   5  15   -0.01    0.04
  -1   5  15   -0.02    0.08
  -1   5  15   -0.03    0.06
   0  -5 -15    0.01    0.08
   0   5  15   -0.05    0.04
   0   5  15    0.14    0.08
  -1  -5 -15    0.17    0.10
   1   5  15    0.17    0.07
   1   5  15    0.08    0.08
   1   5  15    0.26    0.08
  -2  -5 -15    0.49    0.13
   2   5  15    0.58    0.12
   2   5  15    0.89    0.16
   2   5  15    0.63    0.13
  -3  -5 -15    1.74    0.22
  -3  -5 -15    2.00    0.22
   3   5  15    2.11    0.22
   3   5  15    1.61    0.22
   3   5  15    1.64    0.20
  -4  -5 -15    0.05    0.09
  -4  -5 -15   -0.05    0.09
   4   5  15   -0.01    0.08
   4   5  15    0.02    0.08
   4   5  15    0.23    0.11
  -5  -5 -15    0.11    0.11
  -5  -5 -15    0.07    0.10
   5   5  15    0.31    0.14
   5   5  15    0.00    0.09
   4  -6 -15    0.72    0.17
  -4   6  15    0.91    0.19
  -4   6  15    0.76    0.19
   3  -6 -15    1.09    0.18
  -3   6  15    1.70    0.23
  -3   6  15    1.42    0.22
   2  -6 -15    1.24    0.19
  -2   6  15    1.60    0.21
  -2   6  15    1.73    0.22
   1  -6 -15    0.00    0.08
  -1   6  15    0.04    0.07
  -1   6  15    0.01    0.09
  -1   6  15   -0.07    0.07
   0  -6 -15    0.12    0.09
   0   6  15    0.02    0.07
   0   6  15    0.09    0.06
  -1  -6 -15    2.24    0.25
   1   6  15    1.83    0.19
  -2  -6 -15    0.11    0.09
  -2  -6 -15    0.04    0.08
   2   6  15    0.13    0.08
   2   6  15    0.07    0.07
   2   6  15    0.08    0.08
  -3  -6 -15    0.26    0.11
  -3  -6 -15    0.26    0.11
   3   6  15    0.48    0.13
   3   6  15    0.43    0.13
  -4  -6 -15    1.71    0.24
  -4  -6 -15    1.19    0.19
   4   6  15    1.38    0.20
   4   6  15    1.66    0.22
   4   6  15    1.76    0.24
  -5  -6 -15    1.96    0.27
  -5  -6 -15    1.50    0.23
   5   6  15    1.71    0.24
   5   6  15    1.54    0.24
   4  -7 -15    0.04    0.11
  -4   7  15    0.11    0.13
  -4   7  15   -0.09    0.11
   3  -7 -15    1.41    0.21
  -3   7  15    1.07    0.21
  -3   7  15    1.80    0.24
   2  -7 -15    1.50    0.21
  -2   7  15    1.43    0.21
  -2   7  15    1.45    0.21
  -2   7  15    1.59    0.20
   1  -7 -15    0.17    0.11
  -1   7  15    0.01    0.10
  -1   7  15    0.10    0.08
  -1   7  15    0.11    0.10
   0  -7 -15    0.39    0.14
   0   7  15    0.42    0.12
  -1  -7 -15    3.20    0.26
   1   7  15    3.42    0.22
   1   7  15    3.28    0.26
  -2  -7 -15   -0.05    0.07
  -2  -7 -15   -0.02    0.09
   2   7  15   -0.03    0.08
   2   7  15    0.00    0.08
   2   7  15   -0.02    0.06
  -3  -7 -15    0.05    0.09
  -3  -7 -15    0.12    0.10
   3   7  15    0.14    0.10
   3   7  15    0.03    0.09
   3   7  15   -0.05    0.07
  -4  -7 -15    0.41    0.15
  -4  -7 -15    0.43    0.15
   4   7  15    0.41    0.14
   4   7  15    0.66    0.16
   4   7  15    0.40    0.15
  -5  -7 -15    1.76    0.28
  -5  -7 -15    1.52    0.24
   5   7  15    1.44    0.24
   5   7  15    1.74    0.26
  -4   8  15    0.21    0.15
   3  -8 -15    0.55    0.16
  -3   8  15    0.62    0.17
  -3   8  15    0.51    0.14
  -3   8  15    0.55    0.17
   2  -8 -15    0.19    0.12
  -2   8  15   -0.09    0.09
  -2   8  15    0.02    0.09
  -2   8  15    0.01    0.11
   1  -8 -15    0.29    0.13
  -1   8  15    0.36    0.12
  -1   8  15    0.21    0.12
   0  -8 -15    0.13    0.11
   0   8  15    0.09    0.10
  -1  -8 -15    0.04    0.10
   1   8  15   -0.03    0.08
  -2  -8 -15    0.16    0.12
   2   8  15    0.03    0.07
   2   8  15   -0.01    0.09
  -3  -8 -15   -0.06    0.10
  -3  -8 -15    0.04    0.10
   3   8  15   -0.23    0.08
   3   8  15   -0.07    0.08
   3   8  15    0.03    0.08
  -4  -8 -15    0.03    0.10
  -4  -8 -15   -0.12    0.10
   4   8  15    0.02    0.08
   4   8  15    0.20    0.11
   4   8  15   -0.03    0.09
   3  -9 -15    1.15    0.20
  -3   9  15    1.66    0.25
  -3   9  15    1.57    0.25
  -3   9  15    1.76    0.25
   2  -9 -15    0.02    0.12
  -2   9  15    0.20    0.13
  -2   9  15    0.19    0.11
  -2   9  15    0.02    0.11
   1  -9 -15    0.26    0.13
   0  -9 -15   -0.02    0.09
   0   9  15    0.05    0.09
  -1  -9 -15    0.03    0.11
   1   9  15   -0.06    0.09
  -2  -9 -15   -0.17    0.08
   2   9  15   -0.10    0.08
  -3  -9 -15    0.32    0.15
   3   9  15    0.25    0.11
   3   9  15    0.31    0.13
  -4  -9 -15    0.22    0.15
  -4  -9 -15    0.18    0.12
   4   9  15    0.13    0.12
   4   9  15    0.32    0.13
   2 -10 -15    0.55    0.16
  -2  10  15    0.24    0.12
  -2  10  15    0.39    0.15
   1 -10 -15   -0.05    0.10
  -1  10  15   -0.02    0.09
   0 -10 -15    0.20    0.12
   0  10  15    0.18    0.11
  -1 -10 -15    0.17    0.12
   1  10  15    0.07    0.10
  -2 -10 -15    0.04    0.12
   2  10  15   -0.09    0.08
  -3 -10 -15    0.38    0.16
   3  10  15    0.40    0.14
   1 -11 -15    0.07    0.13
  -1  11  15    0.25    0.13
   0 -11 -15    0.57    0.16
  -1 -11 -15    0.05    0.11
   1  11  15    0.08    0.11
  -2 -11 -15    0.15    0.14
   2  11  15    0.06    0.11
   2   5 -16    0.05    0.09
  -2  -5  16    0.03    0.09
   1   5 -16    0.83    0.19
  -1  -5  16    0.45    0.14
   0   5 -16    0.12    0.11
   0  -5  16    0.24    0.11
  -1   5 -16    0.05    0.09
   1  -5  16    0.04    0.09
   3   4 -16    1.23    0.21
   3   4 -16    0.96    0.19
  -3  -4  16    1.27    0.21
   2   4 -16    0.05    0.10
   2   4 -16    0.15    0.12
  -2  -4  16    0.04    0.09
   1   4 -16    1.25    0.20
  -1  -4  16    0.83    0.16
   0   4 -16    0.39    0.13
   0  -4  16    0.71    0.15
  -1   4 -16    1.66    0.23
   1  -4  16    1.76    0.22
  -2   4 -16    1.77    0.23
   2  -4  16    2.45    0.26
   3   3 -16    0.05    0.10
   3   3 -16    0.17    0.12
  -3  -3  16    0.11    0.10
   2   3 -16   -0.04    0.08
   2   3 -16    0.09    0.11
  -2  -3  16   -0.03    0.07
  -2  -3  16   -0.04    0.05
   1   3 -16    1.18    0.19
   1   3 -16    1.21    0.18
  -1  -3  16    1.20    0.19
  -1  -3  16    1.11    0.18
   0   3 -16    0.21    0.10
   0  -3  16    0.26    0.09
   0  -3  16    0.29    0.11
  -1   3 -16    2.93    0.29
   1  -3  16    2.17    0.24
   1  -3  16    1.99    0.23
  -2   3 -16    0.33    0.12
   2  -3  16    0.28    0.11
  -3   3 -16    0.60    0.18
   3  -3  16    0.46    0.13
   3  -3  16    0.49    0.15
   4   2 -16    1.58    0.24
   4   2 -16    1.62    0.25
   3   2 -16    0.59    0.16
   3   2 -16    1.04    0.19
  -3  -2  16    0.67    0.15
   2   2 -16   -0.09    0.07
   2   2 -16    0.11    0.10
  -2  -2  16   -0.03    0.06
  -2  -2  16   -0.01    0.07
   1   2 -16    0.96    0.16
   1   2 -16    0.86    0.16
  -1  -2  16    0.77    0.14
  -1  -2  16    0.77    0.14
   0   2 -16    0.34    0.11
   0   2 -16    0.35    0.12
   0  -2  16    0.49    0.12
   0  -2  16    0.24    0.10
  -1   2 -16    0.23    0.11
   1  -2  16    0.17    0.09
   1  -2  16    0.18    0.10
  -2   2 -16    1.09    0.17
   2  -2  16    1.06    0.18
   2  -2  16    0.68    0.14
   3  -2  16    1.82    0.22
   3  -2  16    1.56    0.24
   4  -2  16    1.80    0.27
   4  -2  16    1.48    0.21
   4   1 -16    0.38    0.14
   4   1 -16    0.50    0.15
   3   1 -16    0.04    0.10
   3   1 -16    0.12    0.11
   2   1 -16    0.42    0.13
   2   1 -16    0.45    0.13
  -2  -1  16    0.49    0.13
  -2  -1  16    0.71    0.14
   1   1 -16    7.35    0.37
   1   1 -16    6.82    0.37
  -1  -1  16    6.99    0.38
  -1  -1  16    8.45    0.37
   0   1 -16    1.33    0.18
   0   1 -16    1.20    0.18
   0  -1  16    1.03    0.16
   0  -1  16    1.27    0.17
  -1   1 -16    2.82    0.22
   1  -1  16    2.93    0.23
   1  -1  16    3.05    0.24
  -2   1 -16    0.04    0.08
   2  -1  16    0.05    0.08
   2  -1  16   -0.01    0.07
   2  -1  16    0.02    0.09
   3  -1  16    0.06    0.09
   3  -1  16    0.03    0.07
   3  -1  16   -0.03    0.10
   4  -1  16    4.39    0.35
   4  -1  16    4.21    0.31
   4   0 -16    0.03    0.10
   4   0 -16   -0.01    0.10
   3   0 -16    4.95    0.33
   3   0 -16    5.03    0.34
   2   0 -16    2.83    0.25
   2   0 -16    2.71    0.27
  -2   0  16    2.42    0.25
  -2   0  16    3.28    0.22
   1   0 -16    5.28    0.31
   1   0 -16    5.50    0.32
  -1   0  16    5.43    0.28
  -1   0  16    5.28    0.31
   0   0 -16    8.17    0.38
   0   0 -16    8.06    0.37
   0   0  16    7.99    0.35
   0   0  16    7.99    0.39
  -1   0 -16    0.89    0.14
  -1   0 -16    0.49    0.12
   1   0  16    0.66    0.13
   2   0  16    0.51    0.14
   2   0  16    0.14    0.08
   2   0  16    0.20    0.09
   3   0  16    8.62    0.44
   3   0  16    8.29    0.40
   3   0  16    8.69    0.43
   4   0  16    0.21    0.13
   4   0  16    0.11    0.10
   4  -1 -16    0.12    0.11
   4  -1 -16    0.09    0.11
  -4   1  16    0.18    0.12
   3  -1 -16    1.10    0.18
   3  -1 -16    1.05    0.19
  -3   1  16    0.92    0.17
   2  -1 -16   11.95    0.51
   2  -1 -16   12.33    0.53
  -2   1  16   11.82    0.49
   1  -1 -16    3.76    0.26
   1  -1 -16    4.05    0.28
  -1   1  16    4.20    0.24
  -1   1  16    3.37    0.24
   0  -1 -16    1.09    0.17
   0  -1 -16    0.99    0.15
   0   1  16    1.05    0.16
   0   1  16    1.15    0.15
  -1  -1 -16    7.16    0.36
  -1  -1 -16    7.79    0.35
   1   1  16    8.35    0.36
   1   1  16    7.50    0.38
   1   1  16    7.54    0.36
  -2  -1 -16    0.89    0.15
   2   1  16    0.88    0.16
   2   1  16    0.85    0.15
   2   1  16    0.72    0.14
   3   1  16    4.87    0.30
   3   1  16    4.77    0.31
   3   1  16    5.50    0.35
   4   1  16    8.86    0.48
   4   1  16    8.79    0.44
   4  -2 -16   -0.05    0.09
  -4   2  16   -0.01    0.10
   3  -2 -16    0.02    0.09
   3  -2 -16   -0.06    0.09
  -3   2  16    0.15    0.10
   2  -2 -16    1.82    0.22
   2  -2 -16    2.04    0.23
  -2   2  16    2.03    0.22
  -2   2  16    2.01    0.21
   1  -2 -16    0.80    0.14
   1  -2 -16    0.99    0.16
  -1   2  16    1.05    0.15
   0  -2 -16    0.15    0.10
   0  -2 -16    0.31    0.10
   0   2  16    0.19    0.08
   0   2  16    0.41    0.09
  -1  -2 -16    5.93    0.33
   1   2  16    5.80    0.32
   1   2  16    6.37    0.31
  -2  -2 -16    1.53    0.20
   2   2  16    1.54    0.19
   2   2  16    1.70    0.21
   2   2  16    1.69    0.20
  -3  -2 -16    0.97    0.17
   3   2  16    1.07    0.17
   3   2  16    0.97    0.17
   3   2  16    0.87    0.17
   4   2  16    2.63    0.27
   4   2  16    2.67    0.29
   4   2  16    2.75    0.28
   5   2  16    0.04    0.11
   5   2  16    0.04    0.11
   4  -3 -16    0.53    0.16
  -4   3  16    0.80    0.18
   3  -3 -16    0.36    0.12
  -3   3  16    0.31    0.13
   2  -3 -16    0.78    0.15
  -2   3  16    1.11    0.15
  -2   3  16    1.35    0.19
   1  -3 -16    0.12    0.08
   1  -3 -16    0.22    0.10
  -1   3  16    0.07    0.06
  -1   3  16    0.24    0.10
   0  -3 -16    0.95    0.14
   0  -3 -16    0.93    0.16
   0   3  16    0.83    0.14
   0   3  16    1.15    0.14
   0   3  16    0.96    0.14
  -1  -3 -16    8.79    0.41
   1   3  16    9.33    0.41
   1   3  16    9.39    0.38
   1   3  16    8.21    0.39
  -2  -3 -16    1.15    0.18
   2   3  16    1.52    0.19
   2   3  16    1.73    0.20
   2   3  16    1.21    0.18
  -3  -3 -16    0.59    0.14
   3   3  16    0.43    0.13
   3   3  16    0.56    0.13
   3   3  16    0.37    0.11
   4   3  16   -0.05    0.07
   4   3  16    0.01    0.09
   4   3  16    0.17    0.10
   5   3  16    0.24    0.13
   5   3  16    0.12    0.12
   4  -4 -16    2.34    0.26
  -4   4  16    2.26    0.29
  -4   4  16    2.39    0.29
   3  -4 -16    0.15    0.10
  -3   4  16   -0.06    0.09
  -3   4  16    0.17    0.11
   2  -4 -16    4.37    0.29
  -2   4  16    4.30    0.29
   1  -4 -16    1.40    0.19
   1  -4 -16    1.30    0.17
  -1   4  16    1.31    0.15
  -1   4  16    1.23    0.17
   0  -4 -16    1.44    0.19
   0   4  16    1.32    0.16
  -1  -4 -16    1.85    0.22
   1   4  16    1.89    0.21
   1   4  16    1.99    0.21
   1   4  16    2.09    0.19
  -2  -4 -16    0.14    0.10
   2   4  16    0.13    0.07
   2   4  16    0.11    0.08
   2   4  16   -0.03    0.06
  -3  -4 -16    2.09    0.24
   3   4  16    1.93    0.23
   3   4  16    2.00    0.23
   3   4  16    2.28    0.26
  -4  -4 -16    0.97    0.19
   4   4  16    1.49    0.21
   4   4  16    1.43    0.21
   4   4  16    1.37    0.21
  -5  -4 -16    0.27    0.12
   5   4  16    0.06    0.11
   5   4  16    0.05    0.10
   4  -5 -16    0.01    0.10
  -4   5  16    0.12    0.12
  -4   5  16    0.00    0.12
   3  -5 -16   -0.08    0.08
  -3   5  16   -0.07    0.10
  -3   5  16    0.02    0.10
   2  -5 -16    0.30    0.12
  -2   5  16    0.89    0.17
  -2   5  16    0.49    0.15
   1  -5 -16    2.80    0.24
  -1   5  16    3.23    0.22
   0  -5 -16    5.29    0.33
   0   5  16    5.80    0.31
   0   5  16    5.81    0.29
  -1  -5 -16   -0.04    0.07
   1   5  16    0.00    0.07
   1   5  16    0.14    0.07
   1   5  16    0.03    0.06
  -2  -5 -16    0.26    0.11
   2   5  16    0.28    0.10
   2   5  16    0.37    0.12
   2   5  16    0.45    0.11
  -3  -5 -16    1.45    0.21
   3   5  16    1.90    0.23
   3   5  16    1.75    0.21
   3   5  16    1.41    0.21
  -4  -5 -16    0.09    0.11
  -4  -5 -16   -0.09    0.09
   4   5  16    0.05    0.10
   4   5  16   -0.02    0.08
   4   5  16   -0.02    0.08
  -5  -5 -16    0.29    0.14
  -5  -5 -16    0.47    0.16
   5   5  16    0.42    0.15
   5   5  16    0.63    0.17
   4  -6 -16    2.70    0.30
  -4   6  16    3.10    0.34
  -4   6  16    2.39    0.30
   3  -6 -16    0.03    0.09
  -3   6  16   -0.08    0.10
  -3   6  16   -0.14    0.09
   2  -6 -16    4.18    0.31
  -2   6  16    4.48    0.32
  -2   6  16    5.01    0.32
   1  -6 -16    0.48    0.14
  -1   6  16    0.41    0.12
  -1   6  16    0.34    0.11
   0  -6 -16    3.58    0.27
   0   6  16    3.48    0.25
  -1  -6 -16    0.49    0.14
   1   6  16    0.87    0.16
   1   6  16    0.54    0.12
  -2  -6 -16    1.57    0.22
   2   6  16    1.72    0.22
   2   6  16    2.04    0.21
   2   6  16    1.60    0.19
  -3  -6 -16    4.27    0.30
  -3  -6 -16    3.84    0.31
   3   6  16    3.74    0.29
   3   6  16    4.76    0.30
   3   6  16    3.75    0.28
  -4  -6 -16    0.78    0.19
  -4  -6 -16    0.89    0.18
   4   6  16    1.26    0.21
   4   6  16    0.89    0.17
   3  -7 -16    0.02    0.11
  -3   7  16    0.00    0.12
  -3   7  16   -0.04    0.10
   2  -7 -16    3.03    0.30
  -2   7  16    4.03    0.28
  -2   7  16    3.35    0.31
  -2   7  16    3.68    0.29
   1  -7 -16    0.91    0.17
  -1   7  16    0.88    0.16
   0  -7 -16    2.55    0.28
   0   7  16    2.28    0.25
  -1  -7 -16    6.00    0.37
   1   7  16    6.83    0.37
  -2  -7 -16    1.32    0.21
   2   7  16    1.11    0.17
   2   7  16    0.74    0.16
  -3  -7 -16    0.34    0.12
  -3  -7 -16    0.17    0.11
   3   7  16    0.18    0.11
   3   7  16    0.38    0.14
   3   7  16    0.16    0.10
  -4  -7 -16    0.02    0.09
  -4  -7 -16    0.13    0.11
   4   7  16    0.13    0.12
   4   7  16    0.07    0.10
   3  -8 -16    0.50    0.16
  -3   8  16    0.46    0.17
  -3   8  16    0.97    0.20
   2  -8 -16    0.32    0.13
  -2   8  16    0.37    0.12
  -2   8  16    0.41    0.14
  -2   8  16    0.20    0.12
   1  -8 -16    0.48    0.14
  -1   8  16    0.56    0.14
   0  -8 -16    0.97    0.19
   0   8  16    1.11    0.19
  -1  -8 -16    1.09    0.20
   1   8  16    0.89    0.18
  -2  -8 -16    0.06    0.11
   2   8  16    0.00    0.10
   2   8  16    0.23    0.10
  -3  -8 -16    0.24    0.13
  -3  -8 -16    0.40    0.13
   3   8  16    0.05    0.10
   3   8  16    0.28    0.12
   3   8  16    0.32    0.11
  -4  -8 -16   -0.04    0.09
  -4  -8 -16    0.00    0.12
   4   8  16    0.13    0.11
   4   8  16    0.02    0.10
   2  -9 -16    0.14    0.12
  -2   9  16    0.20    0.12
  -2   9  16    0.00    0.09
   1  -9 -16    0.00    0.11
  -1   9  16   -0.02    0.09
   0  -9 -16    2.51    0.29
   0   9  16    2.15    0.26
  -1  -9 -16    3.92    0.32
   1   9  16    4.30    0.31
  -2  -9 -16    0.20    0.13
   2   9  16    0.18    0.11
  -3  -9 -16    0.57    0.17
   3   9  16    0.63    0.15
   3   9  16    0.44    0.14
   1 -10 -16    0.20    0.13
  -1  10  16    0.10    0.11
   0 -10 -16    1.66    0.24
   0  10  16    1.38    0.23
  -1 -10 -16    0.12    0.12
   1  10  16    0.22    0.11
  -2 -10 -16    0.17    0.13
   2  10  16    0.11    0.10
   1   4 -17    2.82    0.30
  -1  -4  17    2.82    0.29
   0   4 -17    0.28    0.13
   0  -4  17    0.13    0.10
  -1   4 -17    0.25    0.12
   1  -4  17    0.67    0.15
   2   3 -17    0.35    0.14
   2   3 -17    0.24    0.12
  -2  -3  17    0.20    0.11
   1   3 -17    1.37    0.20
   1   3 -17    1.61    0.23
  -1  -3  17    1.61    0.21
   0   3 -17    0.06    0.09
   0  -3  17   -0.04    0.07
  -1   3 -17    0.04    0.09
   1  -3  17    0.16    0.10
  -2   3 -17   -0.01    0.09
   2  -3  17    0.01    0.08
   3   2 -17    2.11    0.27
   3   2 -17    1.50    0.23
   2   2 -17    0.13    0.10
   2   2 -17    0.05    0.10
  -2  -2  17    0.25    0.11
  -2  -2  17    0.25    0.11
   1   2 -17    1.88    0.22
   1   2 -17    1.81    0.23
  -1  -2  17    1.95    0.23
  -1  -2  17    2.08    0.24
   0   2 -17    0.43    0.12
   0  -2  17    0.55    0.13
   0  -2  17    0.40    0.11
  -1   2 -17   -0.05    0.07
   1  -2  17   -0.12    0.05
   1  -2  17    0.14    0.09
  -2   2 -17    0.79    0.15
   2  -2  17    0.87    0.17
   3  -2  17    0.20    0.12
   3  -2  17    0.27    0.12
   3   1 -17    6.65    0.39
   3   1 -17    6.47    0.40
   2   1 -17    0.23    0.12
   2   1 -17    0.09    0.09
  -2  -1  17    0.30    0.10
  -2  -1  17    0.03    0.08
   1   1 -17    0.34    0.12
   1   1 -17    0.28    0.11
  -1  -1  17    0.16    0.09
  -1  -1  17    0.37    0.11
   0   1 -17    1.40    0.20
   0   1 -17    1.67    0.20
   0  -1  17    0.91    0.16
   0  -1  17    1.46    0.18
  -1   1 -17    4.84    0.29
   1  -1  17    3.76    0.28
   1  -1  17    3.87    0.26
   2  -1  17    1.19    0.18
   2  -1  17    1.52    0.21
   3  -1  17    1.31    0.22
   3  -1  17    0.87    0.17
   4   0 -17    3.00    0.32
   4   0 -17    3.03    0.32
   3   0 -17    1.39    0.21
   3   0 -17    0.97    0.19
   2   0 -17    2.96    0.29
   2   0 -17    2.99    0.25
  -2   0  17    2.73    0.27
   1   0 -17    1.23    0.18
   1   0 -17    1.15    0.18
  -1   0  17    1.29    0.18
  -1   0  17    1.38    0.18
   0   0 -17    1.06    0.17
   0   0 -17    1.06    0.16
   0   0  17    0.74    0.14
   0   0  17    1.27    0.17
  -1   0 -17    0.52    0.12
  -1   0 -17    0.50    0.13
   1   0  17    0.72    0.14
   1   0  17    0.47    0.12
   2   0  17    3.86    0.27
   2   0  17    3.27    0.26
   2   0  17    3.20    0.25
   3   0  17    0.07    0.10
   3   0  17    0.13    0.11
   4   0  17    0.03    0.11
   4   0  17    0.06    0.09
   4  -1 -17    0.10    0.11
   4  -1 -17   -0.13    0.08
   3  -1 -17    3.85    0.30
   3  -1 -17    3.78    0.30
   2  -1 -17    0.34    0.12
   2  -1 -17    0.22    0.11
  -2   1  17    0.25    0.10
   1  -1 -17    0.79    0.16
   1  -1 -17    0.74    0.15
  -1   1  17    0.61    0.13
  -1   1  17    0.90    0.14
   0  -1 -17    1.28    0.19
   0   1  17    1.19    0.17
   0   1  17    1.48    0.18
  -1  -1 -17    3.70    0.26
   1   1  17    3.75    0.27
   1   1  17    4.48    0.27
  -2  -1 -17    1.38    0.19
   2   1  17    1.96    0.22
   2   1  17    1.65    0.21
   3   1  17    0.05    0.09
   3   1  17    0.21    0.10
   3   1  17    0.04    0.08
   4   1  17    1.81    0.26
   4   1  17    2.32    0.27
   4  -2 -17    0.60    0.17
   4  -2 -17    0.73    0.16
  -4   2  17    0.77    0.18
   3  -2 -17    1.12    0.20
   3  -2 -17    0.92    0.18
  -3   2  17    1.17    0.20
   2  -2 -17   -0.05    0.08
   2  -2 -17    0.11    0.09
  -2   2  17    0.04    0.06
  -2   2  17    0.09    0.11
   1  -2 -17    2.77    0.23
   1  -2 -17    2.91    0.24
  -1   2  17    2.62    0.21
   0  -2 -17    3.28    0.23
   0  -2 -17    3.64    0.27
   0   2  17    3.14    0.21
   0   2  17    3.05    0.23
  -1  -2 -17    6.87    0.36
   1   2  17    6.06    0.33
   1   2  17    6.65    0.32
  -2  -2 -17    0.03    0.08
   2   2  17   -0.06    0.07
   2   2  17    0.07    0.07
   2   2  17   -0.03    0.08
   3   2  17   -0.01    0.08
   3   2  17    0.20    0.12
   3   2  17    0.29    0.11
   4   2  17    1.90    0.24
   4   2  17    1.61    0.23
   4  -3 -17   -0.01    0.10
  -4   3  17    0.24    0.13
   3  -3 -17    0.23    0.11
  -3   3  17    0.27    0.12
   2  -3 -17   -0.07    0.08
   2  -3 -17    0.00    0.08
  -2   3  17    0.01    0.09
   1  -3 -17   -0.02    0.08
   1  -3 -17    0.04    0.08
  -1   3  17   -0.03    0.05
   0  -3 -17    0.10    0.07
   0  -3 -17    0.06    0.09
   0   3  17    0.03    0.05
  -1  -3 -17    0.05    0.09
   1   3  17    0.11    0.08
   1   3  17    0.11    0.09
   1   3  17    0.12    0.08
  -2  -3 -17    0.95    0.17
   2   3  17    0.92    0.17
   2   3  17    1.03    0.16
   2   3  17    0.66    0.14
  -3  -3 -17    3.45    0.27
   3   3  17    3.53    0.29
   3   3  17    3.36    0.27
   3   3  17    3.76    0.27
   4   3  17   -0.04    0.10
   4   3  17    0.08    0.10
   4  -4 -17   -0.10    0.08
  -4   4  17    0.01    0.11
  -4   4  17   -0.16    0.08
   3  -4 -17    0.97    0.18
  -3   4  17    0.96    0.18
   2  -4 -17    1.13    0.18
  -2   4  17    1.13    0.19
   1  -4 -17    1.56    0.20
   1  -4 -17    0.99    0.17
  -1   4  17    1.05    0.15
   0  -4 -17    1.57    0.21
   0   4  17    1.59    0.19
   0   4  17    1.95    0.20
  -1  -4 -17    2.80    0.28
   1   4  17    3.16    0.21
   1   4  17    2.49    0.21
   1   4  17    2.72    0.23
  -2  -4 -17    2.57    0.27
   2   4  17    2.61    0.22
   2   4  17    2.87    0.26
   2   4  17    2.69    0.27
  -3  -4 -17    2.92    0.29
   3   4  17    2.79    0.27
   3   4  17    2.36    0.27
   3   4  17    2.49    0.26
  -4  -4 -17    0.36    0.13
   4   4  17    0.40    0.14
   4   4  17    0.47    0.15
   4  -5 -17   -0.01    0.11
  -4   5  17    0.24    0.15
  -4   5  17    0.09    0.13
   3  -5 -17    0.42    0.14
  -3   5  17    0.74    0.17
  -3   5  17    0.44    0.15
   2  -5 -17    0.55    0.15
  -2   5  17    0.31    0.13
   1  -5 -17    0.03    0.10
   0  -5 -17    0.50    0.14
   0   5  17    0.51    0.11
   0   5  17    0.63    0.13
  -1  -5 -17    0.85    0.17
   1   5  17    0.79    0.14
   1   5  17    0.88    0.16
  -2  -5 -17    0.61    0.16
   2   5  17    0.69    0.14
   2   5  17    0.79    0.16
   2   5  17    0.65    0.13
  -3  -5 -17    0.10    0.10
   3   5  17    0.22    0.12
   3   5  17    0.13    0.10
   3   5  17   -0.06    0.07
  -4  -5 -17    0.10    0.11
   4   5  17    0.02    0.10
   4   5  17   -0.01    0.10
   3  -6 -17    0.25    0.12
  -3   6  17    0.04    0.11
  -3   6  17    0.05    0.12
   2  -6 -17    0.25    0.13
  -2   6  17    0.29    0.13
  -2   6  17    0.21    0.13
   1  -6 -17    0.04    0.09
  -1   6  17   -0.09    0.06
   0  -6 -17    0.08    0.10
   0   6  17    0.11    0.09
  -1  -6 -17    0.08    0.10
   1   6  17    0.04    0.09
   1   6  17    0.11    0.08
  -2  -6 -17    1.28    0.22
   2   6  17    1.06    0.17
   2   6  17    1.20    0.20
   2   6  17    1.25    0.18
  -3  -6 -17    1.12    0.20
   3   6  17    1.58    0.24
   3   6  17    1.13    0.18
   3   6  17    1.48    0.21
  -4  -6 -17    0.17    0.12
  -4  -6 -17    0.09    0.10
   4   6  17   -0.06    0.09
   4   6  17    0.11    0.11
   3  -7 -17    0.21    0.14
  -3   7  17    0.12    0.13
  -3   7  17    0.14    0.13
   2  -7 -17   -0.07    0.10
  -2   7  17    0.17    0.12
  -2   7  17   -0.01    0.11
   1  -7 -17    0.35    0.14
  -1   7  17    0.43    0.13
   0  -7 -17    1.28    0.21
   0   7  17    1.53    0.22
  -1  -7 -17    0.74    0.17
   1   7  17    0.87    0.17
  -2  -7 -17    0.27    0.13
   2   7  17    0.32    0.11
   2   7  17    0.33    0.13
  -3  -7 -17    2.08    0.24
  -3  -7 -17    1.50    0.24
   3   7  17    1.89    0.23
   3   7  17    1.27    0.21
   3   7  17    2.28    0.25
   4   7  17    0.28    0.14
   4   7  17    0.11    0.11
   2  -8 -17   -0.08    0.10
   1  -8 -17    0.60    0.16
  -1   8  17    0.72    0.16
   0  -8 -17    1.20    0.21
   0   8  17    1.77    0.23
  -1  -8 -17    0.69    0.17
   1   8  17    0.74    0.16
  -2  -8 -17    0.27    0.13
   2   8  17    0.33    0.13
  -3  -8 -17    0.51    0.16
   3   8  17    0.33    0.12
   3   8  17    0.41    0.15
   2  -9 -17    0.10    0.11
  -2   9  17    0.10    0.11
   1  -9 -17    0.29    0.14
  -1   9  17    0.13    0.11
   0  -9 -17    0.26    0.12
   0   9  17    0.53    0.15
  -1  -9 -17    1.01    0.20
   1   9  17    1.33    0.22
  -2  -9 -17   -0.02    0.10
   2   9  17    0.02    0.10
   0 -10 -17    0.03    0.12
   0  10  17    0.21    0.12
   1  10  17    0.15    0.12
   1   3 -18    0.49    0.15
  -1  -3  18    0.43    0.13
   0   3 -18    0.12    0.10
   0  -3  18    0.02    0.09
  -1   3 -18    2.62    0.29
   1  -3  18    2.08    0.24
   2   2 -18    0.33    0.13
   2   2 -18    0.40    0.14
  -2  -2  18    0.11    0.11
   1   2 -18    0.10    0.11
   1   2 -18    0.07    0.10
  -1  -2  18    0.23    0.10
   0   2 -18    0.03    0.09
   0  -2  18    0.06    0.08
  -1   2 -18    0.12    0.10
   1  -2  18   -0.02    0.08
   2  -2  18    1.66    0.22
   2   1 -18    1.65    0.23
   2   1 -18    1.72    0.23
  -2  -1  18    1.78    0.23
   1   1 -18    3.32    0.26
   1   1 -18    2.97    0.25
  -1  -1  18    2.95    0.25
  -1  -1  18    2.93    0.25
   0   1 -18    0.81    0.16
   0   1 -18    1.45    0.21
   0  -1  18    1.28    0.18
   0  -1  18    1.02    0.18
  -1   1 -18    0.91    0.16
   1  -1  18    0.96    0.17
   2  -1  18    0.47    0.13
   3  -1  18   -0.07    0.09
   3   0 -18    0.17    0.11
   3   0 -18    0.02    0.11
   2   0 -18    1.55    0.22
   2   0 -18    1.43    0.21
  -2   0  18    1.46    0.21
   1   0 -18    0.43    0.13
   1   0 -18    0.23    0.11
  -1   0  18    0.14    0.09
  -1   0  18    0.08    0.08
   0   0 -18    0.03    0.08
   0   0 -18   -0.03    0.09
   0   0  18    0.17    0.09
   0   0  18    0.25    0.09
  -1   0 -18    0.87    0.16
   1   0  18    0.75    0.15
   1   0  18    1.09    0.17
   2   0  18    1.77    0.22
   3   0  18    1.63    0.24
   3   0  18    2.09    0.25
   3  -1 -18    0.25    0.13
   3  -1 -18    0.28    0.12
   2  -1 -18    0.03    0.09
   2  -1 -18    0.12    0.10
  -2   1  18    0.10    0.08
   1  -1 -18    2.33    0.25
   1  -1 -18    2.41    0.25
  -1   1  18    1.77    0.21
   0  -1 -18    0.35    0.11
   0  -1 -18    0.65    0.15
   0   1  18    0.43    0.11
   0   1  18    0.44    0.11
  -1  -1 -18    0.47    0.13
   1   1  18    0.44    0.12
   1   1  18    0.39    0.11
   2   1  18    2.29    0.24
   2   1  18    2.05    0.24
   2   1  18    2.10    0.24
   3   1  18    0.63    0.16
   3   1  18    0.27    0.12
   3  -2 -18   -0.08    0.08
   3  -2 -18    0.00    0.09
  -3   2  18   -0.04    0.10
   2  -2 -18    1.38    0.21
   2  -2 -18    0.92    0.18
  -2   2  18    1.29    0.18
   1  -2 -18    2.31    0.24
   1  -2 -18    2.04    0.24
  -1   2  18    2.18    0.23
   0  -2 -18    1.63    0.20
   0  -2 -18    1.54    0.21
   0   2  18    1.97    0.20
   0   2  18    1.57    0.19
  -1  -2 -18    0.06    0.09
   1   2  18    0.15    0.08
   1   2  18    0.06    0.07
  -2  -2 -18    0.53    0.14
   2   2  18    0.63    0.14
   2   2  18    0.65    0.14
   2   2  18    0.43    0.12
   3   2  18    2.08    0.26
   3   2  18    2.72    0.27
   3  -3 -18   -0.01    0.09
   3  -3 -18    0.07    0.10
  -3   3  18    0.15    0.11
   2  -3 -18    0.54    0.14
   2  -3 -18    0.23    0.12
  -2   3  18    0.32    0.12
   1  -3 -18    1.57    0.22
   1  -3 -18    1.97    0.22
  -1   3  18    2.08    0.22
   0  -3 -18    0.46    0.13
   0   3  18    0.85    0.15
  -1  -3 -18    0.57    0.15
   1   3  18    0.78    0.14
   1   3  18    0.85    0.14
  -2  -3 -18    0.06    0.10
   2   3  18   -0.06    0.07
   2   3  18   -0.09    0.08
   2   3  18    0.00    0.07
  -3  -3 -18    1.23    0.20
   3   3  18    1.16    0.19
   3   3  18    0.73    0.17
   4   3  18    0.06    0.10
   4   3  18    0.19    0.13
   3  -4 -18    0.10    0.11
  -3   4  18    0.06    0.11
   2  -4 -18    2.45    0.26
   2  -4 -18    2.14    0.25
   1  -4 -18    0.10    0.10
   1  -4 -18    0.09    0.09
   0  -4 -18    0.41    0.13
   0   4  18    0.55    0.12
  -1  -4 -18    0.93    0.18
   1   4  18    0.97    0.17
   1   4  18    0.71    0.14
  -2  -4 -18    0.68    0.16
   2   4  18    0.83    0.16
   2   4  18    0.54    0.13
   2   4  18    0.66    0.14
  -3  -4 -18    1.62    0.23
   3   4  18    1.75    0.22
   3   4  18    1.49    0.20
   3   4  18    1.76    0.25
   3  -5 -18    0.16    0.11
  -3   5  18    0.03    0.11
   2  -5 -18    1.50    0.22
   1  -5 -18    0.18    0.12
   0  -5 -18    1.77    0.23
   0   5  18    1.82    0.20
  -1  -5 -18    1.54    0.23
   1   5  18    1.59    0.19
   1   5  18    1.72    0.22
  -2  -5 -18    0.23    0.12
   2   5  18    0.22    0.10
   2   5  18    0.20    0.10
   2   5  18    0.23    0.11
  -3  -5 -18    0.25    0.13
   3   5  18    0.37    0.13
   3   5  18    0.11    0.10
   3   5  18    0.38    0.12
   3  -6 -18    0.01    0.10
  -3   6  18    0.00    0.11
  -3   6  18    0.11    0.12
   2  -6 -18    0.13    0.11
  -2   6  18    0.05    0.10
   1  -6 -18   -0.07    0.09
   0  -6 -18    0.01    0.09
   0   6  18   -0.02    0.08
  -1  -6 -18    4.18    0.31
   1   6  18    3.70    0.28
   1   6  18    3.06    0.24
  -2  -6 -18    0.87    0.18
   2   6  18    0.89    0.16
   2   6  18    0.95    0.18
  -3  -6 -18    0.27    0.13
   3   6  18    0.43    0.15
   3   6  18    0.19    0.10
   3   6  18    0.30    0.12
   2  -7 -18    1.04    0.20
   1  -7 -18    0.01    0.10
   0  -7 -18    2.12    0.27
   0   7  18    2.36    0.27
  -1  -7 -18    0.74    0.17
   1   7  18    0.96    0.18
  -2  -7 -18    0.24    0.13
   2   7  18    0.01    0.08
   2   7  18    0.05    0.11
  -3  -7 -18    0.89    0.20
   3   7  18    1.30    0.21
   3   7  18    0.98    0.17
   3   7  18    1.01    0.18
   2  -8 -18    0.26    0.14
   1  -8 -18    0.02    0.10
  -1   8  18    0.07    0.10
   0  -8 -18    1.58    0.24
   0   8  18    1.90    0.24
  -1  -8 -18    0.62    0.16
   1   8  18    0.41    0.14
  -2  -8 -18    0.13    0.13
   2   8  18    0.19    0.11
   0  -9 -18   -0.11    0.09
   0   9  18   -0.17    0.08
  -1  -9 -18    2.73    0.31
   1   9  18    2.69    0.30
   1   1 -19    3.68    0.29
   1   1 -19    3.64    0.28
  -1  -1  19    3.16    0.27
   0   1 -19    0.11    0.10
   0  -1  19   -0.02    0.07
   1  -1  19    0.09    0.09
   2   0 -19    0.72    0.17
   2   0 -19    0.88    0.18
   1   0 -19    0.16    0.10
   1   0 -19    0.45    0.14
  -1   0  19    0.23    0.10
   0   0 -19    1.64    0.22
   0   0 -19    1.44    0.21
   1   0  19    0.47    0.13
   2   0  19    0.38    0.13
   2  -1 -19    1.42    0.21
   2  -1 -19    1.02    0.19
  -2   1  19    0.98    0.17
   1  -1 -19    1.02    0.18
   1  -1 -19    0.84    0.16
  -1   1  19    0.84    0.15
   0  -1 -19    0.39    0.12
   0  -1 -19    0.49    0.14
   0   1  19    0.39    0.12
   0   1  19    0.51    0.12
  -1  -1 -19   -0.05    0.08
   1   1  19   -0.04    0.07
   2   1  19    2.64    0.27
   2  -2 -19    0.01    0.10
   2  -2 -19    0.16    0.11
   1  -2 -19    0.73    0.17
   1  -2 -19    0.46    0.13
  -1   2  19    0.62    0.13
   0  -2 -19    0.08    0.10
   0   2  19    0.07    0.08
  -1  -2 -19    0.31    0.13
   1   2  19    0.22    0.09
   1   2  19    0.34    0.11
  -2  -2 -19    3.15    0.27
   2   2  19    3.08    0.25
   3   2  19    2.06    0.26
   3   2  19    2.74    0.28
   2  -3 -19   -0.02    0.09
   2  -3 -19   -0.06    0.09
   1  -3 -19    0.03    0.10
   1  -3 -19    0.17    0.10
  -1   3  19    0.13    0.08
   0  -3 -19    0.01    0.10
   0   3  19    0.05    0.07
  -1  -3 -19    0.09    0.10
   1   3  19    0.13    0.08
   1   3  19    0.01    0.07
  -2  -3 -19   -0.03    0.09
   2   3  19   -0.05    0.08
   2   3  19    0.10    0.10
   2   3  19    0.03    0.08
   3   3  19    0.00    0.09
   3   3  19    0.04    0.10
   2  -4 -19    0.29    0.12
   2  -4 -19    0.26    0.12
   1  -4 -19    1.86    0.24
   0  -4 -19    1.35    0.21
   0   4  19    1.35    0.18
  -1  -4 -19    1.79    0.24
   1   4  19    1.63    0.20
  -2  -4 -19    1.98    0.25
   2   4  19    2.13    0.25
   2   4  19    2.31    0.27
   2   4  19    2.58    0.25
  -3  -4 -19    1.48    0.23
   3   4  19    1.55    0.23
   3   4  19    1.87    0.24
   2  -5 -19    0.18    0.12
   1  -5 -19    1.20    0.21
   0  -5 -19    0.26    0.13
  -1  -5 -19    0.02    0.10
   1   5  19    0.01    0.09
   1   5  19   -0.02    0.07
  -2  -5 -19    0.85    0.19
   2   5  19    0.71    0.15
   2   5  19    0.63    0.16
  -3  -5 -19    0.37    0.15
   3   5  19    0.26    0.12
   3   5  19    0.24    0.13
   2  -6 -19    0.13    0.12
   1  -6 -19    0.11    0.11
   0  -6 -19    0.61    0.16
  -1  -6 -19    0.04    0.11
   1   6  19    0.16    0.11
  -2  -6 -19    0.09    0.12
   2   6  19    0.22    0.11
   2   6  19    0.03    0.07
   1  -7 -19    0.04    0.11
   0  -7 -19    0.17    0.12
   0   7  19    0.12    0.10
  -1  -7 -19    1.44    0.23
   1   7  19    1.18    0.20
  -2  -7 -19    1.01    0.21
   2   7  19    1.18    0.20
   2   7  19    0.89    0.16
   0  -8 -19    0.27    0.13
   0   8  19    0.17    0.12
  -1  -8 -19    0.58    0.18
   1   8  19    0.97    0.19
   1  -1 -20    0.32    0.13
   0  -1 -20    0.87    0.18
   1   1  20    0.13    0.10
   1  -2 -20    1.15    0.19
   1  -2 -20    1.34    0.21
  -1   2  20    1.31    0.19
   0  -2 -20   -0.06    0.09
   0   2  20    0.01    0.07
  -1  -2 -20    0.57    0.15
   1   2  20    0.41    0.12
   1  -3 -20    1.37    0.22
   0  -3 -20    0.50    0.14
   0   3  20    0.40    0.12
  -1  -3 -20    0.45    0.14
   1  -4 -20    0.00    0.11
   0  -4 -20    0.14    0.12
   0   4  20    0.26    0.10
  -1  -4 -20    0.18    0.12
   1   4  20    0.22    0.10
   1  -5 -20    1.54    0.23
   0  -5 -20    0.92    0.19
  -1  -5 -20   -0.10    0.09
   1   5  20    0.00    0.07
   0  -6 -20    1.53    0.24
  -1  -6 -20    0.47    0.16
   1   6  20    0.54    0.15
   0   0   0    0.00    0.00
;
_shelx_hkl_checksum              64800
_shelx_res_file
;
TITL SHAMANTH_2 IN P-1
    G:\000_Acta_E_RC_DR\_2016_ActaCryst_IUCrDATA\su4119_Ishelx.res
    created by SHELXL-2016/6 at 17:07:00 on 28-Dec-2016
CELL  0.71073  7.12840 12.28180 18.37090 75.62500 88.53800 86.55300
ZERR 4  0.00020  0.00030  0.00050  0.00200  0.00200  0.00200
LATT 1
SFAC C H F N O S
UNIT 60 64 4 4 8 8
L.S. 9
OMIT 0 0 1
OMIT 0 1 1
FMAP 2
PLAN 20
ACTA
BOND $H
CONF
HTAB
HTAB C8A S1A
HTAB C10A S2B
HTAB C10A S2A
EQIV $1 X, Y+1, Z
HTAB C12A O2B_$1
HTAB C13A S1A
EQIV $2 -X+1, -Y+1, -Z
HTAB C2B S2B_$2
EQIV $3 X-1, Y, Z
HTAB C10B S2A_$3
HTAB C10B S2B
HTAB C13B S2B
EQIV $4 -X+1, -Y+1, -Z+1
HTAB C14B O2A_$4
HTAB C14B S1B
WGHT    0.041300    0.577100
FVAR       0.13075
S1A   6    0.519327    0.660403    0.251737    11.00000    0.05646    0.05559 =
         0.04535   -0.00415   -0.00865   -0.00690
S2A   6    0.935450    0.686450    0.222417    11.00000    0.05402    0.06325 =
         0.05897   -0.00972   -0.00348    0.01013
F1A   3    0.774854    0.181268    0.522657    11.00000    0.10309    0.06254 =
         0.09646    0.02057    0.00637    0.00067
O1A   5    0.771203    0.620909    0.531525    11.00000    0.05634    0.09283 =
         0.04759   -0.02552   -0.00587   -0.00561
O2A   5    0.730085    0.802675    0.480100    11.00000    0.11966    0.08264 =
         0.08810   -0.05062   -0.01829   -0.00252
N1A   4    0.662925    0.837080    0.163291    11.00000    0.05534    0.04555 =
         0.04723   -0.00154   -0.00586    0.00082
C1A   1    0.775553    0.291738    0.523802    11.00000    0.05233    0.06602 =
         0.06397    0.00940    0.00586   -0.00041
C2A   1    0.828033    0.318242    0.587771    11.00000    0.05164    0.09105 =
         0.05793    0.01953   -0.00001    0.00189
AFIX  43
H2A   2    0.864836    0.261871    0.629689    11.00000   -1.20000
AFIX   0
C3A   1    0.825803    0.429085    0.589449    11.00000    0.03973    0.11548 =
         0.04028   -0.00109   -0.00213   -0.00598
AFIX  43
H3A   2    0.860317    0.449019    0.632678    11.00000   -1.20000
AFIX   0
C4A   1    0.771363    0.511484    0.525805    11.00000    0.03364    0.07642 =
         0.04641   -0.01116    0.00210   -0.00444
C5A   1    0.721577    0.484858    0.460050    11.00000    0.03172    0.06228 =
         0.03955   -0.00566    0.00370   -0.00267
C6A   1    0.723614    0.370863    0.459851    11.00000    0.04644    0.05735 =
         0.04895   -0.00159    0.00600   -0.00222
AFIX  43
H6A   2    0.690296    0.349303    0.417061    11.00000   -1.20000
AFIX   0
C7A   1    0.724074    0.709191    0.471567    11.00000    0.05543    0.07351 =
         0.06127   -0.03074   -0.00385   -0.00318
C8A   1    0.673266    0.681803    0.403125    11.00000    0.05283    0.05800 =
         0.04522   -0.01463   -0.00443    0.00107
AFIX  43
H8A   2    0.639944    0.740508    0.362011    11.00000   -1.20000
AFIX   0
C9A   1    0.671520    0.576835    0.395652    11.00000    0.03688    0.05007 =
         0.04245   -0.01180    0.00103   -0.00204
C10A  1    0.626253    0.548840    0.323198    11.00000    0.06478    0.04265 =
         0.04111   -0.00616   -0.00270   -0.00411
AFIX  23
H10A  2    0.543009    0.487043    0.334541    11.00000   -1.20000
H10B  2    0.741791    0.522131    0.302691    11.00000   -1.20000
AFIX   0
C11A  1    0.713762    0.737675    0.208240    11.00000    0.05603    0.04604 =
         0.03490   -0.01419   -0.00442   -0.00114
C12A  1    0.467244    0.884683    0.153711    11.00000    0.06743    0.05504 =
         0.05998   -0.00533   -0.00739    0.01043
AFIX  23
H13C  2    0.466889    0.965963    0.144464    11.00000   -1.20000
H13D  2    0.396879    0.856713    0.199792    11.00000   -1.20000
AFIX   0
C13A  1    0.372603    0.854867    0.090105    11.00000    0.06908    0.08422 =
         0.07858   -0.01687   -0.01799    0.00738
AFIX 137
H14A  2    0.443735    0.880548    0.044619    11.00000   -1.50000
H14B  2    0.248238    0.890242    0.084249    11.00000   -1.50000
H14C  2    0.365089    0.774673    0.100622    11.00000   -1.50000
AFIX   0
C14A  1    0.804235    0.908420    0.118948    11.00000    0.07321    0.06171 =
         0.05906    0.00693   -0.00173   -0.00835
AFIX  23
H15A  2    0.747783    0.953265    0.072877    11.00000   -1.20000
H15B  2    0.906248    0.861024    0.105437    11.00000   -1.20000
AFIX   0
C15A  1    0.881752    0.985407    0.161706    11.00000    0.11292    0.06997 =
         0.11292   -0.01373   -0.00022   -0.03133
AFIX 137
H16A  2    0.781020    1.032186    0.175377    11.00000   -1.50000
H16B  2    0.971273    1.031883    0.130680    11.00000   -1.50000
H16C  2    0.942355    0.941205    0.206303    11.00000   -1.50000
AFIX   0
S1B   6    0.089219    0.337837    0.270099    11.00000    0.07361    0.07453 =
         0.05067   -0.00697    0.00479    0.01979
S2B   6    0.508693    0.287483    0.282505    11.00000    0.06613    0.06238 =
         0.06034   -0.00826   -0.00066   -0.01926
F1B   3    0.206753    0.764979   -0.043524    11.00000    0.13688    0.05125 =
         0.08960    0.00841   -0.02524   -0.01015
O1B   5    0.288742    0.312835   -0.010451    11.00000    0.07640    0.05850 =
         0.05700   -0.02218    0.00070    0.00608
O2B   5    0.287970    0.137358    0.056437    11.00000    0.12410    0.05297 =
         0.08684   -0.03103    0.00408    0.00438
N1B   4    0.250656    0.157563    0.357563    11.00000    0.05500    0.05239 =
         0.04958   -0.00487    0.00222   -0.00565
C1B   1    0.230321    0.651825   -0.033849    11.00000    0.06375    0.04880 =
         0.06738    0.00453   -0.01734   -0.00733
C2B   1    0.272005    0.610813   -0.095503    11.00000    0.06145    0.07985 =
         0.05243    0.00637   -0.00294   -0.01000
AFIX  43
H2B   2    0.287050    0.659402   -0.142680    11.00000   -1.20000
AFIX   0
C3B   1    0.291059    0.496465   -0.086101    11.00000    0.05969    0.08029 =
         0.04920   -0.01165    0.00323    0.00241
AFIX  43
H3B   2    0.318233    0.466425   -0.127166    11.00000   -1.20000
AFIX   0
C4B   1    0.269773    0.426222   -0.015534    11.00000    0.04091    0.05899 =
         0.04855   -0.01191   -0.00268    0.00019
C5B   1    0.230303    0.467861    0.047380    11.00000    0.03938    0.04435 =
         0.04863   -0.00930   -0.00847   -0.00183
C6B   1    0.209460    0.584725    0.036569    11.00000    0.05922    0.05081 =
         0.05485   -0.00930   -0.01271   -0.00223
AFIX  43
H6B   2    0.181708    0.616144    0.076986    11.00000   -1.20000
AFIX   0
C7B   1    0.268639    0.235131    0.056713    11.00000    0.06598    0.05230 =
         0.06099   -0.01795   -0.00269    0.00105
C8B   1    0.228280    0.278408    0.121846    11.00000    0.06393    0.04594 =
         0.04885   -0.01015   -0.00238   -0.00047
AFIX  43
H8B   2    0.213405    0.227154    0.168002    11.00000   -1.20000
AFIX   0
C9B   1    0.211087    0.387978    0.119553    11.00000    0.04852    0.04589 =
         0.04541   -0.01106   -0.00606    0.00208
C10B  1    0.179230    0.432553    0.188355    11.00000    0.09287    0.04452 =
         0.04795   -0.01017   -0.00828    0.01160
AFIX  23
H10C  2    0.092746    0.498300    0.175431    11.00000   -1.20000
H10D  2    0.297740    0.457461    0.201271    11.00000   -1.20000
AFIX   0
C11B  1    0.291336    0.251206    0.308007    11.00000    0.06377    0.04855 =
         0.03695   -0.01420    0.00124   -0.00185
C12B  1    0.399281    0.073119    0.390408    11.00000    0.07103    0.05278 =
         0.06033    0.00082   -0.00610   -0.00257
AFIX  23
H13A  2    0.354027    0.026564    0.437468    11.00000   -1.20000
H13B  2    0.506735    0.111039    0.401320    11.00000   -1.20000
AFIX   0
C13B  1    0.460358   -0.000752    0.339043    11.00000    0.08665    0.05936 =
         0.11085   -0.02414   -0.00206    0.00540
AFIX 137
H14D  2    0.355637   -0.040849    0.329730    11.00000   -1.50000
H14E  2    0.559207   -0.053535    0.362242    11.00000   -1.50000
H14F  2    0.505236    0.044952    0.292356    11.00000   -1.50000
AFIX   0
C14B  1    0.057743    0.133035    0.386271    11.00000    0.07655    0.08451 =
         0.07463   -0.00337    0.00290   -0.01367
AFIX  23
H15C  2    0.062020    0.100211    0.440021    11.00000   -1.20000
H15D  2   -0.018925    0.202902    0.377820    11.00000   -1.20000
AFIX   0
C15B  1   -0.028299    0.056611    0.350185    11.00000    0.08298    0.12039 =
         0.16979   -0.04212   -0.01527   -0.02002
AFIX 137
H16D  2   -0.049498    0.093084    0.298224    11.00000   -1.50000
H16E  2   -0.146040    0.035520    0.374573    11.00000   -1.50000
H16F  2    0.053583   -0.009453    0.353828    11.00000   -1.50000
AFIX   0
HKLF 4
REM  SHAMANTH_2 IN P-1
REM R1 =  0.0363 for    3711 Fo > 4sig(Fo)  and  0.0474 for all    4555 data
REM    383 parameters refined using      0 restraints
END
WGHT      0.0412      0.5771
REM Instructions for potential hydrogen bonds
HTAB C8A S1A
HTAB C10A S2B
HTAB C10A S2A
HTAB C12A O2B_$1
HTAB C13A S1A
HTAB C2B S2B_$2
HTAB C10B S2A_$3
HTAB C10B S2B
HTAB C13B S2B
HTAB C14B O2A_$4
HTAB C14B S1B
REM Highest difference peak  0.298,  deepest hole -0.163,  1-sigma level  0.035
Q1    1  -0.0751  0.1124  0.4192  11.00000  0.05    0.30
Q2    1   0.0930  0.0781  0.3483  11.00000  0.05    0.22
Q3    1   0.6449  0.6861  0.2269  11.00000  0.05    0.22
Q4    1   0.2046  0.2824  0.2805  11.00000  0.05    0.19
Q5    1   0.3632  0.3014  0.2889  11.00000  0.05    0.16
Q6    1   0.3618  0.6609  0.2345  11.00000  0.05    0.16
Q7    1   0.7889  0.5679  0.5230  11.00000  0.05    0.15
Q8    1   0.1894  0.3857  0.2606  11.00000  0.05    0.15
Q9    1   0.7782  0.4402  0.4553  11.00000  0.05    0.15
Q10   1   0.4650  0.8054  0.1384  11.00000  0.05    0.15
Q11   1   0.7840  0.2996  0.2821  11.00000  0.05    0.15
Q12   1   0.9512  0.6140  0.2706  11.00000  0.05    0.15
Q13   1   0.6850  0.2131  0.5461  11.00000  0.05    0.15
Q14   1   0.4869  0.3581  0.2475  11.00000  0.05    0.15
Q15   1   0.2511  0.4358  0.0861  11.00000  0.05    0.14
Q16   1   0.7759  0.6798  0.2471  11.00000  0.05    0.14
Q17   1   0.6838  0.4375  0.4680  11.00000  0.05    0.14
Q18   1   0.8887  0.7601  0.2318  11.00000  0.05    0.14
Q19   1   0.7175  0.5316  0.4229  11.00000  0.05    0.14
Q20   1   0.5683  0.6004  0.2956  11.00000  0.05    0.14
;
_shelx_res_checksum              40901
loop_
_space_group_symop_operation_xyz
'x, y, z'
'-x, -y, -z'
loop_
_atom_site_type_symbol
_atom_site_label
_atom_site_fract_x
_atom_site_fract_y
_atom_site_fract_z
_atom_site_U_iso_or_equiv
_atom_site_adp_type
_atom_site_calc_flag
_atom_site_occupancy
S S1A 0.51933(9) 0.66040(5) 0.25174(3) 0.05364(19) Uani d 1
S S2A 0.93545(9) 0.68645(6) 0.22242(4) 0.0602(2) Uani d 1
F F1A 0.7749(3) 0.18127(14) 0.52266(10) 0.0948(6) Uani d 1
O O1A 0.7712(2) 0.62091(17) 0.53152(9) 0.0640(5) Uani d 1
O O2A 0.7301(3) 0.80267(19) 0.48010(12) 0.0914(7) Uani d 1
N N1A 0.6629(3) 0.83708(15) 0.16329(10) 0.0512(5) Uani d 1
C C1A 0.7756(4) 0.2917(2) 0.52380(16) 0.0655(7) Uani d 1
C C2A 0.8280(4) 0.3182(3) 0.58777(16) 0.0738(9) Uani d 1
H H2A 0.864836 0.261871 0.629689 0.089 Uiso calc 1
C C3A 0.8258(3) 0.4291(3) 0.58945(14) 0.0683(8) Uani d 1
H H3A 0.860317 0.449019 0.632678 0.082 Uiso calc 1
C C4A 0.7714(3) 0.5115(2) 0.52580(13) 0.0529(6) Uani d 1
C C5A 0.7216(3) 0.4849(2) 0.46005(12) 0.0458(6) Uani d 1
C C6A 0.7236(3) 0.3709(2) 0.45985(13) 0.0531(6) Uani d 1
H H6A 0.690296 0.349303 0.417061 0.064 Uiso calc 1
C C7A 0.7241(4) 0.7092(2) 0.47157(15) 0.0609(7) Uani d 1
C C8A 0.6733(3) 0.6818(2) 0.40312(13) 0.0518(6) Uani d 1
H H8A 0.639944 0.740508 0.362011 0.062 Uiso calc 1
C C9A 0.6715(3) 0.57683(19) 0.39565(12) 0.0431(5) Uani d 1
C C10A 0.6263(3) 0.54884(18) 0.32320(12) 0.0502(6) Uani d 1
H H10A 0.543009 0.487043 0.334541 0.060 Uiso calc 1
H H10B 0.741791 0.522131 0.302691 0.060 Uiso calc 1
C C11A 0.7138(3) 0.73768(18) 0.20824(12) 0.0449(5) Uani d 1
C C12A 0.4672(4) 0.8847(2) 0.15371(14) 0.0628(7) Uani d 1
H H13C 0.466889 0.965963 0.144464 0.075 Uiso calc 1
H H13D 0.396879 0.856713 0.199792 0.075 Uiso calc 1
C C13A 0.3726(4) 0.8549(3) 0.09011(16) 0.0780(8) Uani d 1
H H14A 0.443735 0.880548 0.044619 0.117 Uiso calc 1
H H14B 0.248238 0.890242 0.084249 0.117 Uiso calc 1
H H14C 0.365089 0.774673 0.100622 0.117 Uiso calc 1
C C14A 0.8042(4) 0.9084(2) 0.11895(15) 0.0683(7) Uani d 1
H H15A 0.747783 0.953265 0.072877 0.082 Uiso calc 1
H H15B 0.906248 0.861024 0.105437 0.082 Uiso calc 1
C C15A 0.8818(5) 0.9854(3) 0.1617(2) 0.0991(11) Uani d 1
H H16A 0.781020 1.032186 0.175377 0.149 Uiso calc 1
H H16B 0.971273 1.031883 0.130680 0.149 Uiso calc 1
H H16C 0.942355 0.941205 0.206303 0.149 Uiso calc 1
S S1B 0.08922(10) 0.33784(6) 0.27010(4) 0.0689(2) Uani d 1
S S2B 0.50869(10) 0.28748(6) 0.28251(4) 0.0635(2) Uani d 1
F F1B 0.2068(3) 0.76498(13) -0.04352(10) 0.0965(6) Uani d 1
O O1B 0.2887(2) 0.31283(14) -0.01045(9) 0.0630(5) Uani d 1
O O2B 0.2880(3) 0.13736(16) 0.05644(11) 0.0860(6) Uani d 1
N N1B 0.2507(3) 0.15756(16) 0.35756(11) 0.0536(5) Uani d 1
C C1B 0.2303(4) 0.6518(2) -0.03385(16) 0.0628(7) Uani d 1
C C2B 0.2720(4) 0.6108(3) -0.09550(15) 0.0683(8) Uani d 1
H H2B 0.287050 0.659402 -0.142680 0.082 Uiso calc 1
C C3B 0.2911(4) 0.4965(2) -0.08610(14) 0.0642(7) Uani d 1
H H3B 0.318233 0.466425 -0.127166 0.077 Uiso calc 1
C C4B 0.2698(3) 0.4262(2) -0.01553(13) 0.0498(6) Uani d 1
C C5B 0.2303(3) 0.46786(18) 0.04738(12) 0.0444(5) Uani d 1
C C6B 0.2095(3) 0.5847(2) 0.03657(14) 0.0554(6) Uani d 1
H H6B 0.181708 0.616144 0.076986 0.067 Uiso calc 1
C C7B 0.2686(4) 0.2351(2) 0.05671(15) 0.0592(7) Uani d 1
C C8B 0.2283(3) 0.2784(2) 0.12185(13) 0.0533(6) Uani d 1
H H8B 0.213405 0.227154 0.168002 0.064 Uiso calc 1
C C9B 0.2111(3) 0.38798(19) 0.11955(12) 0.0467(6) Uani d 1
C C10B 0.1792(4) 0.4326(2) 0.18835(13) 0.0625(7) Uani d 1
H H10C 0.092746 0.498300 0.175431 0.075 Uiso calc 1
H H10D 0.297740 0.457461 0.201271 0.075 Uiso calc 1
C C11B 0.2913(3) 0.25121(19) 0.30801(12) 0.0492(6) Uani d 1
C C12B 0.3993(4) 0.0731(2) 0.39041(14) 0.0639(7) Uani d 1
H H13A 0.354027 0.026564 0.437468 0.077 Uiso calc 1
H H13B 0.506735 0.111039 0.401320 0.077 Uiso calc 1
C C13B 0.4604(4) -0.0008(2) 0.33904(19) 0.0854(9) Uani d 1
H H14D 0.355637 -0.040849 0.329730 0.128 Uiso calc 1
H H14E 0.559207 -0.053535 0.362242 0.128 Uiso calc 1
H H14F 0.505236 0.044952 0.292356 0.128 Uiso calc 1
C C14B 0.0577(4) 0.1330(3) 0.38627(17) 0.0811(9) Uani d 1
H H15C 0.062020 0.100211 0.440021 0.097 Uiso calc 1
H H15D -0.018925 0.202902 0.377820 0.097 Uiso calc 1
C C15B -0.0283(5) 0.0566(3) 0.3502(3) 0.1224(14) Uani d 1
H H16D -0.049498 0.093084 0.298224 0.184 Uiso calc 1
H H16E -0.146040 0.035520 0.374573 0.184 Uiso calc 1
H H16F 0.053583 -0.009453 0.353828 0.184 Uiso calc 1
loop_
_atom_site_aniso_label
_atom_site_aniso_U_11
_atom_site_aniso_U_22
_atom_site_aniso_U_33
_atom_site_aniso_U_12
_atom_site_aniso_U_13
_atom_site_aniso_U_23
S1A 0.0565(4) 0.0556(4) 0.0454(4) -0.0069(3) -0.0087(3) -0.0041(3)
S2A 0.0540(4) 0.0632(4) 0.0590(4) 0.0101(3) -0.0035(3) -0.0097(3)
F1A 0.1031(13) 0.0625(11) 0.0965(13) 0.0007(9) 0.0064(10) 0.0206(9)
O1A 0.0563(11) 0.0928(15) 0.0476(10) -0.0056(10) -0.0059(8) -0.0255(10)
O2A 0.1197(18) 0.0826(15) 0.0881(15) -0.0025(13) -0.0183(13) -0.0506(13)
N1A 0.0553(12) 0.0455(12) 0.0472(11) 0.0008(9) -0.0059(9) -0.0015(9)
C1A 0.0523(16) 0.0660(19) 0.0640(18) -0.0004(13) 0.0059(13) 0.0094(14)
C2A 0.0516(16) 0.091(2) 0.0579(18) 0.0019(15) 0.0000(13) 0.0195(16)
C3A 0.0397(14) 0.115(3) 0.0403(14) -0.0060(15) -0.0021(11) -0.0011(15)
C4A 0.0336(12) 0.0764(19) 0.0464(14) -0.0044(12) 0.0021(10) -0.0112(13)
C5A 0.0317(12) 0.0623(16) 0.0395(13) -0.0027(10) 0.0037(9) -0.0057(11)
C6A 0.0464(14) 0.0574(16) 0.0490(14) -0.0022(11) 0.0060(11) -0.0016(12)
C7A 0.0554(16) 0.074(2) 0.0613(17) -0.0032(13) -0.0038(13) -0.0307(15)
C8A 0.0528(14) 0.0580(16) 0.0452(14) 0.0011(12) -0.0044(11) -0.0146(12)
C9A 0.0369(12) 0.0501(14) 0.0425(13) -0.0020(10) 0.0010(9) -0.0118(11)
C10A 0.0648(15) 0.0426(13) 0.0411(13) -0.0041(11) -0.0027(11) -0.0062(10)
C11A 0.0560(14) 0.0460(14) 0.0349(12) -0.0011(11) -0.0044(10) -0.0142(10)
C12A 0.0674(17) 0.0550(16) 0.0600(16) 0.0104(13) -0.0074(13) -0.0053(13)
C13A 0.0691(18) 0.084(2) 0.079(2) 0.0074(16) -0.0180(15) -0.0169(16)
C14A 0.0732(18) 0.0617(17) 0.0591(16) -0.0083(14) -0.0017(14) 0.0069(13)
C15A 0.113(3) 0.070(2) 0.113(3) -0.0313(19) 0.000(2) -0.0137(19)
S1B 0.0736(5) 0.0745(5) 0.0507(4) 0.0198(4) 0.0048(3) -0.0070(3)
S2B 0.0661(4) 0.0624(4) 0.0603(4) -0.0193(3) -0.0007(3) -0.0083(3)
F1B 0.1369(16) 0.0513(10) 0.0896(12) -0.0101(10) -0.0252(11) 0.0084(9)
O1B 0.0764(12) 0.0585(12) 0.0570(11) 0.0061(9) 0.0007(9) -0.0222(9)
O2B 0.1241(18) 0.0530(12) 0.0868(15) 0.0044(11) 0.0041(12) -0.0310(11)
N1B 0.0550(12) 0.0524(12) 0.0496(12) -0.0057(10) 0.0022(9) -0.0049(10)
C1B 0.0637(17) 0.0488(16) 0.0674(19) -0.0073(12) -0.0173(14) 0.0045(14)
C2B 0.0614(17) 0.080(2) 0.0524(17) -0.0100(15) -0.0029(13) 0.0064(15)
C3B 0.0597(16) 0.080(2) 0.0492(15) 0.0024(14) 0.0032(12) -0.0117(14)
C4B 0.0409(13) 0.0590(16) 0.0486(14) 0.0002(11) -0.0027(10) -0.0119(12)
C5B 0.0394(12) 0.0443(14) 0.0486(14) -0.0018(10) -0.0085(10) -0.0093(11)
C6B 0.0592(15) 0.0508(15) 0.0548(15) -0.0022(12) -0.0127(12) -0.0093(12)
C7B 0.0660(17) 0.0523(17) 0.0610(17) 0.0010(13) -0.0027(13) -0.0179(14)
C8B 0.0639(16) 0.0459(15) 0.0489(14) -0.0005(12) -0.0024(12) -0.0102(11)
C9B 0.0485(13) 0.0459(14) 0.0454(13) 0.0021(11) -0.0061(10) -0.0111(11)
C10B 0.093(2) 0.0445(14) 0.0479(14) 0.0116(13) -0.0083(13) -0.0102(12)
C11B 0.0638(15) 0.0485(14) 0.0370(12) -0.0019(11) 0.0012(11) -0.0142(11)
C12B 0.0710(17) 0.0528(16) 0.0603(16) -0.0026(13) -0.0061(13) 0.0008(13)
C13B 0.087(2) 0.0594(18) 0.111(3) 0.0054(16) -0.0021(19) -0.0241(18)
C14B 0.077(2) 0.085(2) 0.075(2) -0.0137(17) 0.0029(16) -0.0034(17)
C15B 0.083(2) 0.120(3) 0.170(4) -0.020(2) -0.015(3) -0.042(3)
loop_
_atom_type_symbol
_atom_type_description
_atom_type_scat_dispersion_real
_atom_type_scat_dispersion_imag
_atom_type_scat_source
C C 0.0033 0.0016 'International Tables Vol C Tables 4.2.6.8 and 6.1.1.4'
H H 0.0000 0.0000 'International Tables Vol C Tables 4.2.6.8 and 6.1.1.4'
F F 0.0171 0.0103 'International Tables Vol C Tables 4.2.6.8 and 6.1.1.4'
N N 0.0061 0.0033 'International Tables Vol C Tables 4.2.6.8 and 6.1.1.4'
O O 0.0106 0.0060 'International Tables Vol C Tables 4.2.6.8 and 6.1.1.4'
S S 0.1246 0.1234 'International Tables Vol C Tables 4.2.6.8 and 6.1.1.4'
loop_
_geom_angle_atom_site_label_1
_geom_angle_atom_site_label_2
_geom_angle_atom_site_label_3
_geom_angle
C11A S1A C10A 103.59(11)
C7A O1A C4A 121.12(19)
C11A N1A C14A 120.6(2)
C11A N1A C12A 124.3(2)
C14A N1A C12A 115.09(19)
C2A C1A F1A 118.9(2)
C2A C1A C6A 123.3(3)
F1A C1A C6A 117.8(3)
C1A C2A C3A 119.0(3)
C1A C2A H2A 120.5
C3A C2A H2A 120.5
C2A C3A C4A 119.2(3)
C2A C3A H3A 120.4
C4A C3A H3A 120.4
O1A C4A C5A 121.9(2)
O1A C4A C3A 116.2(2)
C5A C4A C3A 121.9(3)
C4A C5A C6A 117.8(2)
C4A C5A C9A 118.1(2)
C6A C5A C9A 124.1(2)
C1A C6A C5A 118.8(3)
C1A C6A H6A 120.6
C5A C6A H6A 120.6
O2A C7A O1A 117.6(2)
O2A C7A C8A 125.3(3)
O1A C7A C8A 117.1(2)
C9A C8A C7A 123.4(2)
C9A C8A H8A 118.3
C7A C8A H8A 118.3
C8A C9A C5A 118.4(2)
C8A C9A C10A 123.2(2)
C5A C9A C10A 118.3(2)
C9A C10A S1A 116.64(16)
C9A C10A H10A 108.1
S1A C10A H10A 108.1
C9A C10A H10B 108.1
S1A C10A H10B 108.1
H10A C10A H10B 107.3
N1A C11A S2A 124.47(18)
N1A C11A S1A 113.32(17)
S2A C11A S1A 122.20(13)
N1A C12A C13A 112.1(2)
N1A C12A H13C 109.2
C13A C12A H13C 109.2
N1A C12A H13D 109.2
C13A C12A H13D 109.2
H13C C12A H13D 107.9
C12A C13A H14A 109.5
C12A C13A H14B 109.5
H14A C13A H14B 109.5
C12A C13A H14C 109.5
H14A C13A H14C 109.5
H14B C13A H14C 109.5
N1A C14A C15A 111.8(2)
N1A C14A H15A 109.3
C15A C14A H15A 109.3
N1A C14A H15B 109.3
C15A C14A H15B 109.3
H15A C14A H15B 107.9
C14A C15A H16A 109.5
C14A C15A H16B 109.5
H16A C15A H16B 109.5
C14A C15A H16C 109.5
H16A C15A H16C 109.5
H16B C15A H16C 109.5
C11B S1B C10B 103.50(12)
C7B O1B C4B 121.61(19)
C11B N1B C12B 120.9(2)
C11B N1B C14B 123.2(2)
C12B N1B C14B 115.9(2)
F1B C1B C6B 118.3(3)
F1B C1B C2B 118.4(2)
C6B C1B C2B 123.2(3)
C1B C2B C3B 118.5(2)
C1B C2B H2B 120.8
C3B C2B H2B 120.8
C2B C3B C4B 119.7(3)
C2B C3B H3B 120.2
C4B C3B H3B 120.2
O1B C4B C3B 116.5(2)
O1B C4B C5B 121.6(2)
C3B C4B C5B 121.9(2)
C4B C5B C6B 117.6(2)
C4B C5B C9B 118.3(2)
C6B C5B C9B 124.1(2)
C1B C6B C5B 119.1(2)
C1B C6B H6B 120.4
C5B C6B H6B 120.4
O2B C7B O1B 117.5(2)
O2B C7B C8B 125.8(2)
O1B C7B C8B 116.7(2)
C9B C8B C7B 123.6(2)
C9B C8B H8B 118.2
C7B C8B H8B 118.2
C8B C9B C5B 118.2(2)
C8B C9B C10B 123.3(2)
C5B C9B C10B 118.5(2)
C9B C10B S1B 116.79(18)
C9B C10B H10C 108.1
S1B C10B H10C 108.1
C9B C10B H10D 108.1
S1B C10B H10D 108.1
H10C C10B H10D 107.3
N1B C11B S2B 124.09(19)
N1B C11B S1B 113.70(18)
S2B C11B S1B 122.22(14)
N1B C12B C13B 112.3(2)
N1B C12B H13A 109.1
C13B C12B H13A 109.1
N1B C12B H13B 109.1
C13B C12B H13B 109.1
H13A C12B H13B 107.9
C12B C13B H14D 109.5
C12B C13B H14E 109.5
H14D C13B H14E 109.5
C12B C13B H14F 109.5
H14D C13B H14F 109.5
H14E C13B H14F 109.5
C15B C14B N1B 112.1(3)
C15B C14B H15C 109.2
N1B C14B H15C 109.2
C15B C14B H15D 109.2
N1B C14B H15D 109.2
H15C C14B H15D 107.9
C14B C15B H16D 109.5
C14B C15B H16E 109.5
H16D C15B H16E 109.5
C14B C15B H16F 109.5
H16D C15B H16F 109.5
H16E C15B H16F 109.5
loop_
_geom_bond_atom_site_label_1
_geom_bond_atom_site_label_2
_geom_bond_distance
S1A C11A 1.785(2)
S1A C10A 1.793(2)
S2A C11A 1.668(2)
F1A C1A 1.362(3)
O1A C7A 1.373(3)
O1A C4A 1.374(3)
O2A C7A 1.200(3)
N1A C11A 1.329(3)
N1A C14A 1.468(3)
N1A C12A 1.477(3)
C1A C2A 1.362(4)
C1A C6A 1.369(3)
C2A C3A 1.368(4)
C2A H2A 0.9300
C3A C4A 1.389(3)
C3A H3A 0.9300
C4A C5A 1.387(3)
C5A C6A 1.400(3)
C5A C9A 1.453(3)
C6A H6A 0.9300
C7A C8A 1.440(3)
C8A C9A 1.331(3)
C8A H8A 0.9300
C9A C10A 1.502(3)
C10A H10A 0.9700
C10A H10B 0.9700
C12A C13A 1.496(4)
C12A H13C 0.9700
C12A H13D 0.9700
C13A H14A 0.9600
C13A H14B 0.9600
C13A H14C 0.9600
C14A C15A 1.507(4)
C14A H15A 0.9700
C14A H15B 0.9700
C15A H16A 0.9600
C15A H16B 0.9600
C15A H16C 0.9600
S1B C11B 1.787(2)
S1B C10B 1.787(3)
S2B C11B 1.662(3)
F1B C1B 1.357(3)
O1B C7B 1.370(3)
O1B C4B 1.371(3)
O2B C7B 1.202(3)
N1B C11B 1.320(3)
N1B C12B 1.467(3)
N1B C14B 1.481(3)
C1B C6B 1.360(3)
C1B C2B 1.369(4)
C2B C3B 1.371(4)
C2B H2B 0.9300
C3B C4B 1.378(3)
C3B H3B 0.9300
C4B C5B 1.391(3)
C5B C6B 1.399(3)
C5B C9B 1.449(3)
C6B H6B 0.9300
C7B C8B 1.441(3)
C8B C9B 1.334(3)
C8B H8B 0.9300
C9B C10B 1.504(3)
C10B H10C 0.9700
C10B H10D 0.9700
C12B C13B 1.503(4)
C12B H13A 0.9700
C12B H13B 0.9700
C13B H14D 0.9600
C13B H14E 0.9600
C13B H14F 0.9600
C14B C15B 1.448(4)
C14B H15C 0.9700
C14B H15D 0.9700
C15B H16D 0.9600
C15B H16E 0.9600
C15B H16F 0.9600
loop_
_geom_hbond_atom_site_label_D
_geom_hbond_atom_site_label_H
_geom_hbond_atom_site_label_A
_geom_hbond_site_symmetry_A
_geom_hbond_distance_DH
_geom_hbond_distance_HA
_geom_hbond_distance_DA
_geom_hbond_angle_DHA
C10A H10A S2B . 0.97 2.87 3.621(2) 135
C12A H13C O2B 1_565 0.97 2.60 3.368(3) 136
C2B H2B S2B 2_665 0.93 2.87 3.693(3) 148
C10B H10C S2A 1_455 0.97 2.82 3.660(2) 145
loop_
_geom_torsion_atom_site_label_1
_geom_torsion_atom_site_label_2
_geom_torsion_atom_site_label_3
_geom_torsion_atom_site_label_4
_geom_torsion
F1A C1A C2A C3A -178.9(2)
C6A C1A C2A C3A 1.3(4)
C1A C2A C3A C4A -0.4(4)
C7A O1A C4A C5A -1.0(3)
C7A O1A C4A C3A 178.5(2)
C2A C3A C4A O1A 179.6(2)
C2A C3A C4A C5A -0.9(4)
O1A C4A C5A C6A -179.19(19)
C3A C4A C5A C6A 1.4(3)
O1A C4A C5A C9A 1.1(3)
C3A C4A C5A C9A -178.3(2)
C2A C1A C6A C5A -0.9(4)
F1A C1A C6A C5A 179.4(2)
C4A C5A C6A C1A -0.5(3)
C9A C5A C6A C1A 179.2(2)
C4A O1A C7A O2A -178.7(2)
C4A O1A C7A C8A 0.6(3)
O2A C7A C8A C9A 178.8(3)
O1A C7A C8A C9A -0.5(4)
C7A C8A C9A C5A 0.7(3)
C7A C8A C9A C10A -177.4(2)
C4A C5A C9A C8A -0.9(3)
C6A C5A C9A C8A 179.4(2)
C4A C5A C9A C10A 177.2(2)
C6A C5A C9A C10A -2.5(3)
C8A C9A C10A S1A -14.5(3)
C5A C9A C10A S1A 167.51(16)
C11A S1A C10A C9A 81.97(19)
C14A N1A C11A S2A 2.9(3)
C12A N1A C11A S2A -176.84(18)
C14A N1A C11A S1A -175.79(17)
C12A N1A C11A S1A 4.4(3)
C10A S1A C11A N1A -167.43(16)
C10A S1A C11A S2A 13.81(17)
C11A N1A C12A C13A -91.7(3)
C14A N1A C12A C13A 88.5(3)
C11A N1A C14A C15A -89.1(3)
C12A N1A C14A C15A 90.7(3)
F1B C1B C2B C3B -178.3(2)
C6B C1B C2B C3B 1.0(4)
C1B C2B C3B C4B -0.6(4)
C7B O1B C4B C3B -179.3(2)
C7B O1B C4B C5B 0.4(3)
C2B C3B C4B O1B 179.3(2)
C2B C3B C4B C5B -0.4(4)
O1B C4B C5B C6B -178.7(2)
C3B C4B C5B C6B 1.1(3)
O1B C4B C5B C9B 0.6(3)
C3B C4B C5B C9B -179.7(2)
F1B C1B C6B C5B 179.0(2)
C2B C1B C6B C5B -0.3(4)
C4B C5B C6B C1B -0.7(3)
C9B C5B C6B C1B -179.9(2)
C4B O1B C7B O2B -179.8(2)
C4B O1B C7B C8B -0.5(3)
O2B C7B C8B C9B 178.8(3)
O1B C7B C8B C9B -0.3(4)
C7B C8B C9B C5B 1.3(4)
C7B C8B C9B C10B -176.6(2)
C4B C5B C9B C8B -1.4(3)
C6B C5B C9B C8B 177.8(2)
C4B C5B C9B C10B 176.6(2)
C6B C5B C9B C10B -4.2(3)
C8B C9B C10B S1B -19.8(3)
C5B C9B C10B S1B 162.27(17)
C11B S1B C10B C9B 79.0(2)
C12B N1B C11B S2B -4.5(3)
C14B N1B C11B S2B 172.5(2)
C12B N1B C11B S1B 175.80(17)
C14B N1B C11B S1B -7.3(3)
C10B S1B C11B N1B -163.79(17)
C10B S1B C11B S2B 16.45(18)
C11B N1B C12B C13B -80.5(3)
C14B N1B C12B C13B 102.4(3)
C11B N1B C14B C15B 101.2(3)
C12B N1B C14B C15B -81.8(3)

_cod_database_fobs_code 1545017
