#------------------------------------------------------------------------------
#$Date: 2017-03-22 09:22:34 +0200 (Wed, 22 Mar 2017) $
#$Revision: 194417 $
#$URL: file:///home/coder/svn-repositories/cod/cif/1/54/56/1545623.cif $
#------------------------------------------------------------------------------
#
# This file is available in the Crystallography Open Database (COD),
# http://www.crystallography.net/. The original data for this entry
# were provided by IUCr Journals, http://journals.iucr.org/.
#
# The file may be used within the scientific community so long as
# proper attribution is given to the journal article from which the
# data were obtained.
#
data_1545623
loop_
_publ_author_name
'Mague, Joel T.'
'Mohamed, Shaaban K.'
'Akkurt, Mehmet'
'Bakhite, Etify A.'
'Albayati, Mustafa R.'
_publ_section_title
;
 7-Acetyl-8-(4-chlorophenyl)-3-ethylsulfanyl-6-hydroxy-1,6-dimethyl-5,6,7,8-tetrahydroisoquinoline-4-carbonitrile
;
_journal_coeditor_code           SJ4096
_journal_issue                   3
_journal_name_full               IUCrData
_journal_page_first              x170390
_journal_paper_doi               10.1107/S241431461700390X
_journal_volume                  2
_journal_year                    2017
_chemical_formula_iupac          'C22 H23 Cl N2 O2 S'
_chemical_formula_moiety         'C22 H23 Cl N2 O2 S'
_chemical_formula_sum            'C22 H23 Cl N2 O2 S'
_chemical_formula_weight         414.93
_chemical_name_systematic
7-Acetyl-8-(4-chlorophenyl)-3-ethylsulfanyl-6-hydroxy-1,6-dimethyl-5,6,7,8-tetrahydroisoquinoline-4-carbonitrile
_space_group_crystal_system      triclinic
_space_group_IT_number           2
_space_group_name_Hall           '-P 1'
_space_group_name_H-M_alt        'P -1'
_symmetry_space_group_name_Hall  '-P 1'
_symmetry_space_group_name_H-M   'P -1'
_atom_sites_solution_hydrogens   difmap
_atom_sites_solution_primary     direct
_atom_sites_solution_secondary   difmap
_audit_creation_method           SHELXL-2014/7
_cell_angle_alpha                86.8630(10)
_cell_angle_beta                 79.1750(10)
_cell_angle_gamma                71.2220(10)
_cell_formula_units_Z            2
_cell_length_a                   9.4083(3)
_cell_length_b                   9.5140(3)
_cell_length_c                   12.7168(4)
_cell_measurement_reflns_used    7163
_cell_measurement_temperature    150(2)
_cell_measurement_theta_max      72.4794
_cell_measurement_theta_min      3.5386
_cell_volume                     1058.50(6)
_computing_cell_refinement
;
<i>SAINT</i> (Bruker, 2016)
;
_computing_data_collection
;
<i>APEX3</i> (Bruker, 2016)
;
_computing_data_reduction
;
<i>SAINT</i>  (Bruker, 2016)
;
_computing_molecular_graphics
;
<i>DIAMOND</i> (Brandenburg & Putz, 2012)
;
_computing_publication_material
;
<i>SHELXTL</i> (Sheldrick, 2008)
;
_computing_structure_refinement
;
<i>SHELXL 2014/7</i> (Sheldrick, 2015<i>b</i>)
;
_computing_structure_solution
;
<i>SHELXT</i> (Sheldrick, 2015<i>a</i>)
;
_diffrn_ambient_temperature      150(2)
_diffrn_detector_area_resol_mean 10.4167
_diffrn_measured_fraction_theta_full 0.966
_diffrn_measured_fraction_theta_max 0.945
_diffrn_measurement_device_type  'Bruker D8 VENTURE PHOTON 100 CMOS'
_diffrn_measurement_method       '\w scans'
_diffrn_radiation_monochromator  mirror
_diffrn_radiation_type           CuK\a
_diffrn_radiation_wavelength     1.54178
_diffrn_reflns_av_R_equivalents  0.0259
_diffrn_reflns_limit_h_max       11
_diffrn_reflns_limit_h_min       -11
_diffrn_reflns_limit_k_max       11
_diffrn_reflns_limit_k_min       -10
_diffrn_reflns_limit_l_max       15
_diffrn_reflns_limit_l_min       -15
_diffrn_reflns_number            8327
_diffrn_reflns_theta_full        68.000
_diffrn_reflns_theta_max         72.472
_diffrn_reflns_theta_min         3.539
_exptl_absorpt_coefficient_mu    2.675
_exptl_absorpt_correction_T_max  0.84
_exptl_absorpt_correction_T_min  0.71
_exptl_absorpt_correction_type   multi-scan
_exptl_absorpt_process_details
;
(<i>SADABS</i>; Bruker, 2016)
;
_exptl_crystal_colour            colourless
_exptl_crystal_density_diffrn    1.302
_exptl_crystal_density_method    'not measured'
_exptl_crystal_description       needle
_exptl_crystal_F_000             436
_exptl_crystal_size_max          0.265
_exptl_crystal_size_mid          0.089
_exptl_crystal_size_min          0.069
_refine_diff_density_max         0.190
_refine_diff_density_min         -0.378
_refine_ls_extinction_method     none
_refine_ls_goodness_of_fit_ref   1.033
_refine_ls_hydrogen_treatment    refall
_refine_ls_matrix_type           full
_refine_ls_number_parameters     345
_refine_ls_number_reflns         3971
_refine_ls_number_restraints     0
_refine_ls_restrained_S_all      1.033
_refine_ls_R_factor_all          0.0384
_refine_ls_R_factor_gt           0.0354
_refine_ls_shift/su_max          0.001
_refine_ls_shift/su_mean         0.000
_refine_ls_structure_factor_coef Fsqd
_refine_ls_weighting_details
'w=1/[\s^2^(Fo^2^)+(0.0545P)^2^+0.3190P] where P=(Fo^2^+2Fc^2^)/3'
_refine_ls_weighting_scheme      calc
_refine_ls_wR_factor_gt          0.0928
_refine_ls_wR_factor_ref         0.0957
_reflns_number_gt                3653
_reflns_number_total             3971
_reflns_threshold_expression     'I > 2\s(I)'
_cod_data_source_file            sj4096sup1.cif
_cod_data_source_block           I
_cod_database_code               1545623
_shelx_space_group_comment
;
The symmetry employed for this shelxl refinement is uniquely defined
by the following loop, which should always be used as a source of
symmetry information in preference to the above space-group names.
They are only intended as comments.
;
_shelx_estimated_absorpt_t_min   0.537
_shelx_estimated_absorpt_t_max   0.837
_shelx_hkl_file
;
  -1   0   0   15.96    0.60
  -2   0   0   76.45    2.76
  -2   0   0   70.75    2.77
   5   0   0  137.20    5.17
   6   0   0   20.14    0.82
   6   0   0   19.38    0.91
   6   0   0   20.90    0.83
   7   0   0   11.54    0.52
   7   0   0   11.42    0.51
   7   0   0   12.16    0.63
   8   0   0    4.90    0.27
   8   0   0    4.93    0.26
   9   0   0    4.93    0.26
   9   0   0    4.94    0.25
  10   0   0   10.93    0.46
  10   0   0   11.04    0.45
  10  -1   0    4.43    0.21
  10  -1   0    4.56    0.21
   9  -1   0   12.37    0.52
   9  -1   0   12.67    0.53
   8  -1   0   19.08    0.79
   8  -1   0   19.03    0.78
   7  -1   0    1.20    0.16
   7  -1   0    1.23    0.15
   6  -1   0   47.58    1.80
   6  -1   0   46.03    1.80
   6  -1   0   45.66    1.80
   5  -1   0    3.63    0.25
   5  -1   0    3.65    0.23
   5  -1   0    3.78    0.22
   4  -1   0   26.89    1.05
  -3   1   0   14.66    0.57
  -3   1   0   15.15    0.57
   2  -1   0   37.97    1.40
  -2   1   0   35.59    1.40
   1  -1   0  250.33    9.36
  -1   1   0  246.32    9.36
   0  -1   0  469.81   18.23
   0   1   0  498.59   18.23
  -1  -1   0  181.48    7.37
   1   1   0  209.27    7.40
  -2  -1   0   31.99    1.26
   2   1   0   34.17    1.26
  -3  -1   0   32.52    1.29
   3   1   0   35.33    1.29
  -4  -1   0    0.33    0.06
   6   1   0   13.00    0.55
   6   1   0   12.71    0.64
   6   1   0   13.10    0.56
   7   1   0   43.02    1.69
   7   1   0   43.02    1.69
   7   1   0   44.22    1.74
   8   1   0   44.52    1.73
   8   1   0   41.66    1.67
   8   1   0   42.62    1.68
   9   1   0    1.15    0.15
   9   1   0    1.33    0.14
  10   1   0    1.18    0.12
  10   1   0    1.22    0.11
  11   1   0    1.04    0.09
  11   1   0    1.19    0.09
  10  -2   0    9.26    0.38
  10  -2   0    9.59    0.38
   9  -2   0    2.71    0.16
   9  -2   0    2.58    0.15
   8  -2   0    1.92    0.16
   8  -2   0    1.87    0.15
   7  -2   0    0.07    0.07
   7  -2   0    0.05    0.07
   7  -2   0    0.10    0.10
   6  -2   0   36.30    1.45
   6  -2   0   37.26    1.47
   6  -2   0   38.22    1.46
   5  -2   0   62.72    2.46
   5  -2   0   64.52    2.46
   5  -2   0   65.31    2.46
   4  -2   0  101.70    3.85
   3  -2   0   16.75    0.62
   3  -2   0   14.98    0.62
  -3   2   0   14.89    0.62
   2  -2   0   25.04    0.95
  -2   2   0   23.60    0.95
   1  -2   0    0.27    0.06
  -1   2   0    0.20    0.07
   0  -2   0    3.10    0.16
   0   2   0    3.11    0.16
  -1  -2   0    4.40    0.21
   1   2   0    4.94    0.22
  -2  -2   0    1.14    0.10
   2   2   0    1.39    0.10
  -3  -2   0   56.57    2.22
   3   2   0   59.73    2.22
  -4  -2   0   19.77    0.80
   4   2   0   19.98    0.79
  -5  -2   0    0.72    0.14
   6   2   0    0.21    0.14
   6   2   0   -0.01    0.10
   6   2   0   -0.14    0.09
   7   2   0    0.25    0.15
   7   2   0    0.14    0.09
   7   2   0    0.12    0.09
   8   2   0    0.73    0.15
   8   2   0    1.11    0.26
   8   2   0    0.66    0.15
   9   2   0   12.07    0.53
   9   2   0   11.73    0.53
   9   2   0   12.44    0.59
  10   2   0   20.22    0.82
  10   2   0   20.62    0.82
 -11  -2   0    1.86    0.25
  11   2   0    1.52    0.11
  11   2   0    1.57    0.11
   9  -3   0    0.82    0.08
   9  -3   0    0.61    0.08
   8  -3   0    0.40    0.23
   8  -3   0    0.38    0.10
   7  -3   0   13.24    0.55
   7  -3   0   12.24    0.56
   7  -3   0   13.21    0.56
   6  -3   0    8.82    0.42
   6  -3   0    9.92    0.43
   6  -3   0    9.17    0.43
   5  -3   0   34.86    1.35
   5  -3   0   34.76    1.35
   5  -3   0   33.19    1.34
   4  -3   0    6.04    0.31
   4  -3   0    6.39    0.30
   4  -3   0    6.38    0.33
   3  -3   0   70.62    2.70
   3  -3   0   74.67    2.68
  -3   3   0   65.83    2.69
   2  -3   0  263.92   10.01
   2  -3   0  266.74   10.03
  -2   3   0  268.84   10.04
   1  -3   0    2.52    0.17
  -1   3   0    2.40    0.17
   0  -3   0   52.31    2.04
   0   3   0   53.41    2.04
  -1  -3   0    3.02    0.18
   1   3   0    2.71    0.18
  -2  -3   0    3.81    0.22
   2   3   0    3.93    0.22
  -3  -3   0  402.47   15.86
   3   3   0  435.20   15.84
  -4  -3   0    4.35    0.26
   4   3   0    4.34    0.27
  -5  -3   0   25.41    1.06
   5   3   0   26.59    1.07
   6   3   0   52.62    2.13
   6   3   0   55.08    2.17
   6   3   0   56.42    2.13
   6   3   0   56.62    2.13
   7   3   0   15.01    0.64
   7   3   0   15.01    0.64
   8   3   0    8.90    0.48
   8   3   0    8.54    0.41
   8   3   0    8.75    0.41
   9   3   0   32.18    1.31
   9   3   0   32.48    1.30
   9   3   0   34.50    1.36
  10   3   0   18.89    0.74
  10   3   0   17.87    0.74
  11   3   0    0.12    0.05
  11   3   0    0.25    0.07
   8  -4   0    0.61    0.18
   8  -4   0    0.91    0.09
   8  -4   0    0.68    0.09
   7  -4   0    0.07    0.09
   7  -4   0   -0.04    0.05
   7  -4   0   -0.03    0.06
   6  -4   0   14.54    0.63
   6  -4   0   14.53    0.62
   6  -4   0   15.17    0.63
   5  -4   0   15.90    0.68
   5  -4   0   16.18    0.67
   5  -4   0   16.59    0.69
   4  -4   0    2.37    0.17
   4  -4   0    2.41    0.19
   4  -4   0    2.68    0.20
   3  -4   0    6.75    0.34
   3  -4   0    6.96    0.32
   3  -4   0    6.98    0.33
   2  -4   0    0.11    0.06
   2  -4   0    0.17    0.13
  -2   4   0   -0.08    0.14
   1  -4   0   69.29    2.59
   1  -4   0   66.97    2.63
  -1   4   0   67.92    2.65
   0  -4   0   13.72    0.56
   0  -4   0   13.92    0.61
   0   4   0   13.76    0.63
  -1  -4   0    2.50    0.19
   1   4   0    2.38    0.22
  -2  -4   0    1.99    0.18
   2   4   0    2.12    0.20
  -3  -4   0  295.67   11.16
   3   4   0  295.50   11.16
  -4  -4   0  212.34    8.10
   4   4   0  214.79    8.10
  -5  -4   0  115.08    4.05
   5   4   0   94.14    4.15
   6   4   0   33.09    1.35
   6   4   0   32.71    1.31
   6   4   0   32.74    1.30
   7   4   0   11.17    0.54
   7   4   0   12.37    0.60
   7   4   0   13.50    0.55
   8   4   0   17.44    0.77
   8   4   0   16.77    0.71
   8   4   0   16.59    0.71
  -9  -4   0   48.66    1.95
   9   4   0   50.50    1.95
   9   4   0   48.94    1.95
   9   4   0   53.11    2.01
  10   4   0    4.96    0.25
  10   4   0    4.96    0.25
  11   4   0   12.22    0.49
  11   4   0   12.11    0.49
   8  -5   0    2.78    0.14
   7  -5   0   26.11    1.05
   7  -5   0   26.42    1.05
   7  -5   0   28.29    1.08
   6  -5   0    9.44    0.44
   6  -5   0    9.70    0.42
   6  -5   0    9.35    0.42
   5  -5   0    0.08    0.07
   5  -5   0    0.02    0.07
   5  -5   0    0.17    0.08
   4  -5   0   26.57    1.07
   4  -5   0   27.26    1.09
   3  -5   0    9.95    0.45
   3  -5   0   10.29    0.45
   3  -5   0    9.69    0.44
   2  -5   0    9.95    0.43
   2  -5   0    9.86    0.43
   2  -5   0    9.59    0.44
   1  -5   0    2.87    0.18
   1  -5   0    3.19    0.37
   0  -5   0    5.00    0.37
   0  -5   0    4.97    0.25
  -1  -5   0   20.16    0.85
  -1  -5   0   17.53    0.75
  -2  -5   0   94.60    3.67
  -3  -5   0   50.23    2.02
  -4  -5   0   31.09    1.33
  -5  -5   0   -0.12    0.24
   5   5   0   -0.04    0.07
   5   5   0    0.24    0.11
   5   5   0   -0.06    0.18
   5   5   0   -0.02    0.12
   6   5   0    5.01    0.37
   6   5   0    5.22    0.28
   6   5   0    5.17    0.31
   6   5   0    5.31    0.30
   7   5   0   11.81    0.52
   7   5   0   11.28    0.51
   7   5   0   11.30    0.58
   8   5   0    7.99    0.45
   8   5   0    7.49    0.37
   8   5   0    7.43    0.37
   9   5   0    7.32    0.36
   9   5   0    7.68    0.43
   9   5   0    7.51    0.36
 -10  -5   0    2.11    0.24
  10   5   0    1.99    0.15
  10   5   0    1.93    0.15
  11   5   0    4.03    0.19
  11   5   0    3.36    0.18
   7  -6   0   11.06    0.44
   6  -6   0   -0.01    0.08
   6  -6   0   -0.03    0.05
   5  -6   0    1.22    0.14
   5  -6   0    1.21    0.13
   4  -6   0    4.46    0.26
   4  -6   0    4.48    0.24
   3  -6   0    0.31    0.08
   3  -6   0    0.29    0.09
   2  -6   0   85.40    3.24
   2  -6   0   83.64    3.21
   1  -6   0    0.02    0.08
   1  -6   0    0.03    0.06
   0  -6   0   41.25    1.54
   0  -6   0   37.63    1.52
  -1  -6   0  251.46    9.35
   1   6   0  245.60    9.34
   2   6   0   61.04    2.33
   3   6   0    0.59    0.14
   3   6   0    0.58    0.12
   4   6   0   17.68    0.77
   4   6   0   18.49    0.74
   4   6   0   18.36    0.75
   5   6   0    0.77    0.15
   5   6   0    1.38    0.38
   5   6   0    1.17    0.16
   5   6   0    1.46    0.19
   6   6   0   21.16    0.85
   6   6   0   20.18    0.91
   7   6   0   11.02    0.58
   7   6   0   11.57    0.51
   7   6   0   10.91    0.50
   8   6   0    9.56    0.44
   8   6   0    9.56    0.44
   8   6   0    9.14    0.50
   9   6   0    5.50    0.36
   9   6   0    6.54    0.31
   9   6   0    6.52    0.31
 -10  -6   0    0.27    0.10
  10   6   0    0.05    0.06
  10   6   0    0.16    0.06
  11   6   0    1.38    0.12
  11   6   0    1.48    0.11
   6  -7   0    2.10    0.13
   6  -7   0    2.31    0.18
   5  -7   0    1.03    0.13
   5  -7   0    0.84    0.11
   4  -7   0    0.23    0.08
   4  -7   0    0.48    0.11
   3  -7   0   13.19    0.60
   3  -7   0   14.20    0.58
   2  -7   0    5.03    0.26
   2  -7   0    5.11    0.29
   1  -7   0    0.01    0.08
   1  -7   0    0.18    0.09
   0  -7   0    7.53    0.35
   0  -7   0    7.73    0.37
   0   7   0    7.32    0.35
  -1  -7   0   44.32    1.73
   1   7   0   44.72    1.72
   2   7   0   63.26    2.42
   3   7   0    2.70    0.21
   3   7   0    2.66    0.19
   4   7   0   15.87    0.65
   4   7   0   15.38    0.66
   5   7   0    0.19    0.10
   5   7   0    0.15    0.07
   5   7   0    0.37    0.26
   6   7   0   30.51    1.29
   6   7   0   31.15    1.23
   6   7   0   31.19    1.23
   7   7   0    3.64    0.34
   7   7   0    3.72    0.24
   7   7   0    3.73    0.23
   8   7   0   18.03    0.80
   8   7   0   17.82    0.74
   8   7   0   17.68    0.74
  -9  -7   0   13.29    0.57
   9   7   0   13.06    0.60
   9   7   0   12.86    0.56
   9   7   0   13.56    0.56
 -10  -7   0    0.47    0.13
  10   7   0    0.50    0.11
  10   7   0    0.47    0.10
   5  -8   0    5.97    0.32
  -5   8   0    6.08    0.26
   4  -8   0   35.21    1.43
   4  -8   0   37.60    1.45
  -4   8   0   38.56    1.43
   3  -8   0    3.11    0.21
   3  -8   0    3.11    0.19
  -3   8   0    3.43    0.19
   2  -8   0    0.45    0.14
   2  -8   0    0.84    0.14
  -2   8   0    0.43    0.12
   1  -8   0   16.49    0.72
  -1   8   0   17.44    0.70
   0  -8   0   34.44    1.37
   0   8   0   34.57    1.35
  -1  -8   0    6.36    0.46
   1   8   0    5.49    0.30
   2   8   0   12.97    0.55
   3   8   0    1.78    0.16
   3   8   0    1.84    0.18
   4   8   0    0.11    0.07
   4   8   0    0.07    0.10
   5   8   0    1.75    0.16
   5   8   0    1.50    0.18
   6   8   0    1.40    0.17
   6   8   0    1.52    0.16
   7   8   0    1.07    0.14
   7   8   0    1.16    0.16
   7   8   0    1.56    0.33
   8   8   0    4.54    0.25
   8   8   0    4.43    0.33
   8   8   0    4.53    0.25
  -9  -8   0    1.43    0.14
   9   8   0    1.39    0.14
   9   8   0    1.23    0.13
 -10  -8   0    0.06    0.07
  10   8   0    0.04    0.05
  10   8   0    0.16    0.06
  -4   9   0    4.36    0.20
   3  -9   0    3.39    0.24
  -3   9   0    4.01    0.19
   2  -9   0    4.52    0.27
  -2   9   0    4.79    0.23
  -1   9   0    1.20    0.13
   0  -9   0   18.69    0.81
   0   9   0   19.75    0.78
   1   9   0    1.22    0.14
   2   9   0    7.83    0.37
   2   9   0    7.58    0.35
   3   9   0    2.59    0.18
   3   9   0    2.38    0.19
  -4  -9   0   22.33    0.96
   4   9   0   23.91    0.95
   4   9   0   24.42    0.94
  -5  -9   0   12.00    0.54
   5   9   0   11.91    0.51
   5   9   0   11.37    0.51
  -6  -9   0    0.10    0.11
   6   9   0   -0.01    0.08
   6   9   0    0.04    0.07
  -7  -9   0   21.50    0.87
   7   9   0   21.36    0.86
   7   9   0   20.66    0.85
  -8  -9   0    0.10    0.08
   8   9   0    0.10    0.07
   8   9   0    0.10    0.07
  -9  -9   0    1.16    0.13
   9   9   0    1.05    0.12
   9   9   0    1.10    0.12
  -2  10   0    2.57    0.14
  -2  10   0    2.53    0.17
  -1  10   0    0.04    0.05
  -1  10   0   -0.01    0.07
   0  10   0    1.30    0.12
   0  10   0    1.10    0.14
   1  10   0    3.58    0.19
   1  10   0    3.40    0.20
   2  10   0   28.49    1.14
   2  10   0   29.29    1.13
   3  10   0    0.29    0.09
   3  10   0    0.48    0.11
   4  10   0    4.22    0.22
   4  10   0    4.28    0.24
  -5 -10   0   -0.09    0.12
   5  10   0    0.00    0.06
   5  10   0    0.10    0.08
  -6 -10   0    5.88    0.30
   6  10   0    5.98    0.28
   6  10   0    5.81    0.29
  -7 -10   0   20.20    0.82
   7  10   0   20.94    0.81
   7  10   0   19.95    0.81
  -8 -10   0    1.38    0.13
   8  10   0    1.04    0.13
   8  10   0    1.06    0.13
   0  11   0    7.00    0.30
   1  11   0    0.24    0.06
   1  11   0    0.40    0.12
   2  11   0   10.19    0.40
   2  11   0    9.06    0.41
   3  11   0    7.33    0.32
   3  11   0    7.13    0.31
   4  11   0    3.96    0.21
   4  11   0    3.62    0.19
   5  11   0    1.52    0.15
   5  11   0    1.12    0.12
   6  11   0    0.49    0.11
   6  11   0    0.48    0.13
   6  11  -1    0.73    0.12
   5  11  -1    0.73    0.14
   5  11  -1    0.84    0.11
   4  11  -1    2.13    0.15
   4  11  -1    1.85    0.14
   3  11  -1    1.05    0.13
   3  11  -1    0.77    0.12
   2  11  -1    0.47    0.12
   2  11  -1    0.82    0.11
   1  11  -1    0.22    0.07
   1  11  -1    0.31    0.07
   0  11  -1    2.51    0.16
   8  10  -1    1.40    0.12
  -8 -10   1    1.29    0.13
   7  10  -1    0.23    0.07
   7  10  -1    0.31    0.08
  -7 -10   1    0.19    0.08
   6  10  -1    7.47    0.34
   6  10  -1    7.68    0.34
  -6 -10   1    7.61    0.35
   5  10  -1    8.35    0.36
   5  10  -1    7.88    0.36
  -5 -10   1    7.81    0.38
   4  10  -1    4.88    0.24
   4  10  -1    4.40    0.24
   3  10  -1   12.45    0.52
   3  10  -1   12.81    0.53
   2  10  -1   -0.04    0.07
   2  10  -1   -0.01    0.06
   1  10  -1    6.45    0.29
   1  10  -1    6.38    0.31
   0  10  -1   11.60    0.50
   0  10  -1   12.38    0.49
  -1  10  -1    2.12    0.14
  -1  10  -1    1.88    0.14
  -2  10  -1    1.97    0.13
  -2  10  -1    1.68    0.13
   9   9  -1    2.54    0.15
   9   9  -1    2.31    0.18
  -9  -9   1    2.33    0.15
   8   9  -1    0.71    0.11
   8   9  -1    0.72    0.13
  -8  -9   1    0.85    0.13
   7   9  -1    0.22    0.08
   7   9  -1    0.32    0.08
  -7  -9   1    0.11    0.09
   6   9  -1    1.15    0.15
   6   9  -1    1.31    0.15
  -6  -9   1    1.59    0.17
   5   9  -1    3.88    0.23
   5   9  -1    3.61    0.23
  -5  -9   1    3.81    0.26
   4   9  -1    2.33    0.18
   4   9  -1    2.87    0.19
  -4  -9   1    2.41    0.24
   3   9  -1    4.80    0.26
   3   9  -1    4.68    0.26
   2   9  -1    3.25    0.21
   2   9  -1    3.34    0.22
   1   9  -1   73.54    2.80
   0   9  -1    4.58    0.24
   0  -9   1    4.41    0.33
  -1   9  -1    0.59    0.11
   1  -9   1    0.54    0.13
  -2   9  -1   13.14    0.53
   2  -9   1   12.54    0.56
  -3   9  -1    3.61    0.19
   3  -9   1    3.96    0.24
  -4   9  -1   11.71    0.47
  10   8  -1    9.43    0.40
 -10  -8   1    9.95    0.41
   9   8  -1   15.25    0.64
   9   8  -1   15.97    0.64
  -9  -8   1   15.86    0.65
   8   8  -1   -0.01    0.07
   8   8  -1   -0.03    0.07
  -8  -8   1   -0.02    0.08
   7   8  -1    0.21    0.09
   7   8  -1    0.21    0.08
  -7  -8   1    0.15    0.10
   6   8  -1    0.89    0.16
   6   8  -1    0.76    0.15
   5   8  -1   15.69    0.67
   5   8  -1   15.79    0.66
   4   8  -1   16.55    0.67
   4   8  -1   15.73    0.67
  -4  -8   1   15.88    0.70
   3   8  -1    0.79    0.15
   3   8  -1    0.64    0.14
  -3  -8   1    0.73    0.23
   2   8  -1   38.26    1.49
   1   8  -1   58.83    2.39
  -1  -8   1   66.02    2.51
   0   8  -1    8.57    0.39
   0  -8   1    8.55    0.42
  -1   8  -1   44.14    1.62
   1  -8   1   39.30    1.64
  -2   8  -1    2.12    0.17
   2  -8   1    1.96    0.18
   2  -8   1    2.29    0.16
  -3   8  -1    1.97    0.15
   3  -8   1    1.94    0.15
   3  -8   1    1.80    0.17
  -4   8  -1    0.05    0.06
   4  -8   1    0.06    0.08
   4  -8   1    0.37    0.09
  -5   8  -1    0.32    0.06
   5  -8   1    0.59    0.15
  10   7  -1    2.77    0.17
  10   7  -1    3.08    0.17
 -10  -7   1    3.17    0.19
   9   7  -1    0.29    0.08
   9   7  -1    0.23    0.07
   8   7  -1    2.83    0.20
   8   7  -1    2.83    0.21
   8   7  -1    2.97    0.29
  -8  -7   1    2.74    0.22
   7   7  -1   20.87    0.86
   7   7  -1   20.90    0.87
   7   7  -1   21.28    0.93
   6   7  -1    3.06    0.21
   6   7  -1    2.50    0.37
   6   7  -1    2.62    0.21
   5   7  -1   15.46    0.65
   5   7  -1   15.27    0.65
   4   7  -1    0.68    0.16
   4   7  -1    0.65    0.15
   3   7  -1   42.50    1.67
   3   7  -1   43.58    1.67
   2   7  -1   88.16    3.09
  -2  -7   1   73.86    3.13
   1   7  -1    5.35    0.28
  -1  -7   1    5.32    0.30
   0   7  -1    0.49    0.14
   0  -7   1    0.26    0.10
   0  -7   1    0.21    0.08
   1  -7   1    6.67    0.32
   1  -7   1    6.43    0.34
   2  -7   1   17.79    0.75
   2  -7   1   17.48    0.72
   3  -7   1   10.36    0.49
   3  -7   1   11.32    0.47
   4  -7   1    0.08    0.08
   4  -7   1    0.11    0.07
   5  -7   1    0.12    0.08
   5  -7   1   -0.04    0.05
   6  -7   1    0.91    0.09
   6  -7   1    1.12    0.16
  10   6  -1    0.63    0.11
  10   6  -1    0.54    0.10
 -10  -6   1    0.61    0.15
   9   6  -1    1.10    0.14
   9   6  -1    1.03    0.21
   9   6  -1    1.02    0.15
  -9  -6   1    1.26    0.17
   8   6  -1   15.54    0.66
   8   6  -1   14.97    0.65
   8   6  -1   15.65    0.72
   7   6  -1    4.09    0.34
   7   6  -1    4.16    0.26
   7   6  -1    3.92    0.25
   6   6  -1    8.73    0.52
   6   6  -1    9.71    0.43
   6   6  -1    9.67    0.44
   5   6  -1    6.55    0.47
   5   6  -1    6.68    0.33
   5   6  -1    6.43    0.33
   4   6  -1    8.02    0.38
   4   6  -1    8.02    0.37
   3   6  -1    4.83    0.27
   3   6  -1    5.42    0.28
   2   6  -1    9.02    0.41
   1   6  -1   24.26    0.98
  -1  -6   1   25.00    0.98
   0  -6   1   17.85    0.71
   0  -6   1   16.39    0.70
   1  -6   1   65.71    2.57
   1  -6   1   68.88    2.59
   2  -6   1   45.97    1.81
   2  -6   1   47.70    1.83
   3  -6   1   17.50    0.72
   3  -6   1   16.19    0.69
   4  -6   1    1.12    0.14
   4  -6   1    1.21    0.15
   5  -6   1   23.03    0.97
   5  -6   1   24.81    0.95
   6  -6   1   13.47    0.57
   6  -6   1   13.18    0.55
   7  -6   1   31.97    1.23
  11   5  -1    9.48    0.40
  11   5  -1    9.95    0.40
  10   5  -1    0.11    0.06
  10   5  -1    0.13    0.06
   9   5  -1    5.08    0.34
   9   5  -1    4.92    0.27
   9   5  -1    5.25    0.28
  -9  -5   1    5.05    0.30
   8   5  -1    7.99    0.46
   8   5  -1    7.72    0.38
   8   5  -1    7.50    0.38
   7   5  -1   29.10    1.14
   7   5  -1   28.27    1.14
   7   5  -1   27.81    1.19
   6   5  -1   34.65    1.43
   6   5  -1   35.21    1.37
   6   5  -1   34.93    1.38
   5   5  -1   17.99    0.70
   5   5  -1   17.81    0.70
   5   5  -1   17.30    0.79
  -5  -5   1   14.24    0.90
   4   5  -1    1.72    0.19
  -4  -5   1    2.16    0.38
  -3  -5   1   54.65    2.20
  -2  -5   1    3.17    0.30
  -1  -5   1   35.96    1.43
  -1  -5   1   38.17    1.53
   0  -5   1    1.26    0.13
   0  -5   1    0.86    0.28
   1  -5   1    0.03    0.08
   1  -5   1    0.18    0.21
   1  -5   1    0.02    0.06
   2  -5   1   23.67    0.92
   2  -5   1   23.59    0.91
   2  -5   1   21.96    0.90
   2  -5   1   21.94    1.09
   3  -5   1    7.52    0.35
   3  -5   1    6.95    0.34
   3  -5   1    7.09    0.35
   4  -5   1    9.56    0.44
   4  -5   1    9.54    0.42
   4  -5   1    9.27    0.43
   5  -5   1   14.54    0.60
   5  -5   1   13.53    0.59
   5  -5   1   14.01    0.61
   6  -5   1    7.24    0.34
   6  -5   1    7.63    0.34
   6  -5   1    6.78    0.35
   7  -5   1    2.03    0.18
   7  -5   1    1.79    0.13
   7  -5   1    1.53    0.13
   8  -5   1   14.86    0.59
  11   4  -1    0.34    0.10
  11   4  -1    0.33    0.08
  10   4  -1    0.78    0.12
  10   4  -1    0.70    0.11
   9   4  -1    0.06    0.08
   9   4  -1    0.06    0.08
   9   4  -1   -0.17    0.11
  -9  -4   1    0.03    0.16
   8   4  -1    0.22    0.14
   8   4  -1    0.12    0.09
   8   4  -1    0.06    0.09
   7   4  -1   37.35    1.50
   7   4  -1   36.63    1.45
   7   4  -1   36.42    1.45
   6   4  -1    1.44    0.17
   6   4  -1    1.09    0.17
   6   4  -1    1.63    0.26
   5   4  -1  147.27    5.44
   5   4  -1  138.41    5.48
  -5  -4   1  146.04    5.51
   4   4  -1   12.97    0.64
  -4  -4   1   14.00    0.64
   3   4  -1   67.01    2.63
  -3  -4   1   68.31    2.64
   2   4  -1  128.98    4.87
  -2  -4   1  126.09    4.87
   1   4  -1   -0.01    0.09
  -1  -4   1    0.12    0.08
   0   4  -1  170.82    6.53
   0  -4   1  174.38    6.47
   0  -4   1  170.81    6.53
  -1   4  -1  418.24   16.12
   1  -4   1  423.67   16.12
   1  -4   1  442.48   16.08
  -2   4  -1    3.38    0.35
   2  -4   1    3.69    0.20
   2  -4   1    3.72    0.31
   3  -4   1    1.13    0.12
   3  -4   1    1.43    0.16
   3  -4   1    1.16    0.18
   4  -4   1    0.46    0.10
   4  -4   1    0.46    0.13
   4  -4   1    0.48    0.12
   5  -4   1   30.90    1.26
   5  -4   1   31.84    1.27
   5  -4   1   33.26    1.28
   6  -4   1   -0.12    0.06
   6  -4   1    0.00    0.08
   6  -4   1   -0.04    0.07
   7  -4   1    4.58    0.24
   7  -4   1    4.41    0.26
   7  -4   1    4.33    0.23
   8  -4   1    1.00    0.09
   8  -4   1    0.88    0.10
   8  -4   1    0.68    0.17
   9  -4   1   -0.01    0.04
  11   3  -1    6.75    0.29
  11   3  -1    6.53    0.28
 -11  -3   1    6.79    0.32
  10   3  -1    0.90    0.12
  10   3  -1    1.08    0.11
   9   3  -1   12.42    0.54
   9   3  -1   12.56    0.54
   8   3  -1    6.43    0.33
   8   3  -1    6.62    0.41
   8   3  -1    5.96    0.32
  -8  -3   1    5.66    0.41
   7   3  -1    9.89    0.52
   7   3  -1   10.57    0.47
   7   3  -1    9.58    0.45
   6   3  -1   10.45    0.49
   6   3  -1   11.52    0.49
   6   3  -1   11.13    0.56
  -5  -3   1    7.54    0.40
   4   3  -1  110.21    4.09
  -4  -3   1  104.58    4.09
   3   3  -1    6.16    0.30
  -3  -3   1    5.29    0.29
   2   3  -1  181.90    6.70
  -2  -3   1  172.51    6.70
   1   3  -1    0.42    0.10
  -1  -3   1    0.50    0.09
   0   3  -1  146.45    5.38
   0  -3   1  137.15    5.37
  -1   3  -1  215.75    7.90
   1  -3   1  202.33    7.89
  -2   3  -1  296.83   10.95
   2  -3   1  283.83   10.91
   2  -3   1  290.82   10.94
  -3   3  -1    2.00    0.24
   3  -3   1    2.12    0.14
   3  -3   1    2.22    0.22
   4  -3   1    2.52    0.22
   4  -3   1    2.33    0.17
   4  -3   1    2.51    0.19
   5  -3   1   21.68    0.87
   5  -3   1   20.95    0.86
   5  -3   1   21.10    0.86
   6  -3   1    0.44    0.14
   6  -3   1    0.27    0.08
   6  -3   1    0.34    0.09
   7  -3   1    4.28    0.25
   7  -3   1    4.10    0.26
   7  -3   1    4.60    0.24
   8  -3   1    2.75    0.17
   8  -3   1    2.84    0.27
   8  -3   1    2.72    0.17
   9  -3   1   10.12    0.42
   9  -3   1   10.17    0.41
  11   2  -1    0.04    0.04
  11   2  -1    0.29    0.08
  10   2  -1    1.17    0.11
  10   2  -1    1.20    0.12
   9   2  -1   69.97    2.67
   9   2  -1   69.42    2.67
   8   2  -1   10.47    0.52
   8   2  -1    9.48    0.45
   8   2  -1    9.62    0.45
   7   2  -1    3.75    0.24
   7   2  -1    3.76    0.26
   7   2  -1    4.56    0.34
   6   2  -1    1.25    0.20
   6   2  -1    1.33    0.28
  -5  -2   1   10.32    0.46
   4   2  -1  132.96    5.06
  -4  -2   1  135.52    5.07
   3   2  -1   15.17    0.58
  -3  -2   1   13.35    0.58
   2   2  -1    2.06    0.12
  -2  -2   1    1.77    0.12
   1   2  -1  336.28   12.31
  -1  -2   1  313.13   12.32
   0   2  -1    1.41    0.10
   0  -2   1    1.38    0.10
  -1   2  -1   64.41    2.42
   1  -2   1   62.67    2.42
  -2   2  -1   72.47    2.72
   2  -2   1   70.09    2.71
  -3   2  -1   11.51    0.49
   3  -2   1   10.73    0.47
   3  -2   1   11.74    0.48
  -4   2  -1   16.68    0.69
   4  -2   1   17.30    0.69
   5  -2   1   33.46    1.29
   5  -2   1   32.77    1.30
   5  -2   1   32.62    1.29
   6  -2   1    0.93    0.15
   6  -2   1    0.95    0.16
   6  -2   1    1.20    0.14
   7  -2   1   50.78    1.95
   7  -2   1   52.01    1.94
   7  -2   1   48.00    1.95
   8  -2   1   20.22    0.82
   8  -2   1   19.82    0.81
   9  -2   1    9.49    0.41
   9  -2   1    9.80    0.41
  10  -2   1    1.81    0.11
  10   1  -1   11.14    0.46
  10   1  -1   10.59    0.45
 -10  -1   1   11.04    0.50
   9   1  -1   55.56    2.15
   9   1  -1   56.37    2.16
   8   1  -1    8.17    0.38
   8   1  -1    7.64    0.37
   7   1  -1    2.04    0.18
   7   1  -1    1.92    0.18
   7   1  -1    1.57    0.31
   6   1  -1   24.15    0.96
   6   1  -1   23.52    1.01
   6   1  -1   23.02    0.95
   3   1  -1    0.28    0.04
  -3  -1   1    0.33    0.05
   2   1  -1  605.35   21.76
  -2  -1   1  551.23   21.74
   1   1  -1  470.65   17.91
  -1  -1   1  480.68   17.91
   0   1  -1    9.06    0.35
   0  -1   1    8.22    0.35
  -1   1  -1   48.84    1.80
   1  -1   1   45.71    1.80
  -2   1  -1   70.09    2.60
   2  -1   1   66.94    2.59
  -3   1  -1   90.61    3.43
  -4   1  -1  119.69    4.53
  -4   1  -1  120.76    4.53
   4  -1   1  120.05    4.54
   5  -1   1   45.95    1.85
   5  -1   1   49.86    1.86
   5  -1   1   48.53    1.85
   6  -1   1   31.01    1.19
   6  -1   1   28.32    1.18
   6  -1   1   30.33    1.18
   7  -1   1    0.79    0.15
   7  -1   1    0.83    0.14
   8  -1   1    9.02    0.41
   8  -1   1    8.60    0.40
   9  -1   1    0.08    0.06
   9  -1   1    0.09    0.06
  10  -1   1    0.44    0.08
  10  -1   1    0.29    0.08
  10   0  -1   13.02    0.53
  10   0  -1   13.29    0.53
   9   0  -1    0.18    0.06
   9   0  -1    0.40    0.10
  -9   0   1    0.18    0.14
   8   0  -1    4.52    0.25
   8   0  -1    4.78    0.26
   7   0  -1    5.89    0.32
   7   0  -1    6.18    0.31
   6   0  -1    4.21    0.42
   6   0  -1    4.12    0.25
   6   0  -1    3.93    0.24
   5   0  -1   24.05    0.95
   1   0  -1    0.83    0.04
   0   0  -1   28.35    1.07
  -1   0  -1   19.66    0.76
  -2   0  -1   89.34    3.48
  -2   0  -1   95.32    3.48
  -3   0  -1   97.32    3.90
  -3   0  -1  109.80    3.91
  -4   0  -1   30.13    1.15
  -4   0  -1   29.63    1.15
   5   0   1    1.77    0.17
   6   0   1  173.47    6.74
   6   0   1  178.76    6.70
   6   0   1  180.64    6.70
   7   0   1   33.60    1.40
   7   0   1   34.55    1.34
   8   0   1    5.10    0.27
   8   0   1    5.07    0.28
   9   0   1    0.04    0.06
   9   0   1   -0.01    0.06
  10   0   1    7.14    0.32
  10   0   1    7.14    0.31
  10  -1  -1    5.54    0.24
  10  -1  -1    5.62    0.25
   9  -1  -1    4.05    0.21
   9  -1  -1    4.07    0.21
   8  -1  -1    0.00    0.07
   8  -1  -1    0.17    0.08
   7  -1  -1   51.44    2.02
   7  -1  -1   52.95    2.02
   6  -1  -1   16.48    0.69
   6  -1  -1   16.50    0.70
   6  -1  -1   16.83    0.69
   5  -1  -1   20.63    0.84
   5  -1  -1   21.69    0.86
   4  -1  -1    1.59    0.13
  -2   1   1   94.70    3.55
   1  -1  -1   64.30    2.55
  -1   1   1   71.14    2.55
   0  -1  -1  104.60    3.96
   0   1   1  103.83    3.95
  -1  -1  -1    0.43    0.04
   1   1   1    0.43    0.04
  -2  -1  -1   53.41    2.08
   2   1   1   56.56    2.09
  -3  -1  -1    0.03    0.03
  -4  -1  -1   55.72    2.13
  -5  -1  -1    8.62    0.37
  -5  -1  -1    8.38    0.38
   6   1   1   14.05    0.59
   6   1   1   14.08    0.60
   6   1   1   13.51    0.65
   7   1   1   23.69    0.96
   7   1   1   24.72    1.02
   7   1   1   23.30    0.96
   8   1   1   12.46    0.55
   8   1   1   12.58    0.56
   8   1   1   13.26    0.64
   9   1   1    1.60    0.15
   9   1   1    1.79    0.16
  10   1   1    4.11    0.22
  10   1   1    4.25    0.21
  11   1   1    3.05    0.15
  11   1   1    2.85    0.15
   9  -2  -1    0.04    0.04
   9  -2  -1    0.06    0.05
   8  -2  -1    0.15    0.07
   8  -2  -1    0.12    0.06
   7  -2  -1    2.13    0.16
   7  -2  -1    2.07    0.18
   7  -2  -1    1.71    0.19
   6  -2  -1   30.40    1.22
   6  -2  -1   30.63    1.23
   6  -2  -1   31.77    1.23
   5  -2  -1    2.32    0.20
   5  -2  -1    2.17    0.19
   5  -2  -1    2.52    0.17
   4  -2  -1   23.35    0.92
   3  -2  -1  202.43    7.61
   2  -2  -1   32.77    1.28
  -2   2   1   33.93    1.28
   1  -2  -1   68.28    2.57
  -1   2   1   67.22    2.57
   0  -2  -1    3.18    0.16
   0   2   1    3.20    0.17
  -1  -2  -1  215.90    8.38
   1   2   1  226.66    8.40
  -2  -2  -1  628.90   24.59
   2   2   1  673.58   24.60
  -3  -2  -1  512.77   19.82
   3   2   1  535.31   19.76
  -4  -2  -1   26.25    0.98
   4   2   1   23.05    0.98
  -5  -2  -1    0.66    0.14
   6   2   1    0.04    0.09
   6   2   1    0.24    0.10
   6   2   1    0.13    0.16
   7   2   1    5.92    0.40
   7   2   1    6.13    0.32
   7   2   1    6.57    0.32
   8   2   1    1.88    0.29
   8   2   1    2.11    0.18
   8   2   1    1.67    0.18
   9   2   1   10.22    0.54
   9   2   1   10.25    0.46
   9   2   1   10.31    0.47
  10   2   1    2.67    0.17
  10   2   1    2.64    0.17
 -11  -2  -1    1.65    0.38
  11   2   1    2.54    0.14
  11   2   1    2.69    0.14
   9  -3  -1    0.41    0.08
   9  -3  -1    0.42    0.07
   8  -3  -1    2.09    0.15
   8  -3  -1    2.29    0.14
   7  -3  -1   39.67    1.49
   7  -3  -1   38.69    1.48
   7  -3  -1   35.81    1.49
   6  -3  -1   10.52    0.47
   6  -3  -1   10.70    0.48
   6  -3  -1   10.84    0.48
   5  -3  -1   27.51    1.12
   5  -3  -1   29.19    1.12
   5  -3  -1   27.61    1.11
   4  -3  -1    0.33    0.10
   4  -3  -1    0.22    0.09
   3  -3  -1   33.34    1.29
   2  -3  -1    9.72    0.42
   2  -3  -1    9.32    0.40
   1  -3  -1   35.66    1.39
  -1   3   1   35.57    1.40
   0  -3  -1   17.20    0.69
   0   3   1   16.46    0.70
  -1  -3  -1  302.25   11.53
   1   3   1  302.57   11.48
  -2  -3  -1  116.83    4.51
   2   3   1  120.69    4.51
  -3  -3  -1  629.63   23.90
   3   3   1  636.05   23.93
  -4  -3  -1   43.42    1.75
   4   3   1   45.65    1.75
  -5  -3  -1    0.69    0.20
   5   3   1    0.97    0.25
   6   3   1    0.36    0.10
   6   3   1    0.34    0.14
   6   3   1    0.12    0.10
   6   3   1    0.43    0.15
   7   3   1   15.96    0.76
   7   3   1   16.93    0.71
   7   3   1   17.76    0.72
   7   3   1   17.71    0.74
   8   3   1   27.99    1.17
   8   3   1   27.40    1.11
   8   3   1   27.83    1.11
   9   3   1   59.95    2.37
   9   3   1   62.36    2.37
   9   3   1   62.49    2.42
  10   3   1    0.24    0.07
  10   3   1    0.21    0.07
  11   3   1    0.79    0.09
  11   3   1    0.66    0.09
   8  -4  -1   19.96    0.77
   8  -4  -1   19.25    0.77
   7  -4  -1   19.75    0.81
   7  -4  -1   19.48    0.79
   7  -4  -1   19.89    0.80
   6  -4  -1    6.93    0.34
   6  -4  -1    6.83    0.33
   6  -4  -1    6.57    0.34
   5  -4  -1    3.12    0.21
   5  -4  -1    2.92    0.20
   4  -4  -1    8.53    0.38
   4  -4  -1    8.48    0.39
   4  -4  -1    7.60    0.38
   3  -4  -1   89.99    3.44
   3  -4  -1   87.91    3.44
   3  -4  -1   93.86    3.45
   2  -4  -1    0.73    0.22
   2  -4  -1    0.66    0.10
  -2   4   1    0.53    0.16
   1  -4  -1    0.10    0.09
   1  -4  -1    0.05    0.06
  -1   4   1   -0.09    0.11
   0  -4  -1   35.86    1.39
   0  -4  -1   34.00    1.34
   0   4   1   34.68    1.41
   1   4   1    4.05    0.27
  -2  -4  -1  135.97    5.09
   2   4   1  130.81    5.09
  -3  -4  -1   36.68    1.44
   3   4   1   34.53    1.43
  -4  -4  -1   49.55    1.95
   4   4   1   48.37    1.95
  -5  -4  -1   16.74    0.78
   6   4   1   73.14    2.77
   6   4   1   70.49    2.80
   6   4   1   74.09    2.76
   6   4   1   71.34    2.77
   7   4   1    6.68    0.35
   7   4   1    7.13    0.42
   7   4   1    6.52    0.37
   7   4   1    6.42    0.34
   8   4   1    8.87    0.42
   8   4   1    9.08    0.49
   8   4   1    8.66    0.42
   9   4   1   17.50    0.72
   9   4   1   17.21    0.77
   9   4   1   16.59    0.72
  10   4   1    0.57    0.11
  10   4   1    0.63    0.11
  10   4   1    0.42    0.13
  11   4   1    0.72    0.09
  11   4   1    0.69    0.09
   8  -5  -1    6.11    0.26
   7  -5  -1    0.39    0.09
   7  -5  -1    0.47    0.15
   6  -5  -1    1.02    0.13
   6  -5  -1    1.00    0.13
   6  -5  -1    1.10    0.14
   5  -5  -1   28.80    1.11
   5  -5  -1   27.86    1.09
   5  -5  -1   26.24    1.11
   4  -5  -1   14.20    0.60
   4  -5  -1   13.66    0.59
   4  -5  -1   13.30    0.58
   3  -5  -1  102.16    3.83
   3  -5  -1   98.33    3.82
   3  -5  -1  101.61    3.84
   2  -5  -1   14.48    0.60
   2  -5  -1   14.31    0.60
   2  -5  -1   14.40    0.60
   1  -5  -1   70.63    2.91
   1  -5  -1   82.41    3.01
   0  -5  -1   98.92    3.81
   0  -5  -1   97.67    3.72
  -1  -5  -1   44.34    1.71
  -1  -5  -1   45.03    1.80
  -2  -5  -1    3.18    0.29
  -3  -5  -1    0.20    0.14
  -4  -5  -1   74.04    2.93
   5   5   1   18.04    0.75
   5   5   1   17.98    0.79
   5   5   1   17.52    0.72
   5   5   1   17.71    0.74
   6   5   1   20.92    0.92
   6   5   1   21.21    0.86
   6   5   1   21.28    0.88
   6   5   1   21.08    0.87
   7   5   1    0.05    0.10
   7   5   1   -0.07    0.07
   7   5   1    0.17    0.14
   7   5   1    0.17    0.12
   8   5   1    3.15    0.22
   8   5   1    3.32    0.23
   8   5   1    3.70    0.31
   9   5   1    2.06    0.24
   9   5   1    2.00    0.18
   9   5   1    2.13    0.18
 -10  -5  -1    2.90    0.25
  10   5   1    2.64    0.18
  10   5   1    2.80    0.18
  10   5   1    3.04    0.24
  11   5   1    0.04    0.05
  11   5   1   -0.09    0.05
   7  -6  -1    5.24    0.23
   6  -6  -1   -0.03    0.08
   6  -6  -1    0.11    0.06
   5  -6  -1   20.32    0.87
   5  -6  -1   21.96    0.85
   4  -6  -1   18.47    0.73
   4  -6  -1   17.08    0.75
   3  -6  -1    3.32    0.21
   3  -6  -1    2.93    0.20
   2  -6  -1    5.09    0.28
   2  -6  -1    5.56    0.28
   1  -6  -1   10.41    0.46
   1  -6  -1   10.64    0.46
   0  -6  -1    1.86    0.15
   0  -6  -1    1.72    0.18
  -1  -6  -1    8.33    0.37
   1   6   1    8.06    0.37
   2   6   1    4.05    0.23
   3   6   1    1.53    0.15
   3   6   1    1.66    0.21
   3   6   1    1.77    0.26
   4   6   1   21.67    0.91
   4   6   1   22.67    0.88
   4   6   1   22.14    0.89
   5   6   1   25.65    1.11
   5   6   1   26.67    1.04
   5   6   1   26.67    1.07
   5   6   1   26.36    1.05
   6   6   1    9.40    0.45
   6   6   1    9.17    0.51
   6   6   1    9.69    0.44
   6   6   1    8.72    0.42
   7   6   1  106.28    4.08
   7   6   1  107.23    4.08
   7   6   1  107.89    4.13
   8   6   1   44.74    1.77
   8   6   1   42.52    1.72
   8   6   1   44.50    1.72
   9   6   1    1.99    0.17
   9   6   1    1.92    0.17
   9   6   1    1.83    0.24
 -10  -6  -1    1.38    0.17
  10   6   1    1.33    0.13
  10   6   1    1.12    0.12
  10   6   1    1.38    0.18
  11   6   1    1.54    0.12
  11   6   1    1.94    0.12
   6  -7  -1   15.60    0.61
   5  -7  -1    5.56    0.26
   5  -7  -1    5.42    0.28
   4  -7  -1   15.36    0.65
   4  -7  -1   15.29    0.63
   3  -7  -1    0.46    0.12
   3  -7  -1    0.73    0.14
   2  -7  -1   23.00    0.96
   2  -7  -1   23.91    0.94
   1  -7  -1    9.02    0.42
   1  -7  -1    8.84    0.40
   0  -7  -1   14.00    0.59
   0  -7  -1   14.10    0.60
  -1  -7  -1    2.70    0.22
   1   7   1    3.00    0.19
   2   7   1   11.21    0.48
   3   7   1   10.67    0.47
   3   7   1   11.11    0.49
   4   7   1    1.95    0.17
   4   7   1    2.31    0.20
   5   7   1    1.29    0.18
   5   7   1    1.49    0.19
   5   7   1    1.06    0.26
   5   7   1    1.34    0.15
   6   7   1    0.08    0.10
   6   7   1   -0.18    0.17
   6   7   1    0.13    0.07
   7   7   1    2.98    0.32
   7   7   1    2.75    0.20
   7   7   1    2.61    0.22
   8   7   1   -0.05    0.07
   8   7   1    0.21    0.09
   8   7   1    0.12    0.13
   9   7   1    4.22    0.24
   9   7   1    4.61    0.24
   9   7   1    4.67    0.31
 -10  -7  -1    0.36    0.09
  10   7   1    0.46    0.10
  10   7   1    0.22    0.10
  10   7   1    0.26    0.07
  -5   8   1    7.42    0.31
   4  -8  -1    1.05    0.13
  -4   8   1    1.14    0.10
   3  -8  -1    3.02    0.20
   3  -8  -1    3.04    0.19
  -3   8   1    2.93    0.18
   2  -8  -1    6.16    0.33
   2  -8  -1    6.72    0.31
  -2   8   1    6.46    0.31
   1  -8  -1    0.51    0.16
  -1   8   1    0.77    0.13
   0  -8  -1   41.45    1.61
   0   8   1   40.25    1.59
  -1  -8  -1    9.89    0.56
   1   8   1    8.39    0.40
   2   8   1   17.32    0.71
   3   8   1   30.46    1.18
   3   8   1   29.38    1.18
   4   8   1   21.24    0.85
   4   8   1   21.09    0.86
   5   8   1    0.28    0.11
   5   8   1    0.20    0.07
   6   8   1    9.99    0.61
   6   8   1   10.16    0.45
   6   8   1    9.92    0.46
   7   8   1    4.27    0.25
   7   8   1    4.33    0.27
   7   8   1    4.83    0.37
   8   8   1    3.56    0.22
   8   8   1    3.12    0.30
   8   8   1    3.60    0.21
  -9  -8  -1    3.23    0.20
   9   8   1    3.34    0.19
   9   8   1    3.04    0.19
   9   8   1    3.03    0.25
 -10  -8  -1    4.21    0.23
  10   8   1    4.48    0.22
  10   8   1    4.56    0.22
  -4   9   1    5.89    0.25
   3  -9  -1    1.11    0.17
  -3   9   1    0.93    0.10
   2  -9  -1    1.99    0.19
  -2   9   1    1.60    0.13
   1  -9  -1    7.84    0.39
  -1   9   1    7.87    0.35
   0  -9  -1   21.72    0.95
   0   9   1   24.66    0.93
   1   9   1   94.39    3.59
   2   9   1   13.22    0.56
   2   9   1   13.00    0.55
   3   9   1    5.30    0.29
   3   9   1    5.50    0.27
  -4  -9  -1   11.65    0.54
   4   9   1   11.87    0.50
   4   9   1   11.63    0.51
   5   9   1   11.79    0.50
   5   9   1   11.66    0.51
   6   9   1   10.98    0.48
   6   9   1   11.09    0.49
   7   9   1    6.25    0.31
   7   9   1    6.38    0.30
  -8  -9  -1    0.60    0.13
   8   9   1    0.48    0.11
   8   9   1    0.66    0.13
  -9  -9  -1    0.82    0.12
   9   9   1    0.70    0.12
   9   9   1    0.70    0.10
  -2  10   1    3.22    0.16
  -1  10   1   22.67    0.91
  -1  10   1   24.05    0.91
   0  10   1   18.46    0.74
   0  10   1   18.24    0.73
   1  10   1    0.09    0.08
   2  10   1    0.39    0.10
   2  10   1    0.24    0.06
   3  10   1   -0.05    0.05
   3  10   1    0.01    0.08
   4  10   1    1.32    0.15
   4  10   1    1.02    0.12
  -5 -10  -1    0.47    0.13
   5  10   1    0.42    0.10
   5  10   1    0.52    0.13
  -6 -10  -1    0.13    0.10
   6  10   1    0.17    0.06
   6  10   1    0.27    0.10
  -7 -10  -1    2.58    0.18
   7  10   1    2.59    0.15
   7  10   1    2.14    0.17
  -8 -10  -1    5.52    0.27
   8  10   1    5.53    0.27
   8  10   1    5.86    0.26
   0  11   1    2.79    0.15
   1  11   1    4.65    0.21
   2  11   1    0.53    0.09
   2  11   1    0.41    0.11
   3  11   1   -0.01    0.05
   3  11   1    0.03    0.09
   4  11   1    0.13    0.05
   4  11   1    0.16    0.09
   5  11   1    2.25    0.14
   5  11   1    2.22    0.19
   6  11   1    0.57    0.17
   7  11   1    5.27    0.24
   6  11  -2    3.60    0.19
   5  11  -2   55.40    2.11
   4  11  -2    0.28    0.07
   3  11  -2    6.92    0.31
   2  11  -2   16.12    0.64
   1  11  -2    0.06    0.06
   0  11  -2    0.93    0.11
   8  10  -2    3.52    0.18
  -8 -10   2    3.48    0.19
   7  10  -2    0.58    0.10
  -7 -10   2    0.50    0.12
   6  10  -2    0.75    0.12
   6  10  -2    0.87    0.22
  -6 -10   2    0.87    0.14
   5  10  -2    5.31    0.27
   5  10  -2    5.36    0.28
  -5 -10   2    5.28    0.29
   4  10  -2    3.68    0.21
   4  10  -2    3.48    0.21
   3  10  -2    5.21    0.26
   3  10  -2    4.97    0.26
   2  10  -2   11.04    0.47
   2  10  -2   10.82    0.46
   1  10  -2    0.45    0.12
   1  10  -2    0.71    0.11
   0  10  -2    0.42    0.12
   0  10  -2    0.58    0.11
  -1  10  -2    1.00    0.11
  -1  10  -2    1.04    0.13
  -2  10  -2   16.55    0.65
   9   9  -2    0.04    0.05
  -9  -9   2    0.05    0.06
   8   9  -2    0.72    0.10
   8   9  -2    0.52    0.14
  -8  -9   2    0.65    0.11
   7   9  -2   10.36    0.45
   7   9  -2   10.19    0.45
  -7  -9   2   10.35    0.46
   6   9  -2    0.72    0.14
   6   9  -2    0.62    0.12
  -6  -9   2    0.47    0.15
   5   9  -2    0.88    0.14
   5   9  -2    1.00    0.17
  -5  -9   2    1.04    0.19
   4   9  -2    0.07    0.09
   4   9  -2   -0.01    0.08
  -4  -9   2    0.02    0.12
   3   9  -2    1.55    0.17
   3   9  -2    1.35    0.16
   2   9  -2   -0.01    0.07
   2   9  -2    0.15    0.09
   1   9  -2    0.22    0.08
   0   9  -2   11.81    0.50
   0  -9   2   11.48    0.55
  -1   9  -2    0.08    0.06
   1  -9   2    0.11    0.12
  -2   9  -2    0.93    0.12
   2  -9   2    0.56    0.18
  -3   9  -2   -0.10    0.06
   3  -9   2    0.03    0.10
   9   8  -2    0.74    0.17
   9   8  -2    0.53    0.10
  -9  -8   2    0.49    0.11
   8   8  -2    6.40    0.31
   8   8  -2    6.27    0.30
  -8  -8   2    6.34    0.32
   7   8  -2   25.67    1.10
   7   8  -2   27.98    1.11
  -7  -8   2   29.47    1.12
   6   8  -2    1.02    0.15
   6   8  -2    0.71    0.18
  -6  -8   2    1.19    0.18
   5   8  -2    2.46    0.20
   5   8  -2    2.65    0.20
  -5  -8   2    2.00    0.22
   4   8  -2    5.69    0.30
   4   8  -2    5.84    0.30
  -4  -8   2    5.63    0.33
   3   8  -2    5.74    0.30
   3   8  -2    5.65    0.30
  -3  -8   2    5.56    0.34
   2   8  -2  102.27    3.88
   1   8  -2    8.90    0.42
  -1  -8   2    9.79    0.53
   0   8  -2    5.24    0.28
   0  -8   2    4.70    0.30
  -1   8  -2    8.70    0.40
   1  -8   2    8.50    0.42
  -2   8  -2    1.42    0.16
   2  -8   2    1.52    0.18
   2  -8   2    1.50    0.14
  -3   8  -2    4.77    0.24
   3  -8   2    4.50    0.23
   3  -8   2    4.51    0.27
  -4   8  -2    3.60    0.19
   4  -8   2    3.28    0.18
   4  -8   2    3.45    0.22
  -5   8  -2    0.94    0.11
   5  -8   2    0.83    0.16
  10   7  -2    8.12    0.34
  10   7  -2    8.73    0.45
 -10  -7   2    7.73    0.36
   9   7  -2    4.29    0.24
   9   7  -2    3.75    0.22
  -9  -7   2    4.25    0.24
   8   7  -2    0.37    0.10
   8   7  -2    0.42    0.12
  -8  -7   2    0.36    0.10
   7   7  -2    2.70    0.22
   7   7  -2    2.41    0.19
  -7  -7   2    2.11    0.22
   6   7  -2    5.26    0.30
   6   7  -2    4.78    0.45
   6   7  -2    5.20    0.29
   5   7  -2    4.23    0.26
   5   7  -2    4.05    0.25
   4   7  -2   15.93    0.67
   4   7  -2   16.30    0.68
   3   7  -2   31.76    1.25
   3   7  -2   32.62    1.26
  -3  -7   2   31.30    1.28
   2   7  -2  108.84    4.08
  -2  -7   2  106.78    4.10
   1   7  -2   23.93    0.98
  -1  -7   2   25.38    1.00
   0   7  -2   44.97    1.78
   0  -7   2   47.01    1.80
  -1   7  -2   29.89    1.19
   1  -7   2   29.72    1.19
   1  -7   2   31.06    1.21
   2  -7   2    4.76    0.25
   2  -7   2    4.81    0.28
   3  -7   2    3.02    0.19
   3  -7   2    2.59    0.20
   4  -7   2   22.47    0.99
   4  -7   2   26.26    0.97
   5  -7   2    9.21    0.42
   5  -7   2    8.93    0.39
  -6   7  -2   20.85    0.79
   6  -7   2   20.09    0.81
   6  -7   2   19.65    0.79
  10   6  -2    0.29    0.08
  10   6  -2    0.20    0.06
 -10  -6   2    0.60    0.20
   9   6  -2   11.82    0.51
   9   6  -2   12.25    0.52
  -9  -6   2   11.94    0.53
   8   6  -2   24.06    1.02
   8   6  -2   23.57    0.96
   8   6  -2   23.70    0.97
  -8  -6   2   23.90    0.98
   7   6  -2   -0.08    0.10
   7   6  -2   -0.13    0.15
   7   6  -2    0.01    0.09
   6   6  -2    0.08    0.09
   6   6  -2    0.02    0.10
   6   6  -2   -0.08    0.18
   5   6  -2    0.33    0.09
   5   6  -2    0.69    0.17
   5   6  -2    0.29    0.22
   4   6  -2    3.58    0.23
   4   6  -2    3.70    0.25
   3   6  -2   16.45    0.69
   3   6  -2   16.66    0.68
   2   6  -2    7.40    0.37
  -2  -6   2    7.84    0.42
   1   6  -2   10.13    0.47
  -1  -6   2   10.58    0.46
   0   6  -2   18.36    0.79
   0  -6   2   20.08    0.79
   0  -6   2   19.77    0.78
   1  -6   2   23.72    0.94
   1  -6   2   22.75    0.92
   2  -6   2    2.81    0.19
   2  -6   2    2.76    0.20
   3  -6   2   30.02    1.22
   3  -6   2   32.11    1.25
   4  -6   2    9.98    0.46
   4  -6   2    9.92    0.44
   5  -6   2    0.74    0.12
   5  -6   2    0.44    0.13
   6  -6   2    8.88    0.38
   6  -6   2    8.68    0.41
   7  -6   2   19.02    0.74
  10   5  -2    0.61    0.10
  10   5  -2    0.34    0.07
   9   5  -2    6.20    0.31
   9   5  -2    6.42    0.31
  -9  -5   2    6.03    0.33
   8   5  -2   16.99    0.72
   8   5  -2   17.49    0.78
   8   5  -2   16.93    0.72
  -8  -5   2   16.97    0.73
   7   5  -2    1.38    0.19
   7   5  -2    1.30    0.18
   6   5  -2    5.31    0.39
   6   5  -2    5.72    0.30
   6   5  -2    5.05    0.30
   5   5  -2   12.90    0.66
   5   5  -2   13.31    0.57
   5   5  -2   12.92    0.56
   4   5  -2  136.81    5.20
  -4  -5   2  138.55    5.33
  -3  -5   2   -0.11    0.18
  -2  -5   2   29.37    1.27
  -1  -5   2  149.33    5.75
  -1  -5   2  155.63    5.86
   0  -5   2   37.50    1.46
   0  -5   2   37.66    1.57
   1  -5   2    0.12    0.21
   1  -5   2    0.15    0.07
   1  -5   2    0.14    0.08
   2  -5   2    1.71    0.16
   2  -5   2    1.49    0.19
   2  -5   2    1.73    0.16
   3  -5   2    0.58    0.11
   3  -5   2    0.61    0.13
   3  -5   2    0.74    0.13
   4  -5   2   59.24    2.32
   4  -5   2   60.39    2.33
   4  -5   2   62.05    2.35
   5  -5   2    1.59    0.17
   5  -5   2    2.25    0.18
   5  -5   2    1.93    0.16
   6  -5   2    1.81    0.17
   6  -5   2    1.50    0.16
   6  -5   2    1.96    0.15
   7  -5   2    0.46    0.16
   8  -5   2   18.89    0.74
  11   4  -2    0.55    0.08
 -11  -4   2    0.38    0.11
  10   4  -2    3.64    0.21
  10   4  -2    3.86    0.20
   9   4  -2    4.58    0.27
   9   4  -2    5.95    0.28
   8   4  -2    2.44    0.28
   8   4  -2    2.27    0.19
   8   4  -2    2.66    0.22
  -8  -4   2    1.95    0.25
   7   4  -2    2.44    0.22
   7   4  -2    2.45    0.20
   7   4  -2    2.12    0.30
   6   4  -2    4.27    0.34
   6   4  -2    4.07    0.28
   6   4  -2    4.18    0.25
   5   4  -2   -0.06    0.10
   5   4  -2    0.06    0.10
   5   4  -2   -0.14    0.17
   4   4  -2  123.02    4.81
  -4  -4   2  127.37    4.81
   3   4  -2   14.67    0.69
  -3  -4   2   15.01    0.69
   2   4  -2   31.06    1.28
  -2  -4   2   31.87    1.29
   1   4  -2   42.07    1.69
  -1  -4   2   42.34    1.69
   0   4  -2    0.17    0.11
   0  -4   2    0.15    0.07
   0  -4   2    0.08    0.10
  -1   4  -2    1.40    0.26
   1  -4   2    1.38    0.13
   1  -4   2    1.57    0.23
   2  -4   2   41.25    1.68
   2  -4   2   41.05    1.60
   3  -4   2   22.59    0.91
   3  -4   2   22.46    0.90
   3  -4   2   22.77    0.91
   4  -4   2   89.53    3.46
   4  -4   2   89.22    3.44
   4  -4   2   92.95    3.45
   5  -4   2    2.37    0.19
   5  -4   2    2.21    0.17
   5  -4   2    2.00    0.19
   6  -4   2    1.33    0.14
   6  -4   2    1.41    0.16
   6  -4   2    1.44    0.17
   7  -4   2   28.38    1.20
   7  -4   2   31.26    1.19
   7  -4   2   30.80    1.18
   8  -4   2    0.57    0.10
   8  -4   2    0.43    0.08
   9  -4   2    6.18    0.26
  11   3  -2    0.54    0.13
  11   3  -2    0.50    0.07
 -11  -3   2    0.31    0.08
  10   3  -2   27.40    1.07
  10   3  -2   27.47    1.07
   9   3  -2    9.49    0.44
   9   3  -2    9.67    0.43
   8   3  -2    2.66    0.21
   8   3  -2    2.65    0.20
   8   3  -2    2.61    0.29
   7   3  -2    2.18    0.19
   7   3  -2    2.24    0.30
   7   3  -2    2.07    0.21
   6   3  -2   38.64    1.48
   6   3  -2   37.85    1.53
   6   3  -2   36.79    1.48
   5   3  -2   52.55    2.00
   5   3  -2   51.18    2.05
   4   3  -2   10.09    0.48
  -4  -3   2   10.16    0.48
   3   3  -2   23.22    0.93
  -3  -3   2   22.06    0.93
   2   3  -2    1.60    0.15
  -2  -3   2    1.68    0.16
   1   3  -2   26.74    1.05
  -1  -3   2   25.36    1.05
   0   3  -2  103.81    3.84
   0  -3   2   97.14    3.83
  -1   3  -2    8.38    0.40
   1  -3   2    7.77    0.35
   1  -3   2    8.36    0.39
  -2   3  -2    9.56    0.46
   2  -3   2    8.88    0.40
   2  -3   2    9.48    0.45
  -3   3  -2  110.22    4.26
   3  -3   2  111.64    4.21
   3  -3   2  111.29    4.25
   4  -3   2    8.59    0.42
   4  -3   2    9.14    0.40
   4  -3   2    8.33    0.39
   5  -3   2    8.43    0.40
   5  -3   2    8.50    0.38
   5  -3   2    8.03    0.39
   6  -3   2    8.56    0.41
   6  -3   2    8.30    0.38
   6  -3   2    8.31    0.40
   7  -3   2   59.63    2.40
   7  -3   2   63.75    2.39
   7  -3   2   63.07    2.39
   8  -3   2    1.57    0.13
   8  -3   2    1.68    0.13
   9  -3   2    0.40    0.08
   9  -3   2    0.29    0.07
  10   2  -2   21.58    0.84
  10   2  -2   21.43    0.84
 -10  -2   2   20.71    0.86
   9   2  -2    4.04    0.24
   9   2  -2    4.36    0.24
   8   2  -2    8.78    0.41
   8   2  -2    9.06    0.42
   7   2  -2    7.92    0.45
   7   2  -2    7.57    0.38
   7   2  -2    7.38    0.37
   6   2  -2    0.90    0.20
   6   2  -2    0.47    0.17
   6   2  -2    0.31    0.11
   3   2  -2  383.08   14.17
  -3  -2   2  367.18   14.10
   2   2  -2   75.70    2.83
  -2  -2   2   72.88    2.83
   1   2  -2   37.09    1.43
  -1  -2   2   36.94    1.44
   0   2  -2   48.70    1.82
   0  -2   2   45.88    1.82
  -1   2  -2   33.66    1.29
   1  -2   2   32.38    1.29
  -2   2  -2  214.36    8.05
   2  -2   2  212.52    8.05
  -3   2  -2   14.31    0.61
   3  -2   2   14.00    0.58
  -4   2  -2    3.33    0.29
   4  -2   2    3.78    0.21
   5  -2   2    8.17    0.38
   5  -2   2    8.07    0.39
   5  -2   2    8.12    0.37
   6  -2   2    5.13    0.29
   6  -2   2    5.37    0.27
   6  -2   2    5.04    0.28
   7  -2   2   -0.04    0.07
   7  -2   2   -0.01    0.11
   7  -2   2    0.03    0.07
   8  -2   2   -0.02    0.07
   8  -2   2    0.04    0.07
   9  -2   2    0.37    0.09
   9  -2   2    0.31    0.09
  10  -2   2    1.79    0.11
  10  -2   2    1.93    0.11
  10   1  -2    0.34    0.08
  10   1  -2    0.31    0.10
 -10  -1   2    0.30    0.10
   9   1  -2    3.90    0.21
   9   1  -2    3.84    0.22
   8   1  -2    0.58    0.15
   8   1  -2    0.75    0.13
   7   1  -2    0.06    0.09
   7   1  -2   -0.06    0.08
   6   1  -2    0.15    0.09
   6   1  -2    0.24    0.17
   6   1  -2    0.08    0.09
   3   1  -2  155.81    5.81
  -3  -1   2  153.57    5.81
   2   1  -2   14.96    0.61
  -2  -1   2   16.27    0.62
   1   1  -2   78.59    2.96
  -1  -1   2   77.83    2.96
   0   1  -2   55.75    2.07
   0  -1   2   52.71    2.06
  -1   1  -2   37.46    1.37
   1  -1   2   33.47    1.37
  -2   1  -2  333.80   12.08
   2  -1   2  307.46   12.09
  -3   1  -2    0.12    0.06
  -4   1  -2   15.71    0.65
  -4   1  -2   15.82    0.66
   4  -1   2   15.60    0.64
   5  -1   2  224.01    8.29
   5  -1   2  216.49    8.29
   6  -1   2    0.99    0.17
   6  -1   2    0.75    0.17
   6  -1   2    0.73    0.14
   7  -1   2    9.60    0.43
   7  -1   2    9.47    0.44
   8  -1   2    3.49    0.23
   8  -1   2    3.60    0.21
   9  -1   2    5.00    0.26
   9  -1   2    5.24    0.25
  10  -1   2    2.40    0.14
  10  -1   2    2.49    0.14
  10   0  -2    8.64    0.36
  10   0  -2    9.01    0.37
   9   0  -2    8.31    0.36
   9   0  -2    8.30    0.37
  -9   0   2    7.93    0.41
   8   0  -2   75.46    2.92
   8   0  -2   77.05    2.92
   7   0  -2   35.30    1.38
   7   0  -2   34.45    1.37
   6   0  -2    2.71    0.21
   6   0  -2    2.82    0.23
   6   0  -2    2.60    0.21
   5   0  -2    0.36    0.10
   5   0  -2    0.80    0.17
   5   0  -2    0.55    0.09
   4   0  -2   36.99    1.42
   2   0  -2  171.37    6.64
   2   0  -2  182.63    6.65
   1   0  -2  870.95   32.71
   0   0  -2  182.73    6.93
  -1   0  -2  191.86    7.24
  -2   0  -2  251.18    9.72
  -2   0  -2  261.24    9.69
  -3   0  -2   21.35    0.90
  -3   0  -2   24.26    0.91
  -4   0  -2   10.24    0.45
  -4   0  -2   10.91    0.47
  -5   0  -2   24.28    0.95
  -5   0  -2   24.03    1.05
   5   0   2   22.71    0.94
   6   0   2   11.76    0.51
   6   0   2   10.35    0.63
   6   0   2   11.94    0.50
   7   0   2   10.15    0.45
   7   0   2    9.79    0.58
   8   0   2    4.09    0.25
   8   0   2    4.52    0.24
   9   0   2   10.66    0.47
   9   0   2   10.90    0.47
  10   0   2   43.16    1.63
  10   0   2   41.91    1.64
  10  -1  -2   -0.01    0.04
  10  -1  -2    0.05    0.04
   9  -1  -2    0.61    0.09
   9  -1  -2    0.33    0.10
   8  -1  -2   21.10    0.83
   8  -1  -2   19.41    0.81
   7  -1  -2   18.43    0.77
   7  -1  -2   18.94    0.78
   6  -1  -2    0.89    0.15
   6  -1  -2    0.82    0.17
   6  -1  -2    1.17    0.16
   5  -1  -2   47.43    1.82
   5  -1  -2   45.85    1.81
   5  -1  -2   47.13    1.80
   4  -1  -2   11.75    0.49
   3  -1  -2  103.81    3.92
   2  -1  -2  505.56   18.96
   1  -1  -2  907.03   35.79
  -1   1   2 1000.00   35.82
   0  -1  -2   26.50    1.05
   0   1   2   28.40    1.06
  -1  -1  -2   68.29    2.61
   1   1   2   69.55    2.61
  -2  -1  -2  346.13   13.49
   2   1   2  367.43   13.52
  -3  -1  -2    4.65    0.22
  -4  -1  -2   87.99    3.35
  -5  -1  -2   87.10    3.29
  -5  -1  -2   84.49    3.27
   6   1   2    1.21    0.18
   6   1   2    1.18    0.19
   7   1   2    9.30    0.41
   7   1   2    8.72    0.49
   7   1   2    8.50    0.41
   8   1   2   19.77    0.84
   8   1   2   20.52    0.83
   8   1   2   20.70    0.90
   9   1   2    1.56    0.17
   9   1   2    1.83    0.16
   9   1   2    2.27    0.31
  10   1   2    1.57    0.13
  10   1   2    1.96    0.14
  11   1   2    0.10    0.05
  11   1   2    0.07    0.05
   9  -2  -2    3.58    0.18
   9  -2  -2    3.76    0.18
   8  -2  -2    0.75    0.12
   8  -2  -2    0.66    0.11
   7  -2  -2   12.23    0.55
   7  -2  -2   13.22    0.55
   7  -2  -2   12.52    0.54
   6  -2  -2   12.53    0.55
   6  -2  -2   12.70    0.55
   6  -2  -2   12.34    0.54
   5  -2  -2    0.99    0.17
   5  -2  -2    1.10    0.14
   5  -2  -2    1.39    0.18
   4  -2  -2    9.81    0.42
   4  -2  -2    9.61    0.45
   3  -2  -2    3.06    0.18
   2  -2  -2  149.09    5.85
  -2   2   2  162.25    5.86
   1  -2  -2   92.02    3.68
  -1   2   2  103.12    3.69
   0  -2  -2  212.17    8.18
   0   2   2  219.78    8.18
  -1  -2  -2  351.25   13.60
   1   2   2  365.88   13.64
  -2  -2  -2   33.74    1.35
   2   2   2   35.64    1.35
  -3  -2  -2   15.29    0.63
   3   2   2   15.11    0.63
  -4  -2  -2   10.82    0.49
   4   2   2   11.72    0.50
  -5  -2  -2  129.61    4.93
   6   2   2    1.46    0.27
   6   2   2    1.99    0.18
   6   2   2    1.71    0.20
   7   2   2   22.29    0.95
   7   2   2   21.66    0.90
   7   2   2   22.30    0.89
   8   2   2   59.46    2.32
   8   2   2   60.86    2.37
   8   2   2   60.03    2.32
   9   2   2    0.30    0.15
   9   2   2    0.08    0.06
   9   2   2    0.06    0.08
  10   2   2    4.67    0.24
  10   2   2    4.73    0.24
  11   2   2    9.97    0.42
  11   2   2   10.33    0.42
   9  -3  -2    5.29    0.23
   9  -3  -2    5.27    0.23
   8  -3  -2   23.05    0.90
   8  -3  -2   22.62    0.90
   7  -3  -2    1.17    0.13
   7  -3  -2    0.77    0.14
   7  -3  -2    1.08    0.16
   6  -3  -2    0.06    0.08
   6  -3  -2    0.04    0.08
   6  -3  -2    0.04    0.07
   5  -3  -2   60.95    2.40
   5  -3  -2   65.50    2.40
   5  -3  -2   60.31    2.39
   4  -3  -2    1.38    0.13
   4  -3  -2    1.22    0.17
   4  -3  -2    1.67    0.19
   3  -3  -2   20.13    0.80
   2  -3  -2   12.22    0.51
   2  -3  -2   12.56    0.53
  -2   3   2   12.62    0.54
   1  -3  -2   37.95    1.55
   1  -3  -2   41.03    1.57
  -1   3   2   42.21    1.58
   0  -3  -2   10.79    0.46
   0   3   2   10.45    0.47
  -1  -3  -2    3.20    0.18
   1   3   2    3.14    0.20
  -2  -3  -2   12.00    0.53
   2   3   2   12.45    0.54
  -3  -3  -2   55.81    2.18
   3   3   2   56.75    2.19
  -4  -3  -2   24.32    1.05
   4   3   2   27.07    1.06
  -5  -3  -2   56.76    2.17
   5   3   2   53.80    2.18
   6   3   2    0.99    0.25
   6   3   2    0.86    0.22
   6   3   2    0.91    0.15
   6   3   2    0.81    0.20
   7   3   2    2.01    0.19
   7   3   2    2.32    0.27
   7   3   2    1.76    0.20
   7   3   2    2.10    0.24
   8   3   2  150.59    5.63
   8   3   2  152.19    5.68
   8   3   2  146.58    5.63
   8   3   2  145.12    5.63
   9   3   2   20.33    0.82
   9   3   2   20.27    0.88
   9   3   2   19.52    0.82
  10   3   2    4.29    0.23
  10   3   2    4.43    0.24
  10   3   2    4.29    0.30
  11   3   2    1.28    0.11
  11   3   2    1.10    0.10
   8  -4  -2    1.74    0.12
   7  -4  -2    1.08    0.12
   7  -4  -2    1.31    0.12
   7  -4  -2    1.21    0.16
   6  -4  -2    4.81    0.25
   6  -4  -2    4.65    0.26
   6  -4  -2    4.75    0.26
   5  -4  -2   47.72    1.83
   5  -4  -2   45.39    1.82
   5  -4  -2   47.18    1.81
   4  -4  -2   10.41    0.46
   4  -4  -2    9.98    0.45
   4  -4  -2   10.37    0.46
   3  -4  -2    0.57    0.17
   3  -4  -2    1.01    0.12
   3  -4  -2    0.96    0.15
   2  -4  -2   47.43    1.80
   2  -4  -2   43.17    1.74
   1  -4  -2  109.62    4.04
   1  -4  -2  104.33    3.99
  -1   4   2  103.06    4.05
   0  -4  -2  137.19    5.43
   0  -4  -2  154.84    5.49
   0   4   2  140.59    5.49
  -1  -4  -2    6.66    0.34
   1   4   2    6.47    0.37
  -2  -4  -2  100.52    3.70
   2   4   2   92.25    3.71
  -3  -4  -2    9.74    0.46
   3   4   2    8.49    0.47
  -4  -4  -2   72.76    2.84
  -5  -4  -2   54.52    2.18
   6   4   2    0.95    0.15
   6   4   2    0.75    0.19
   6   4   2    0.61    0.16
   6   4   2    0.53    0.13
   7   4   2   10.83    0.47
   7   4   2    9.69    0.48
   7   4   2   10.38    0.53
   7   4   2   10.20    0.47
   8   4   2   84.88    3.18
   8   4   2   80.81    3.13
   8   4   2   78.19    3.13
   8   4   2   83.32    3.13
   9   4   2    2.31    0.19
   9   4   2    2.69    0.20
   9   4   2    2.16    0.27
  10   4   2    1.03    0.13
  10   4   2    0.78    0.12
  10   4   2    1.00    0.20
  11   4   2    0.21    0.05
  11   4   2    0.17    0.06
   7  -5  -2    2.21    0.19
   7  -5  -2    2.09    0.14
   6  -5  -2    1.93    0.16
   6  -5  -2    1.98    0.15
   6  -5  -2    1.89    0.15
   5  -5  -2    0.67    0.13
   5  -5  -2    0.52    0.11
   5  -5  -2    0.68    0.13
   4  -5  -2    5.46    0.29
   4  -5  -2    5.54    0.28
   4  -5  -2    5.04    0.29
   3  -5  -2    0.64    0.15
   3  -5  -2    0.63    0.12
   2  -5  -2   63.24    2.40
   2  -5  -2   64.90    2.41
   2  -5  -2   59.89    2.39
   1  -5  -2   10.75    0.60
   1  -5  -2   10.53    0.45
   0  -5  -2    0.31    0.14
   0  -5  -2    0.24    0.07
  -1  -5  -2    1.60    0.25
  -1  -5  -2    2.00    0.16
  -2  -5  -2   99.43    3.85
  -3  -5  -2   92.55    3.61
  -4  -5  -2   14.19    0.72
   5   5   2   17.68    0.79
   5   5   2   17.24    0.74
   5   5   2   17.63    0.72
   5   5   2   18.36    0.75
   6   5   2  188.82    7.14
   6   5   2  186.42    7.11
   6   5   2  189.33    7.10
   6   5   2  188.24    7.10
   7   5   2   16.52    0.69
   7   5   2   16.29    0.75
   7   5   2   16.84    0.70
   7   5   2   16.17    0.71
   8   5   2   13.06    0.58
   8   5   2   12.93    0.57
   8   5   2   13.36    0.63
   8   5   2   12.63    0.56
   9   5   2    0.20    0.08
   9   5   2    0.00    0.08
   9   5   2    0.02    0.13
  10   5   2    2.70    0.18
  10   5   2    2.87    0.24
  10   5   2    2.85    0.18
  11   5   2   13.24    0.54
  11   5   2   13.43    0.54
   7  -6  -2   14.46    0.59
   6  -6  -2   14.59    0.59
   6  -6  -2   13.60    0.57
   5  -6  -2   14.36    0.59
   5  -6  -2   14.05    0.61
   4  -6  -2    0.02    0.06
   4  -6  -2   -0.04    0.08
   3  -6  -2   11.45    0.50
   2  -6  -2    6.11    0.31
   2  -6  -2    6.28    0.31
   1  -6  -2    8.30    0.38
   1  -6  -2    8.27    0.39
   0  -6  -2   -0.07    0.10
   0  -6  -2   -0.06    0.07
  -1  -6  -2   13.81    0.56
   1   6   2   12.74    0.55
   2   6   2   35.22    1.37
   3   6   2   34.14    1.36
   3   6   2   33.49    1.36
   3   6   2   35.23    1.33
   4   6   2    0.11    0.12
   4   6   2   -0.03    0.21
   5   6   2    0.84    0.14
   5   6   2    0.82    0.18
   5   6   2    1.27    0.31
   5   6   2    1.42    0.21
   6   6   2    3.06    0.23
   6   6   2    2.76    0.20
   6   6   2    3.59    0.31
   6   6   2    3.27    0.26
   7   6   2    0.14    0.08
   7   6   2   -0.02    0.14
   7   6   2    0.41    0.13
   7   6   2    0.23    0.11
   8   6   2   26.47    1.12
   8   6   2   27.17    1.07
   8   6   2   26.33    1.07
   9   6   2    2.87    0.20
   9   6   2    2.63    0.20
   9   6   2    3.45    0.28
  10   6   2    7.35    0.33
  10   6   2    7.25    0.33
  10   6   2    7.22    0.38
  11   6   2    9.26    0.39
  11   6   2    9.55    0.39
  -6   7   2    0.00    0.04
   5  -7  -2    1.10    0.13
   5  -7  -2    1.04    0.14
   4  -7  -2    1.90    0.16
   4  -7  -2    1.51    0.15
   3  -7  -2   23.81    1.00
   3  -7  -2   25.46    0.98
   2  -7  -2   37.88    1.43
   2  -7  -2   35.53    1.45
   1  -7  -2    1.99    0.18
   1  -7  -2    1.99    0.18
   0  -7  -2    0.32    0.11
   0   7   2    0.19    0.07
  -1  -7  -2   39.02    1.54
   1   7   2   39.71    1.53
   2   7   2   26.02    1.03
   3   7   2    8.78    0.42
   3   7   2    9.20    0.40
   3   7   2    9.06    0.46
   4   7   2    1.69    0.20
   4   7   2    1.66    0.23
   4   7   2    1.54    0.15
   5   7   2    1.44    0.15
   5   7   2    1.81    0.36
   5   7   2    0.90    0.20
   5   7   2    1.08    0.20
   6   7   2    4.40    0.37
   6   7   2    4.84    0.29
   6   7   2    4.89    0.30
   7   7   2    6.06    0.33
   7   7   2    5.98    0.31
   7   7   2    6.44    0.33
   7   7   2    6.32    0.40
   8   7   2    0.24    0.08
   8   7   2    0.17    0.10
   8   7   2    0.20    0.14
   9   7   2    3.84    0.22
   9   7   2    4.08    0.23
   9   7   2    3.86    0.28
  10   7   2    2.62    0.21
  10   7   2    2.54    0.16
  10   7   2    2.37    0.17
  11   7   2    3.23    0.16
  -5   8   2    0.01    0.04
   4  -8  -2    6.62    0.32
  -4   8   2    6.60    0.29
   3  -8  -2    4.10    0.24
  -3   8   2    4.04    0.21
   2  -8  -2    9.58    0.45
  -2   8   2   10.07    0.43
   1  -8  -2   10.61    0.49
  -1   8   2   11.14    0.47
   0  -8  -2   12.61    0.56
   0   8   2   12.67    0.54
  -1  -8  -2    1.49    0.31
   1   8   2    1.35    0.14
   2   8   2    3.23    0.20
   2   8   2    3.24    0.24
   3   8   2    2.59    0.17
   3   8   2    2.40    0.22
   4   8   2   27.34    1.10
   4   8   2   28.05    1.10
   5   8   2    3.37    0.21
   5   8   2    3.55    0.25
   6   8   2   12.83    0.56
   6   8   2   12.15    0.65
   6   8   2   13.14    0.55
   7   8   2    0.30    0.17
   7   8   2    0.61    0.17
   7   8   2    0.15    0.07
   8   8   2    1.14    0.22
   8   8   2    1.47    0.13
   8   8   2    1.45    0.17
   9   8   2   38.30    1.46
   9   8   2   38.16    1.49
   9   8   2   36.64    1.46
 -10  -8  -2   10.79    0.45
  10   8   2   10.95    0.45
  10   8   2   10.70    0.45
   3  -9  -2    7.67    0.36
  -3   9   2    7.18    0.32
   2  -9  -2   12.57    0.55
  -2   9   2   12.73    0.52
   1  -9  -2    5.12    0.30
  -1   9   2    5.30    0.26
   0  -9  -2    0.29    0.15
   0   9   2    0.52    0.11
   1   9   2    0.78    0.12
   1   9   2    0.74    0.17
   2   9   2    1.98    0.21
   2   9   2    2.20    0.16
   3   9   2    0.72    0.11
   3   9   2    0.60    0.18
   4   9   2    0.70    0.17
   4   9   2    0.38    0.11
   5   9   2    0.30    0.12
   5   9   2    0.27    0.08
   6   9   2   35.50    1.35
   6   9   2   33.09    1.34
   7   9   2    1.94    0.19
   7   9   2    1.85    0.15
   8   9   2    5.52    0.27
   8   9   2    5.58    0.28
   8   9   2    5.71    0.40
  -9  -9  -2    6.03    0.28
   9   9   2    5.86    0.28
   9   9   2    5.92    0.27
  -2  10   2    5.65    0.24
  -1  10   2   15.26    0.61
   0  10   2   19.64    0.75
   0  10   2   18.00    0.76
   1  10   2    2.87    0.22
   1  10   2    3.13    0.17
   2  10   2    0.93    0.17
   2  10   2    0.96    0.10
   3  10   2    0.67    0.16
   4  10   2    8.07    0.35
   4  10   2    7.86    0.37
   5  10   2    4.01    0.25
   5  10   2    4.41    0.22
  -6 -10  -2    0.23    0.10
   6  10   2    0.14    0.11
   6  10   2    0.11    0.05
  -7 -10  -2    0.04    0.08
   7  10   2    0.27    0.11
   7  10   2    0.07    0.05
  -8 -10  -2    2.46    0.16
   8  10   2    2.40    0.14
   0  11   2   14.10    0.55
   1  11   2    0.55    0.08
   2  11   2    0.65    0.09
   3  11   2    3.64    0.18
   4  11   2   29.15    1.13
   5  11   2    1.64    0.12
   6  11   2    1.79    0.12
   7  11   2   16.74    0.66
   5  11  -3    6.89    0.30
   4  11  -3    0.53    0.09
   3  11  -3    2.17    0.14
   2  11  -3   -0.02    0.06
   1  11  -3    3.54    0.18
   7  10  -3    1.04    0.11
  -7 -10   3    1.10    0.13
   6  10  -3    0.25    0.07
  -6 -10   3    0.24    0.09
   5  10  -3    1.14    0.12
  -5 -10   3    1.53    0.18
   4  10  -3   -0.05    0.06
   3  10  -3    8.50    0.38
   2  10  -3    0.63    0.12
   1  10  -3    6.00    0.28
   0  10  -3    4.70    0.24
  -1  10  -3    2.24    0.15
  -2  10  -3    0.26    0.06
   8   9  -3   16.72    0.66
  -8  -9   3   16.23    0.67
   7   9  -3    1.12    0.13
  -7  -9   3    1.22    0.14
   6   9  -3    0.58    0.12
   5   9  -3    1.82    0.16
  -5  -9   3    1.88    0.18
   4   9  -3   15.08    0.68
   4   9  -3   16.46    0.66
  -4  -9   3   15.38    0.67
   3   9  -3   31.92    1.29
   3   9  -3   34.25    1.31
   2   9  -3    5.49    0.29
   2   9  -3    5.69    0.30
   1   9  -3    7.38    0.35
   1   9  -3    7.40    0.36
   0   9  -3    8.37    0.38
  -1   9  -3    0.18    0.09
   1  -9   3    0.28    0.13
  -2   9  -3    7.51    0.35
   2  -9   3    8.00    0.39
   3  -9   3    2.13    0.20
   9   8  -3   -0.02    0.05
  -9  -8   3    0.06    0.07
  -9  -8   3    0.06    0.12
   8   8  -3    0.05    0.06
  -8  -8   3    0.16    0.14
  -8  -8   3    0.10    0.07
   7   8  -3    0.43    0.13
   7   8  -3    0.67    0.21
  -7  -8   3    0.42    0.14
   6   8  -3    0.86    0.21
   6   8  -3    0.34    0.09
  -6  -8   3    0.05    0.10
   5   8  -3    2.05    0.18
   5   8  -3    2.26    0.23
  -5  -8   3    2.13    0.21
   4   8  -3    2.18    0.22
   4   8  -3    2.08    0.19
  -4  -8   3    2.31    0.22
   3   8  -3   47.07    1.89
   3   8  -3   50.60    1.90
  -3  -8   3   48.97    1.91
   2   8  -3  137.38    5.18
   2   8  -3  136.45    5.19
   1   8  -3   23.75    1.02
  -1  -8   3   27.57    1.10
   0   8  -3    4.52    0.27
   0  -8   3    4.55    0.29
  -1   8  -3    0.68    0.18
   1  -8   3    0.99    0.18
  -2   8  -3    3.51    0.22
   2  -8   3    2.82    0.23
  -3   8  -3    9.22    0.41
   3  -8   3    9.57    0.44
  -4   8  -3   30.51    1.19
   4  -8   3   31.09    1.22
  10   7  -3    6.61    0.28
 -10  -7   3    6.25    0.30
   9   7  -3    1.63    0.13
  -9  -7   3    1.53    0.15
   8   7  -3    1.80    0.21
   8   7  -3    1.62    0.15
  -8  -7   3    1.50    0.17
   7   7  -3    0.15    0.09
   7   7  -3    0.10    0.11
  -7  -7   3    0.06    0.10
   6   7  -3    2.00    0.18
   6   7  -3    2.01    0.23
  -6  -7   3    1.74    0.21
   5   7  -3    0.85    0.15
   5   7  -3    1.20    0.21
  -5  -7   3    0.96    0.19
   4   7  -3   12.38    0.56
   4   7  -3   12.68    0.55
  -4  -7   3   13.24    0.58
   3   7  -3   29.12    1.15
   3   7  -3   27.59    1.14
  -3  -7   3   29.77    1.17
   2   7  -3   67.73    2.60
  -2  -7   3   68.17    2.62
   1   7  -3   -0.10    0.10
  -1  -7   3    0.16    0.11
   0   7  -3    0.20    0.11
   0  -7   3    0.22    0.11
  -1   7  -3    1.13    0.18
   1  -7   3    0.71    0.17
   1  -7   3    1.03    0.14
   2  -7   3    0.03    0.07
   2  -7   3   -0.04    0.08
   3  -7   3   31.34    1.16
   3  -7   3   27.22    1.18
   4  -7   3    8.66    0.38
   4  -7   3    8.13    0.40
   5  -7   3    0.02    0.05
   5  -7   3    0.05    0.08
  -6   7  -3    7.55    0.32
   6  -7   3    6.87    0.31
   6  -7   3    7.75    0.35
  10   6  -3    0.99    0.11
 -10  -6   3    1.08    0.14
   9   6  -3   12.29    0.52
   9   6  -3   12.08    0.51
  -9  -6   3   11.81    0.52
   8   6  -3    1.52    0.16
   8   6  -3    1.33    0.20
  -8  -6   3    1.26    0.18
   7   6  -3    5.78    0.31
   7   6  -3    5.57    0.33
  -7  -6   3    5.47    0.32
   6   6  -3   27.54    1.16
   6   6  -3   29.68    1.16
  -6  -6   3   29.79    1.18
   5   6  -3   43.19    1.90
   5   6  -3   47.20    1.85
   5   6  -3   48.82    1.85
  -5  -6   3   51.02    1.87
   4   6  -3    3.48    0.28
   4   6  -3    3.99    0.24
  -4  -6   3    3.64    0.27
   3   6  -3   18.89    0.82
   3   6  -3   20.58    0.81
  -3  -6   3   20.59    0.84
   2   6  -3    4.08    0.34
  -2  -6   3    4.67    0.31
   1   6  -3   13.65    0.63
  -1  -6   3   14.82    0.67
  -1  -6   3   16.44    0.64
   0   6  -3    9.12    0.46
   0  -6   3   10.11    0.45
   0  -6   3   10.61    0.44
   1  -6   3   16.41    0.68
   1  -6   3   16.99    0.71
   2  -6   3    7.07    0.35
   2  -6   3    6.30    0.32
   3  -6   3    0.26    0.08
   4  -6   3   -0.01    0.08
   4  -6   3    0.10    0.08
   5  -6   3    0.07    0.08
   5  -6   3    0.14    0.07
   6  -6   3    0.18    0.06
   6  -6   3    0.07    0.09
   7  -6   3   11.38    0.46
  10   5  -3    1.33    0.17
  10   5  -3    1.44    0.11
   9   5  -3    0.28    0.09
   9   5  -3    0.17    0.07
  -9  -5   3    0.39    0.12
   8   5  -3    1.31    0.20
   8   5  -3    1.45    0.16
  -8  -5   3    1.59    0.21
   7   5  -3   24.59    0.98
   7   5  -3   23.29    0.98
  -7  -5   3   24.12    0.99
   6   5  -3    3.03    0.34
   6   5  -3    3.55    0.24
   6   5  -3    3.17    0.27
  -6  -5   3    3.38    0.26
   5   5  -3    8.86    0.56
   5   5  -3    9.85    0.44
   5   5  -3    9.34    0.45
   4   5  -3    3.33    0.46
   4   5  -3    4.54    0.25
   3   5  -3   24.95    0.98
  -3  -5   3   24.47    1.16
  -2  -5   3   33.64    1.46
  -2  -5   3   33.38    1.31
  -1  -5   3   42.72    1.62
  -1  -5   3   41.31    1.76
   0  -5   3   -0.05    0.20
   0  -5   3    0.07    0.06
   0  -5   3    0.03    0.09
   1  -5   3   41.62    1.62
   1  -5   3   42.58    1.64
   2  -5   3   42.18    1.67
   2  -5   3   44.44    1.69
   3  -5   3   86.81    3.20
   3  -5   3   83.06    3.17
   3  -5   3   80.31    3.17
   4  -5   3    1.04    0.18
   4  -5   3    1.14    0.14
   4  -5   3    1.14    0.16
   5  -5   3    2.63    0.18
   5  -5   3    2.31    0.20
   5  -5   3    2.89    0.20
   6  -5   3   58.25    2.20
   6  -5   3   59.06    2.20
   6  -5   3   54.51    2.22
   7  -5   3    0.64    0.15
   7  -5   3    0.44    0.09
   8  -5   3    5.37    0.23
  10   4  -3    1.38    0.14
  10   4  -3    1.35    0.11
   9   4  -3    6.13    0.30
   9   4  -3    6.14    0.31
   8   4  -3   25.72    1.02
   8   4  -3   26.31    1.03
  -8  -4   3   24.21    1.04
   7   4  -3   27.98    1.16
   7   4  -3   29.64    1.22
   7   4  -3   29.04    1.16
  -7  -4   3   29.32    1.17
   6   4  -3    1.45    0.23
   6   4  -3    1.19    0.29
   6   4  -3    1.33    0.17
  -6  -4   3    1.48    0.22
   5   4  -3    5.68    0.44
   5   4  -3    6.22    0.32
   5   4  -3    6.03    0.36
   4   4  -3   10.17    0.46
  -4  -4   3   10.49    0.59
  -3  -4   3    7.23    0.45
   2   4  -3    6.37    0.40
  -2  -4   3    6.42    0.40
   1   4  -3    2.98    0.29
  -1  -4   3    3.20    0.29
  -1  -4   3    3.21    0.19
   0  -4   3   91.35    3.50
   0  -4   3   93.60    3.59
   1  -4   3  145.78    5.49
   1  -4   3  145.05    5.57
   2  -4   3    4.62    0.26
   2  -4   3    5.86    0.44
   3  -4   3   15.04    0.62
   3  -4   3   13.71    0.83
   3  -4   3   14.72    0.63
   3  -4   3   15.21    0.61
   4  -4   3    4.80    0.28
   4  -4   3    4.77    0.27
   4  -4   3    4.49    0.25
   5  -4   3   15.69    0.65
   5  -4   3   16.14    0.68
   5  -4   3   15.50    0.66
   6  -4   3   62.60    2.36
   6  -4   3   62.65    2.37
   6  -4   3   59.35    2.38
   7  -4   3    2.66    0.17
   7  -4   3    2.37    0.20
   7  -4   3    2.36    0.17
   8  -4   3    0.04    0.04
   8  -4   3    0.32    0.15
   8  -4   3    0.08    0.05
   9  -4   3    5.62    0.24
  10   3  -3    8.67    0.38
  10   3  -3    8.97    0.37
 -10  -3   3    8.63    0.40
   9   3  -3    0.32    0.08
   9   3  -3    0.05    0.07
   8   3  -3   10.04    0.45
   8   3  -3    9.28    0.44
   7   3  -3   33.20    1.29
   7   3  -3   34.03    1.30
  -7  -3   3   30.54    1.30
   6   3  -3    0.49    0.13
   6   3  -3    0.75    0.16
   6   3  -3    0.57    0.17
  -6  -3   3    0.34    0.16
   5   3  -3   21.14    0.97
   5   3  -3   23.56    0.91
   4   3  -3   16.25    0.73
  -4  -3   3   17.13    0.74
   3   3  -3   40.70    1.61
  -3  -3   3   40.89    1.62
   2   3  -3   36.31    1.45
  -2  -3   3   36.45    1.45
   1   3  -3   79.00    3.05
  -1  -3   3   79.82    3.06
   0   3  -3  214.77    7.16
   0  -3   3  163.06    7.15
  -1   3  -3    0.40    0.17
   1  -3   3    0.39    0.08
  -2   3  -3   27.07    1.17
   2  -3   3   28.68    1.17
   2  -3   3   28.82    1.11
  -3   3  -3    3.43    0.38
   3  -3   3    3.33    0.20
   3  -3   3    3.42    0.33
   4  -3   3    6.06    0.30
   4  -3   3    5.71    0.33
   4  -3   3    5.69    0.30
   5  -3   3    4.39    0.27
   5  -3   3    4.26    0.24
   5  -3   3    4.56    0.26
   6  -3   3    3.18    0.21
   6  -3   3    3.38    0.23
   6  -3   3    3.20    0.23
   7  -3   3   19.34    0.78
   7  -3   3   19.64    0.79
   7  -3   3   18.50    0.80
   8  -3   3    3.40    0.19
   8  -3   3    3.39    0.28
   8  -3   3    3.33    0.19
   9  -3   3    8.60    0.36
   9  -3   3    8.57    0.36
  10   2  -3    0.08    0.06
  10   2  -3   -0.02    0.05
 -10  -2   3   -0.07    0.07
   9   2  -3    3.50    0.20
   9   2  -3    3.53    0.21
   8   2  -3    0.48    0.14
   8   2  -3    0.37    0.10
   7   2  -3   20.53    0.85
   7   2  -3   20.83    0.85
   6   2  -3    6.70    0.41
   6   2  -3    6.64    0.33
   6   2  -3    6.57    0.35
  -6  -2   3    5.00    0.44
   5   2  -3   23.66    0.95
   5   2  -3   23.20    1.01
   4   2  -3   79.53    3.09
  -4  -2   3   83.24    3.10
   3   2  -3   23.87    0.97
  -3  -2   3   24.96    0.98
   2   2  -3   13.66    0.58
  -2  -2   3   14.10    0.59
   1   2  -3  197.91    7.27
  -1  -2   3  187.57    7.27
   0   2  -3  293.71   11.26
   0  -2   3  304.98   11.35
  -1   2  -3    7.68    0.36
   1  -2   3    7.14    0.35
  -2   2  -3    0.58    0.16
   2  -2   3    0.65    0.11
   2  -2   3    0.56    0.12
  -3   2  -3    5.36    0.33
   3  -2   3    5.25    0.26
  -4   2  -3   41.31    1.74
   4  -2   3   45.22    1.68
   5  -2   3   52.85    2.06
   5  -2   3   54.61    2.07
   5  -2   3   53.47    2.07
   6  -2   3   20.16    0.79
   6  -2   3   19.64    0.79
   6  -2   3   17.14    0.77
   7  -2   3    0.60    0.13
   7  -2   3    0.85    0.16
   8  -2   3   12.75    0.53
   8  -2   3   12.57    0.54
   9  -2   3    0.47    0.09
  10  -2   3    0.53    0.09
  10  -2   3    0.56    0.07
  10   1  -3   44.38    1.64
  10   1  -3   42.77    1.64
 -10  -1   3   41.64    1.65
   9   1  -3    4.66    0.23
   9   1  -3    4.53    0.24
  -9  -1   3    4.40    0.28
   8   1  -3   12.66    0.56
   8   1  -3   13.26    0.56
   7   1  -3    1.22    0.19
   7   1  -3    1.69    0.17
   6   1  -3   10.94    0.50
   6   1  -3   11.07    0.49
   5   1  -3   49.11    1.90
   5   1  -3   49.44    1.96
   4   1  -3   15.01    0.61
   3   1  -3    8.04    0.33
   2   1  -3    1.49    0.11
  -2  -1   3    1.74    0.12
   1   1  -3   54.13    2.01
  -1  -1   3   51.06    2.02
   0   1  -3  102.94    3.72
   0  -1   3   93.10    3.72
  -1   1  -3    4.41    0.23
   1  -1   3    4.47    0.23
  -2   1  -3   41.71    1.63
  -3   1  -3    0.53    0.15
   3  -1   3    0.39    0.11
  -4   1  -3   67.69    2.58
  -4   1  -3   65.52    2.59
   4  -1   3   67.42    2.55
   5  -1   3   69.11    2.65
   5  -1   3   69.65    2.65
   6  -1   3   18.44    0.78
   6  -1   3   18.87    0.77
   6  -1   3   19.25    0.78
   7  -1   3   11.25    0.49
   7  -1   3   11.45    0.50
   8  -1   3   34.76    1.34
   8  -1   3   33.51    1.34
   9  -1   3   22.61    0.90
   9  -1   3   22.38    0.89
  10  -1   3    0.38    0.09
  10  -1   3    0.36    0.08
  10   0  -3    4.53    0.21
  10   0  -3    4.69    0.21
   9   0  -3    1.69    0.12
   9   0  -3    1.67    0.13
  -9   0   3    1.08    0.20
   8   0  -3   11.17    0.49
   8   0  -3   11.39    0.50
  -8   0   3   11.27    0.54
   7   0  -3    4.23    0.26
   7   0  -3    3.91    0.24
   6   0  -3   39.19    1.48
   6   0  -3   36.90    1.47
   6   0  -3   36.98    1.47
   5   0  -3   34.81    1.36
   5   0  -3   34.55    1.33
   5   0  -3   33.28    1.34
   4   0  -3   22.41    0.89
   3   0  -3    6.30    0.28
   2   0  -3   20.55    0.78
   2   0  -3   19.93    0.78
   1   0  -3  195.84    7.36
   0   0  -3  431.74   16.36
  -1   0  -3   22.67    0.90
  -2   0  -3   14.08    0.59
  -3   0  -3    0.09    0.05
  -3   0  -3    0.09    0.07
  -4   0  -3   16.53    0.71
  -4   0  -3   16.47    0.69
  -5   0  -3   17.10    0.80
  -5   0  -3   18.87    0.77
   5   0   3   17.13    0.72
   6   0   3    0.06    0.23
   6   0   3    0.05    0.10
   7   0   3    2.10    0.41
   7   0   3    2.10    0.19
   7   0   3    2.19    0.19
   8   0   3    1.95    0.17
   8   0   3    2.01    0.18
   9   0   3   15.83    0.64
   9   0   3   15.30    0.65
  10   0   3   10.60    0.45
  10   0   3   10.77    0.44
  11   0   3    0.81    0.09
  11   0   3    1.05    0.09
   9  -1  -3    3.73    0.20
   9  -1  -3    3.78    0.19
   8  -1  -3    0.64    0.12
   8  -1  -3    0.61    0.13
  -8   1   3    0.48    0.15
   7  -1  -3    1.71    0.18
   7  -1  -3    1.61    0.17
  -7   1   3    1.73    0.31
   6  -1  -3   74.70    2.87
   6  -1  -3   76.77    2.89
   6  -1  -3   74.27    2.88
   5  -1  -3    0.03    0.10
   5  -1  -3    0.19    0.08
   5  -1  -3    0.18    0.10
   4  -1  -3    8.22    0.36
   3  -1  -3    4.48    0.22
   2  -1  -3   13.14    0.55
   2  -1  -3   15.07    0.55
   1  -1  -3  600.50   22.61
   0  -1  -3   27.82    1.08
  -1  -1  -3   25.40    1.00
  -2  -1  -3    1.01    0.10
  -3  -1  -3   19.39    0.79
  -4  -1  -3  401.85   14.68
  -4  -1  -3  378.28   14.66
  -5  -1  -3   19.41    0.85
  -5  -1  -3   19.25    0.82
   6   1   3   85.70    3.25
   6   1   3   84.44    3.28
   6   1   3   85.49    3.24
   7   1   3   17.97    0.74
   7   1   3   17.22    0.74
   7   1   3   18.58    0.81
   8   1   3    4.13    0.25
   8   1   3    4.88    0.26
   8   1   3    3.98    0.38
   9   1   3    0.53    0.13
   9   1   3    0.55    0.19
   9   1   3    0.57    0.12
  10   1   3    3.53    0.20
  10   1   3    3.43    0.19
  11   1   3    9.33    0.38
  11   1   3    9.28    0.38
   9  -2  -3    5.63    0.24
   9  -2  -3    4.90    0.23
   8  -2  -3    2.80    0.17
   8  -2  -3    2.57    0.17
   7  -2  -3   11.83    0.50
   7  -2  -3   11.64    0.51
   7  -2  -3   10.95    0.51
   6  -2  -3   33.62    1.27
   6  -2  -3   30.28    1.26
   6  -2  -3   32.06    1.27
   5  -2  -3  112.73    4.16
   5  -2  -3  114.98    4.16
   5  -2  -3  106.44    4.15
  -5   2   3  103.56    4.19
   4  -2  -3    1.79    0.21
   4  -2  -3    1.45    0.21
   4  -2  -3    1.99    0.14
   3  -2  -3    1.61    0.13
   2  -2  -3   71.53    2.74
   2  -2  -3   73.14    2.74
   1  -2  -3  334.94   12.80
  -1   2   3  344.34   12.76
   0  -2  -3  208.67    7.97
   0   2   3  212.50    7.93
  -1  -2  -3    2.42    0.15
   1   2   3    2.37    0.16
  -2  -2  -3    7.68    0.35
   2   2   3    7.90    0.36
  -3  -2  -3   36.85    1.48
   3   2   3   38.87    1.49
  -4  -2  -3  120.41    4.59
  -5  -2  -3   18.82    0.81
   6   2   3   29.76    1.16
   6   2   3   30.06    1.20
   6   2   3   27.82    1.19
   6   2   3   29.55    1.16
   7   2   3   14.64    0.63
   7   2   3   15.10    0.68
   7   2   3   13.73    0.66
   7   2   3   15.44    0.63
   8   2   3    4.86    0.36
   8   2   3    4.75    0.28
   8   2   3    4.59    0.27
   9   2   3    3.07    0.21
   9   2   3    2.86    0.21
   9   2   3    3.43    0.31
  10   2   3    2.43    0.26
  10   2   3    2.39    0.16
  10   2   3    2.19    0.16
  11   2   3   17.32    0.65
  11   2   3   15.40    0.64
   8  -3  -3    0.20    0.06
   8  -3  -3    0.17    0.05
   7  -3  -3   28.97    1.18
   7  -3  -3   32.71    1.18
   7  -3  -3   27.78    1.17
   6  -3  -3    1.73    0.16
   6  -3  -3    1.62    0.16
   6  -3  -3    1.54    0.17
   5  -3  -3    9.54    0.44
   5  -3  -3    9.40    0.43
   5  -3  -3    9.66    0.44
   4  -3  -3    1.51    0.19
   4  -3  -3    1.54    0.14
   4  -3  -3    1.72    0.19
   3  -3  -3    0.01    0.09
   3  -3  -3    0.18    0.06
   2  -3  -3   96.09    3.58
   2  -3  -3   92.95    3.59
   1  -3  -3   13.80    0.58
   1  -3  -3   14.31    0.61
  -1   3   3   15.27    0.62
   0  -3  -3    7.87    0.37
   0   3   3    8.14    0.39
  -1  -3  -3  161.81    6.18
   1   3   3  164.99    6.19
  -2  -3  -3   31.61    1.25
   2   3   3   30.89    1.26
  -3  -3  -3    1.29    0.15
   3   3   3    1.19    0.17
  -4  -3  -3    2.69    0.22
   4   3   3    3.05    0.28
  -5  -3  -3   67.51    2.65
   6   3   3   17.28    0.75
   6   3   3   17.83    0.70
   6   3   3   16.41    0.71
   6   3   3   15.91    0.72
   7   3   3    3.78    0.24
   7   3   3    3.69    0.30
   7   3   3    4.39    0.26
   7   3   3    3.26    0.27
   8   3   3    1.36    0.24
   8   3   3    1.12    0.17
   8   3   3    1.37    0.27
   8   3   3    1.37    0.18
   9   3   3    2.60    0.19
   9   3   3    2.28    0.20
   9   3   3    2.97    0.28
  10   3   3   10.79    0.46
  10   3   3   10.78    0.47
  10   3   3   10.60    0.51
  11   3   3   15.18    0.60
  11   3   3   15.04    0.61
   8  -4  -3   -0.01    0.06
   7  -4  -3    4.57    0.23
   7  -4  -3    4.82    0.23
   7  -4  -3    4.93    0.27
   6  -4  -3    2.92    0.19
   6  -4  -3    2.95    0.19
   6  -4  -3    2.70    0.20
   5  -4  -3    0.76    0.15
   5  -4  -3    1.17    0.15
   5  -4  -3    1.04    0.14
   4  -4  -3    2.92    0.21
   4  -4  -3    2.75    0.19
   4  -4  -3    2.94    0.21
   3  -4  -3  106.77    3.88
   3  -4  -3   97.67    3.87
   2  -4  -3    2.18    0.18
   2  -4  -3    2.10    0.14
   1  -4  -3    7.82    0.41
   1  -4  -3    7.66    0.34
  -1   4   3    7.26    0.46
   0  -4  -3    3.72    0.20
   0  -4  -3    3.80    0.25
   0   4   3    3.49    0.31
  -1  -4  -3  182.05    6.49
  -1  -4  -3  161.02    6.43
   1   4   3  168.92    6.50
  -2  -4  -3   20.85    0.87
   2   4   3   20.11    0.89
  -3  -4  -3    2.33    0.23
   3   4   3    1.67    0.26
  -4  -4  -3   59.27    2.34
  -5  -4  -3   41.33    1.64
   5   4   3   38.69    1.52
   5   4   3   38.93    1.56
   5   4   3   38.63    1.54
   6   4   3   31.06    1.19
   6   4   3   30.13    1.20
   6   4   3   29.78    1.23
   6   4   3   29.13    1.20
   7   4   3   19.30    0.79
   7   4   3   18.71    0.79
   7   4   3   18.71    0.78
   8   4   3   21.19    0.87
   8   4   3   20.83    0.92
   8   4   3   21.11    0.86
   8   4   3   20.86    0.86
   9   4   3    1.69    0.25
   9   4   3    1.53    0.17
   9   4   3    1.39    0.18
  10   4   3    4.98    0.26
  10   4   3    5.38    0.32
  10   4   3    5.22    0.26
  11   4   3    2.04    0.14
  11   4   3    2.05    0.13
   7  -5  -3   11.90    0.50
   7  -5  -3   11.08    0.47
   6  -5  -3    0.07    0.07
   6  -5  -3    0.08    0.08
   5  -5  -3    9.90    0.43
   5  -5  -3    9.65    0.44
   4  -5  -3   24.31    0.93
   4  -5  -3   23.83    0.92
   4  -5  -3   20.67    0.93
   3  -5  -3    0.78    0.17
   3  -5  -3    0.72    0.14
   2  -5  -3   35.03    1.43
   2  -5  -3   38.81    1.44
   2  -5  -3   37.00    1.44
   1  -5  -3    0.09    0.06
   0  -5  -3    6.21    0.29
   0  -5  -3    5.69    0.43
  -1  -5  -3   31.55    1.26
  -1  -5  -3   33.33    1.36
  -2  -5  -3    7.10    0.43
  -3  -5  -3   20.80    0.95
   4   5   3    3.12    0.20
   4   5   3    2.52    0.25
   5   5   3   33.05    1.31
   5   5   3   31.67    1.32
   5   5   3   34.08    1.34
   5   5   3   33.48    1.29
   6   5   3   23.05    0.92
   6   5   3   22.55    0.96
   6   5   3   21.76    0.92
   6   5   3   22.18    0.90
   7   5   3  100.38    3.90
   7   5   3  104.26    3.94
   7   5   3  102.98    3.89
   7   5   3  101.55    3.89
   8   5   3   21.36    0.89
   8   5   3   21.77    0.89
   8   5   3   21.77    0.94
   8   5   3   21.91    0.90
   9   5   3   23.06    0.92
   9   5   3   22.15    0.93
   9   5   3   23.49    0.98
  10   5   3    2.60    0.18
  10   5   3    2.77    0.23
  10   5   3    2.99    0.18
  11   5   3    0.54    0.09
  11   5   3    0.81    0.12
  11   5   3    0.55    0.15
   6  -6  -3    3.46    0.20
   6  -6  -3    4.10    0.23
   5  -6  -3    0.75    0.13
   5  -6  -3    0.58    0.13
   4  -6  -3   32.39    1.24
   4  -6  -3   31.03    1.26
   3  -6  -3    8.28    0.39
   2  -6  -3    0.83    0.14
   2  -6  -3    0.69    0.13
   1  -6  -3   34.09    1.28
   1  -6  -3   30.91    1.27
   0  -6  -3   42.63    1.57
   0  -6  -3   38.20    1.57
  -1  -6  -3   57.09    2.18
   1   6   3   56.61    2.18
   2   6   3    1.79    0.16
   3   6   3    9.91    0.43
   3   6   3    9.81    0.48
   4   6   3   22.69    0.85
   4   6   3   19.64    0.90
   4   6   3   21.16    0.92
   4   6   3   21.13    0.88
   5   6   3    4.47    0.27
   5   6   3    4.28    0.23
   5   6   3    3.54    0.34
   5   6   3    4.04    0.30
   6   6   3    0.27    0.16
   6   6   3    0.16    0.07
   6   6   3    0.12    0.11
   6   6   3    0.24    0.14
   7   6   3    3.33    0.30
   7   6   3    3.34    0.21
   7   6   3    3.25    0.24
   7   6   3    3.27    0.26
   8   6   3   13.96    0.66
   8   6   3   13.85    0.62
   8   6   3   14.18    0.60
   8   6   3   13.97    0.60
   9   6   3    5.24    0.34
   9   6   3    5.02    0.27
   9   6   3    5.11    0.28
  10   6   3    4.31    0.23
  10   6   3    4.38    0.27
  10   6   3    4.38    0.23
  11   6   3    0.74    0.16
  11   6   3    0.63    0.14
  11   6   3    0.53    0.08
   5  -7  -3    5.28    0.26
   5  -7  -3    4.62    0.25
   4  -7  -3    0.08    0.09
   4  -7  -3   -0.03    0.07
   3  -7  -3    2.93    0.21
   3  -7  -3    2.69    0.19
   2  -7  -3    3.51    0.23
   2  -7  -3    3.81    0.24
   1  -7  -3    0.32    0.09
   1  -7  -3    0.50    0.12
   0  -7  -3   49.01    1.84
   0   7   3   45.64    1.83
  -1  -7  -3   33.33    1.26
   1   7   3   30.59    1.25
   2   7   3    0.54    0.12
   3   7   3    3.22    0.29
   3   7   3    3.27    0.29
   3   7   3    3.32    0.20
   4   7   3   16.57    0.71
   4   7   3   16.56    0.71
   5   7   3   26.71    1.07
   5   7   3   22.04    1.01
   5   7   3   25.68    1.02
   5   7   3   25.44    1.00
   6   7   3    0.09    0.15
   6   7   3    0.39    0.11
   6   7   3    0.53    0.12
   6   7   3    0.28    0.15
   7   7   3   10.43    0.48
   7   7   3   10.35    0.54
   7   7   3   10.05    0.48
   7   7   3   10.12    0.46
   8   7   3   19.48    0.81
   8   7   3   20.01    0.82
   8   7   3   19.44    0.82
   8   7   3   20.55    0.87
   9   7   3    4.06    0.28
   9   7   3    3.62    0.21
   9   7   3    3.84    0.23
  10   7   3    3.03    0.20
  10   7   3    3.23    0.18
  10   7   3    3.35    0.23
  11   7   3    0.12    0.04
   4  -8  -3   49.56    1.87
  -4   8   3   47.39    1.85
   3  -8  -3    0.16    0.08
  -3   8   3    0.12    0.06
   2  -8  -3    5.06    0.28
  -2   8   3    5.59    0.27
   1  -8  -3    5.69    0.31
  -1   8   3    5.97    0.29
   0  -8  -3   13.89    0.62
   0   8   3   15.27    0.61
  -1  -8  -3   14.69    0.64
   1   8   3   12.85    0.58
   2   8   3    5.87    0.35
   2   8   3    6.21    0.30
   3   8   3    0.19    0.06
   3   8   3   -0.02    0.15
   4   8   3    4.18    0.24
   4   8   3    4.20    0.29
   4   8   3    4.52    0.29
   5   8   3   66.83    2.57
   5   8   3   69.11    2.59
   5   8   3   65.08    2.56
   6   8   3   22.73    0.95
   6   8   3   23.02    1.00
   6   8   3   23.50    0.93
   6   8   3   23.27    0.95
   7   8   3    4.88    0.37
   7   8   3    5.32    0.31
   7   8   3    5.06    0.27
   8   8   3    1.29    0.22
   8   8   3    1.00    0.12
   8   8   3    0.96    0.18
   9   8   3    7.48    0.33
   9   8   3    7.25    0.34
   9   8   3    7.40    0.38
  10   8   3    0.16    0.09
  10   8   3    0.13    0.05
  -3   9   3    2.67    0.15
   2  -9  -3    0.28    0.11
  -2   9   3    0.39    0.09
   1  -9  -3   36.98    1.54
  -1   9   3   41.84    1.53
   0   9   3    2.44    0.16
   1   9   3    3.16    0.19
   2   9   3    6.76    0.32
   3   9   3   -0.16    0.22
   7   9   3    0.09    0.06
   7   9   3    0.23    0.17
   8   9   3   -0.02    0.16
   8   9   3    0.05    0.05
   9   9   3    0.07    0.05
   9   9   3    0.09    0.13
  -2  10   3    0.04    0.04
  -1  10   3   30.52    1.17
   0  10   3    0.91    0.09
   1  10   3    1.71    0.12
   2  10   3   13.64    0.56
   3  10   3    1.16    0.11
   4  10   3    0.48    0.09
   5  10   3    2.96    0.17
  -6 -10  -3   12.13    0.52
   6  10   3   12.10    0.51
  -7 -10  -3    3.85    0.22
   7  10   3    3.57    0.19
  -8 -10  -3    2.26    0.16
   8  10   3    2.37    0.14
   1  11   3    3.68    0.17
   2  11   3    1.18    0.10
   3  11   3    0.35    0.07
   4  11   3    0.37    0.08
   5  11   3    0.24    0.07
   6  11   3    2.72    0.15
   7  11   3    1.19    0.10
   4  11  -4   12.65    0.51
   3  11  -4    2.54    0.15
   2  11  -4    2.97    0.16
   7  10  -4    2.19    0.14
  -7 -10   4    2.49    0.16
   6  10  -4   18.62    0.72
  -6 -10   4   17.68    0.73
   5  10  -4   10.17    0.44
  -5 -10   4   10.86    0.46
   4  10  -4    7.84    0.35
  -4 -10   4    8.14    0.40
   3  10  -4    4.04    0.22
   2  10  -4    0.34    0.10
   1  10  -4    0.36    0.10
   0  10  -4   19.40    0.77
  -1  10  -4    0.16    0.06
  -2  10  -4    1.77    0.12
   8   9  -4    0.19    0.06
  -8  -9   4    0.19    0.07
   7   9  -4    1.84    0.14
  -7  -9   4    1.86    0.16
   6   9  -4    3.63    0.21
  -6  -9   4    3.72    0.23
   5   9  -4   15.42    0.64
  -5  -9   4   15.25    0.65
   4   9  -4    0.39    0.09
  -4  -9   4    0.42    0.12
   3   9  -4   14.60    0.59
  -3  -9   4   13.07    0.61
   2   9  -4   14.73    0.62
   1   9  -4    3.62    0.22
   1  -9   4    1.69    0.22
   2  -9   4    6.82    0.35
   3  -9   4   25.56    1.02
   9   8  -4    0.78    0.09
  -9  -8   4    0.83    0.13
   8   8  -4    0.08    0.06
  -8  -8   4    0.08    0.07
   7   8  -4    5.24    0.27
  -7  -8   4    5.30    0.29
   6   8  -4    1.09    0.15
  -6  -8   4    0.78    0.15
   5   8  -4    5.62    0.30
  -5  -8   4    5.65    0.32
   4   8  -4    0.36    0.10
  -4  -8   4    0.73    0.17
   3   8  -4   11.76    0.51
  -3  -8   4   11.22    0.53
   2   8  -4   12.01    0.54
  -2  -8   4   12.47    0.58
  -1  -8   4    5.86    0.44
   0  -8   4    3.42    0.25
   1  -8   4    3.59    0.25
   2  -8   4    1.08    0.17
   3  -8   4   37.30    1.47
   4  -8   4    4.02    0.24
   9   7  -4    0.09    0.05
  -9  -7   4   -0.05    0.08
  -9  -7   4    0.13    0.09
   8   7  -4    0.45    0.12
   7   7  -4   11.29    0.50
  -7  -7   4   11.39    0.52
   6   7  -4    4.99    0.29
  -6  -7   4    5.05    0.31
   5   7  -4   13.41    0.58
  -5  -7   4   13.28    0.61
   4   7  -4    0.32    0.10
  -4  -7   4    0.58    0.19
   3   7  -4   88.13    3.32
  -3  -7   4   85.85    3.34
   2   7  -4    6.31    0.32
  -2  -7   4    6.04    0.36
  -1  -7   4   10.57    0.49
   0  -7   4   42.33    1.66
   1  -7   4    0.08    0.10
  -2   7  -4    7.22    0.39
   2  -7   4    7.87    0.40
   2  -7   4    8.51    0.37
  -3   7  -4    2.98    0.23
   3  -7   4    2.49    0.21
   3  -7   4    2.44    0.18
  -4   7  -4    2.10    0.21
   4  -7   4    2.45    0.16
   4  -7   4    2.28    0.19
  -5   7  -4   22.03    0.91
   5  -7   4   23.31    0.93
   5  -7   4   23.28    0.90
   6  -7   4   11.93    0.55
   6  -7   4   13.23    0.50
  10   6  -4    0.38    0.08
 -10  -6   4    0.22    0.07
   9   6  -4    0.58    0.11
  -9  -6   4    0.36    0.09
  -9  -6   4    0.66    0.15
   8   6  -4    4.06    0.24
  -8  -6   4    4.38    0.26
   7   6  -4    3.14    0.22
  -7  -6   4    3.07    0.25
   6   6  -4    1.01    0.18
  -6  -6   4    1.29    0.20
   5   6  -4   30.82    1.23
  -5  -6   4   30.74    1.25
   4   6  -4    1.64    0.17
  -4  -6   4    1.71    0.22
   3   6  -4   86.53    3.27
  -3  -6   4   84.98    3.29
  -2  -6   4    1.02    0.20
  -2  -6   4    1.22    0.23
  -1  -6   4    6.50    0.39
  -1  -6   4    6.78    0.34
   0  -6   4   31.51    1.25
   1  -6   4  207.73    7.72
   1  -6   4  200.64    7.69
   2  -6   4    5.21    0.27
   2  -6   4    5.58    0.31
   3  -6   4    2.90    0.22
   3  -6   4    3.04    0.19
   4  -6   4    3.07    0.23
   4  -6   4    3.19    0.20
   5  -6   4    7.65    0.34
   5  -6   4    7.02    0.37
   6  -6   4    2.55    0.19
   6  -6   4    2.29    0.15
   7  -6   4    9.97    0.40
  10   5  -4    1.11    0.10
 -10  -5   4    0.95    0.12
   9   5  -4   34.34    1.34
  -9  -5   4   34.21    1.34
   8   5  -4    0.68    0.21
   8   5  -4    0.74    0.14
  -8  -5   4    0.72    0.18
   7   5  -4    7.80    0.37
   7   5  -4    7.25    0.41
  -7  -5   4    7.56    0.40
   6   5  -4   13.16    0.58
  -6  -5   4   13.53    0.60
   5   5  -4   -0.12    0.09
  -5  -5   4    0.07    0.12
   4   5  -4    8.12    0.39
  -4  -5   4    8.10    0.42
   3   5  -4   17.90    0.73
  -3  -5   4   17.37    0.75
  -2  -5   4   42.96    1.70
  -2  -5   4   44.97    1.72
  -1  -5   4    5.08    0.27
   0  -5   4   87.45    3.21
   0  -5   4   81.04    3.20
   1  -5   4   15.69    0.65
   1  -5   4   14.90    0.63
   2  -5   4    4.42    0.26
   2  -5   4    4.69    0.25
   3  -5   4    4.37    0.26
   3  -5   4    4.00    0.23
   4  -5   4    1.88    0.21
   4  -5   4    1.93    0.16
   4  -5   4    1.97    0.19
   5  -5   4   43.36    1.62
   5  -5   4   40.36    1.65
   5  -5   4   41.44    1.62
   6  -5   4   30.41    1.16
   6  -5   4   28.51    1.18
   7  -5   4   19.74    0.79
   7  -5   4   20.21    0.82
   8  -5   4    0.03    0.04
  10   4  -4    0.85    0.10
 -10  -4   4    0.86    0.13
   9   4  -4   17.02    0.68
   9   4  -4   16.40    0.69
   8   4  -4    0.86    0.21
   8   4  -4    1.02    0.15
  -8  -4   4    0.54    0.14
   7   4  -4   16.72    0.70
   7   4  -4   16.01    0.70
  -7  -4   4   16.53    0.71
   6   4  -4    3.03    0.23
   6   4  -4    2.96    0.32
  -6  -4   4    3.29    0.27
   5   4  -4   24.13    0.96
  -5  -4   4   23.34    0.98
   4   4  -4   24.22    0.96
  -4  -4   4   24.85    0.99
  -4  -4   4   22.95    1.12
  -3  -4   4   63.39    2.54
  -2  -4   4   62.94    2.42
  -2  -4   4   64.16    2.54
  -1  -4   4   89.73    3.38
  -1  -4   4   88.68    3.49
   0  -4   4    6.21    0.43
   0  -4   4    6.36    0.30
   1  -4   4    4.12    0.22
   1  -4   4    3.70    0.39
   2  -4   4   14.52    0.59
   2  -4   4   13.36    0.76
   2  -4   4   13.39    0.57
   3  -4   4    5.00    0.26
   3  -4   4    4.97    0.27
   4  -4   4    4.45    0.26
   4  -4   4    3.97    0.24
   4  -4   4    4.07    0.29
   5  -4   4    0.59    0.14
   5  -4   4    1.15    0.20
   5  -4   4    1.02    0.16
   6  -4   4   31.81    1.22
   6  -4   4   30.89    1.23
   6  -4   4   30.70    1.25
   7  -4   4   33.41    1.29
   7  -4   4   32.67    1.29
   7  -4   4   33.52    1.32
   8  -4   4    0.83    0.25
   8  -4   4    0.81    0.09
   9  -4   4    2.01    0.12
  10   3  -4    0.04    0.05
 -10  -3   4    0.08    0.06
   9   3  -4    1.23    0.13
   9   3  -4    1.38    0.17
   8   3  -4    1.45    0.16
   8   3  -4    1.01    0.20
   7   3  -4    5.33    0.30
   7   3  -4    5.48    0.32
  -7  -3   4    5.22    0.35
   6   3  -4   20.16    0.78
   6   3  -4   16.98    0.80
  -6  -3   4   18.99    0.80
   5   3  -4   97.78    3.70
  -5  -3   4   96.62    3.71
  -4  -3   4   22.42    0.98
   3   3  -4    0.08    0.14
  -3  -3   4    0.16    0.13
   2   3  -4    0.36    0.14
  -2  -3   4    0.53    0.19
  -2  -3   4    0.26    0.09
   1   3  -4  117.97    4.61
  -1  -3   4  118.49    4.55
  -1  -3   4  125.33    4.63
   0   3  -4   65.25    2.56
   0  -3   4   64.97    2.49
   0  -3   4   66.43    2.57
  -1   3  -4    0.11    0.13
   1  -3   4    0.11    0.07
   1  -3   4    0.33    0.12
   2  -3   4    1.45    0.14
   2  -3   4    1.48    0.25
   3  -3   4   15.66    0.65
   4  -3   4  104.30    3.93
   4  -3   4  107.03    3.92
   4  -3   4   99.30    3.94
   5  -3   4   39.87    1.58
   5  -3   4   40.39    1.56
   5  -3   4   39.80    1.56
   6  -3   4   30.86    1.22
   6  -3   4   29.27    1.22
   6  -3   4   32.52    1.25
   7  -3   4    1.79    0.15
   7  -3   4    1.61    0.20
   7  -3   4    1.69    0.17
   8  -3   4    0.05    0.06
   8  -3   4    0.08    0.19
   8  -3   4    0.06    0.06
   9  -3   4    3.45    0.18
   9  -3   4    3.45    0.17
  10   2  -4   12.40    0.48
 -10  -2   4   11.74    0.50
   9   2  -4    0.60    0.14
   9   2  -4    0.77    0.11
  -9  -2   4    0.74    0.16
   8   2  -4    0.77    0.15
   8   2  -4    0.66    0.11
   7   2  -4   19.46    0.81
   7   2  -4   19.69    0.81
   6   2  -4   10.64    0.49
   6   2  -4   10.59    0.47
  -6  -2   4    9.59    0.53
   5   2  -4   15.18    0.68
   5   2  -4   14.78    0.63
  -5  -2   4   14.39    0.68
   4   2  -4    9.67    0.44
   3   2  -4    7.75    0.38
  -3  -2   4    8.01    0.39
   2   2  -4   17.59    0.76
  -2  -2   4   19.00    0.77
   1   2  -4    1.26    0.16
  -1  -2   4    1.11    0.14
   0   2  -4   25.07    1.00
   0  -2   4   23.97    1.00
  -1   2  -4    3.80    0.26
   1  -2   4    4.39    0.25
   1  -2   4    3.93    0.21
  -2   2  -4    9.07    0.48
   2  -2   4   10.04    0.47
   2  -2   4    9.91    0.41
  -3   2  -4    9.48    0.54
   3  -2   4   10.29    0.43
   4  -2   4   56.96    2.19
   5  -2   4    1.63    0.17
   5  -2   4    1.13    0.22
   5  -2   4    1.22    0.16
   6  -2   4   67.66    2.55
   6  -2   4   62.18    2.53
   6  -2   4   68.40    2.53
   7  -2   4   23.76    0.93
   7  -2   4   23.38    0.94
   7  -2   4   22.61    0.95
   8  -2   4    5.24    0.28
   8  -2   4    5.26    0.26
   9  -2   4    0.21    0.06
   9  -2   4    0.19    0.06
  10  -2   4    0.89    0.09
  10  -2   4    1.11    0.11
  10   1  -4    2.58    0.14
 -10  -1   4    2.10    0.30
   9   1  -4    7.70    0.35
   9   1  -4    7.95    0.34
  -9  -1   4    7.73    0.37
   8   1  -4    0.90    0.16
   8   1  -4    0.83    0.14
  -8  -1   4    1.08    0.20
   7   1  -4   11.37    0.52
   7   1  -4   11.66    0.51
   6   1  -4   33.55    1.32
   6   1  -4   33.30    1.33
   5   1  -4   33.43    1.30
   5   1  -4   33.52    1.31
   5   1  -4   32.66    1.32
   4   1  -4    2.82    0.19
   3   1  -4   59.27    2.24
   3   1  -4   58.23    2.24
   2   1  -4    2.96    0.18
   1   1  -4    0.69    0.12
  -1  -1   4    0.74    0.11
   0   1  -4    1.14    0.13
   0  -1   4    1.04    0.12
  -1   1  -4    4.13    0.24
  -2   1  -4   26.97    1.10
  -3   1  -4    2.93    0.27
   3  -1   4    3.03    0.18
  -4   1  -4   10.15    0.50
  -4   1  -4    9.37    0.55
   4  -1   4   10.11    0.43
   5  -1   4   12.34    0.52
   5  -1   4   12.28    0.51
   5  -1   4   10.54    0.56
   6  -1   4   19.77    0.81
   6  -1   4   20.73    0.82
   6  -1   4   19.44    0.82
   7  -1   4   20.12    0.81
   7  -1   4   19.85    0.82
   8  -1   4   13.30    0.58
   8  -1   4   14.08    0.58
   9  -1   4    0.00    0.06
   9  -1   4   -0.01    0.06
  10  -1   4    5.95    0.26
  10  -1   4    5.86    0.26
   9   0  -4    0.12    0.06
   9   0  -4    0.12    0.06
  -9   0   4    0.08    0.11
   8   0  -4   24.83    0.98
   8   0  -4   24.52    0.98
  -8   0   4   24.71    1.01
   7   0  -4    9.07    0.42
   7   0  -4    8.68    0.40
  -7   0   4    8.41    0.46
   6   0  -4   16.78    0.70
   6   0  -4   16.70    0.71
   6   0  -4   16.45    0.69
   5   0  -4   30.00    1.19
   5   0  -4   29.70    1.18
   5   0  -4   29.81    1.17
   4   0  -4    0.92    0.13
   3   0  -4   40.22    1.55
   2   0  -4  110.84    4.22
   2   0  -4  108.11    4.22
   2   0  -4  116.52    4.23
   1   0  -4   70.79    2.64
   1   0  -4   67.69    2.64
   0   0  -4    1.89    0.14
  -1   0  -4  123.15    4.68
  -2   0  -4  903.63   35.24
  -2   0  -4  961.40   35.27
  -3   0  -4   58.87    2.29
  -3   0  -4   59.17    2.31
  -4   0  -4   68.10    2.64
  -4   0  -4   68.09    2.62
   4   0   4   66.40    2.57
  -5   0  -4    2.02    0.29
  -5   0  -4    1.90    0.44
   5   0   4    2.46    0.21
   6   0   4    3.85    0.29
   6   0   4    5.01    0.28
   6   0   4    4.17    0.27
   6   0   4    3.93    0.43
   7   0   4   37.97    1.47
   7   0   4   37.43    1.48
   8   0   4    7.44    0.37
   8   0   4    7.75    0.36
   9   0   4    1.61    0.15
   9   0   4    1.54    0.14
  10   0   4    0.89    0.11
  10   0   4    1.15    0.11
   9  -1  -4    3.24    0.17
   9  -1  -4    3.22    0.17
   8  -1  -4   20.23    0.81
   8  -1  -4   20.60    0.81
  -8   1   4   19.61    0.84
   7  -1  -4   41.74    1.57
   7  -1  -4   41.00    1.56
  -7   1   4   37.50    1.59
   6  -1  -4    3.74    0.25
   6  -1  -4    3.82    0.26
   6  -1  -4    4.50    0.25
  -6   1   4    3.84    0.35
   5  -1  -4    0.18    0.07
   5  -1  -4    0.11    0.10
   5  -1  -4    0.20    0.10
   4  -1  -4    0.62    0.12
   3  -1  -4   63.36    2.41
   2  -1  -4  114.63    4.59
   2  -1  -4  129.96    4.60
   2  -1  -4  120.94    4.59
   1  -1  -4  142.63    5.55
   1  -1  -4  151.54    5.56
   0  -1  -4   32.92    1.29
  -1  -1  -4   20.88    0.84
  -2  -1  -4   49.56    1.92
  -3  -1  -4   22.15    0.91
  -4  -1  -4    2.33    0.20
  -4  -1  -4    2.08    0.27
  -5  -1  -4   29.29    1.17
  -5  -1  -4   26.52    1.21
   6   1   4   11.86    0.52
   6   1   4   11.69    0.52
   6   1   4   11.58    0.58
   7   1   4   43.27    1.77
   7   1   4   45.28    1.72
   7   1   4   44.62    1.73
   8   1   4    4.31    0.25
   8   1   4    3.94    0.38
   8   1   4    4.44    0.25
   9   1   4   30.43    1.23
   9   1   4   29.91    1.18
   9   1   4   29.77    1.19
  10   1   4   13.37    0.54
  10   1   4   13.15    0.55
  11   1   4    0.65    0.09
  11   1   4    0.79    0.10
   9  -2  -4    0.07    0.14
   8  -2  -4   18.95    0.75
   8  -2  -4   18.91    0.76
   7  -2  -4    0.13    0.10
   7  -2  -4    0.15    0.08
   7  -2  -4    0.33    0.09
   6  -2  -4    0.77    0.14
   6  -2  -4    1.19    0.16
   6  -2  -4    0.90    0.17
  -6   2   4    0.71    0.18
   5  -2  -4    2.12    0.22
   5  -2  -4    1.70    0.20
   5  -2  -4    2.28    0.17
  -5   2   4    1.98    0.32
   4  -2  -4    8.15    0.42
   4  -2  -4    8.17    0.41
   4  -2  -4    8.59    0.38
  -4   2   4    8.56    0.49
   3  -2  -4  436.55   16.44
   2  -2  -4   19.98    0.80
   2  -2  -4   19.48    0.80
   2  -2  -4   21.14    0.82
   1  -2  -4    5.45    0.26
   1  -2  -4    5.12    0.24
   0  -2  -4    7.70    0.35
  -1  -2  -4    4.92    0.26
   1   2   4    5.13    0.27
  -2  -2  -4   66.64    2.57
  -3  -2  -4   17.06    0.72
  -4  -2  -4    5.95    0.33
  -5  -2  -4    4.91    0.35
   6   2   4   16.60    0.67
   6   2   4   16.37    0.71
   6   2   4   15.59    0.69
   6   2   4   15.28    0.68
   7   2   4    2.38    0.21
   7   2   4    2.41    0.28
   7   2   4    2.92    0.29
   7   2   4    2.48    0.23
   8   2   4    0.25    0.16
   8   2   4    0.24    0.10
   8   2   4    0.18    0.09
   9   2   4   16.17    0.68
   9   2   4   16.24    0.67
   9   2   4   15.98    0.73
  10   2   4   10.32    0.45
  10   2   4   10.86    0.45
  10   2   4   10.52    0.51
  11   2   4    1.48    0.13
  11   2   4    1.77    0.12
   8  -3  -4    7.48    0.32
   8  -3  -4    7.51    0.32
   7  -3  -4    1.26    0.13
   7  -3  -4    1.38    0.17
   7  -3  -4    1.41    0.14
   6  -3  -4   10.44    0.48
   6  -3  -4   11.07    0.48
   6  -3  -4   10.77    0.48
   5  -3  -4   64.24    2.53
   5  -3  -4   69.02    2.55
   5  -3  -4   65.15    2.54
   4  -3  -4    9.43    0.43
   4  -3  -4    9.51    0.42
   4  -3  -4    8.64    0.44
   3  -3  -4   93.24    3.59
   3  -3  -4   95.72    3.59
   2  -3  -4   10.54    0.45
   1  -3  -4   10.08    0.42
   1  -3  -4    9.77    0.46
  -1   3   4    9.86    0.48
   0  -3  -4   27.49    1.12
   0  -3  -4   29.52    1.17
   0   3   4   29.95    1.18
  -1  -3  -4   30.88    1.20
   1   3   4   28.40    1.21
  -2  -3  -4  125.85    4.57
   2   3   4  113.00    4.57
  -3  -3  -4   10.77    0.50
   3   3   4   10.16    0.52
  -4  -3  -4    3.65    0.28
  -5  -3  -4   60.35    2.40
  -6  -3  -4    1.28    0.32
   6   3   4    1.45    0.23
   6   3   4    0.96    0.17
   6   3   4    1.39    0.26
   6   3   4    1.18    0.20
   7   3   4   19.03    0.79
   7   3   4   18.73    0.78
   7   3   4   19.02    0.83
   7   3   4   19.29    0.80
   8   3   4    0.61    0.16
   8   3   4    0.71    0.18
   8   3   4    0.67    0.22
   8   3   4    0.94    0.25
   9   3   4   10.69    0.54
   9   3   4   10.74    0.48
   9   3   4   10.44    0.47
  10   3   4    0.95    0.20
  10   3   4    0.92    0.12
  10   3   4    0.99    0.13
  11   3   4    0.38    0.09
  11   3   4    0.39    0.11
   7  -4  -4    1.95    0.15
   7  -4  -4    2.05    0.18
   6  -4  -4    2.53    0.19
   6  -4  -4    2.81    0.19
   6  -4  -4    2.54    0.19
   5  -4  -4   11.20    0.50
   5  -4  -4   11.33    0.50
   5  -4  -4   11.69    0.50
   4  -4  -4   30.69    1.20
   4  -4  -4   28.74    1.20
   4  -4  -4   31.51    1.21
   3  -4  -4  101.38    4.08
   3  -4  -4  110.42    4.10
   3  -4  -4  111.53    4.09
   2  -4  -4    3.51    0.21
   2  -4  -4    4.03    0.24
   1  -4  -4    2.37    0.16
  -1   4   4    3.24    0.40
   0  -4  -4   86.89    3.33
   0  -4  -4   91.88    3.39
   0   4   4   84.39    3.41
  -1  -4  -4    7.75    0.40
  -1  -4  -4    6.90    0.32
   1   4   4    6.84    0.44
  -2  -4  -4   13.59    0.64
  -3  -4  -4   23.22    1.01
  -4  -4  -4    7.29    0.47
   5   4   4   88.85    3.38
   5   4   4   91.34    3.41
   5   4   4   87.02    3.40
   6   4   4   21.59    0.86
   6   4   4   20.09    0.88
   6   4   4   22.37    0.91
   7   4   4  216.51    8.11
   7   4   4  210.67    8.11
   7   4   4  212.52    8.10
   7   4   4  220.27    8.15
   8   4   4    0.54    0.15
   8   4   4    0.67    0.17
   8   4   4    0.49    0.13
   8   4   4    0.44    0.14
   9   4   4    1.05    0.17
   9   4   4    0.75    0.20
   9   4   4    0.83    0.15
   9   4   4    0.91    0.22
  10   4   4    2.49    0.18
  10   4   4    2.69    0.18
  10   4   4    2.64    0.23
  11   4   4    3.17    0.19
  11   4   4    3.31    0.17
  11   4   4    2.88    0.22
   6  -5  -4    2.97    0.19
   6  -5  -4    2.69    0.20
   5  -5  -4   10.18    0.44
   5  -5  -4    9.54    0.44
   4  -5  -4   18.21    0.76
   4  -5  -4   17.87    0.76
   4  -5  -4   19.42    0.77
   3  -5  -4    0.54    0.13
   3  -5  -4    0.70    0.13
   2  -5  -4   74.72    2.86
   1  -5  -4    7.74    0.35
   0  -5  -4    1.36    0.40
  -1  -5  -4   16.27    0.67
  -1  -5  -4   16.46    0.80
  -2  -5  -4   30.50    1.27
  -2  -5  -4   28.21    1.15
   4   5   4   22.12    0.93
   4   5   4   22.97    0.95
   4   5   4   23.70    0.91
   5   5   4   19.97    0.80
   5   5   4   20.22    0.85
   5   5   4   19.45    0.82
   6   5   4   30.25    1.20
   6   5   4   30.02    1.18
   6   5   4   29.03    1.22
   7   5   4  121.80    4.64
   7   5   4  116.91    4.59
   7   5   4  123.92    4.61
   7   5   4  121.76    4.60
   8   5   4    0.52    0.14
   8   5   4    0.57    0.16
   8   5   4    0.65    0.14
   8   5   4    0.79    0.22
   9   5   4    1.37    0.19
   9   5   4    1.38    0.24
   9   5   4    1.24    0.19
   9   5   4    1.63    0.17
  10   5   4    8.71    0.43
  10   5   4    8.83    0.39
  10   5   4    8.58    0.39
  11   5   4    0.08    0.05
  11   5   4   -0.05    0.08
   6  -6  -4    6.31    0.31
   5  -6  -4    4.73    0.25
   4  -6  -4    9.58    0.44
   4  -6  -4    9.69    0.44
   3  -6  -4    3.20    0.25
   3  -6  -4    3.56    0.22
   2  -6  -4   10.02    0.45
   1  -6  -4   11.58    0.51
   0  -6  -4  114.59    4.34
  -1  -6  -4   15.54    0.67
   1   6   4   16.90    0.67
   2   6   4    9.33    0.42
   3   6   4   64.93    2.49
   3   6   4   66.87    2.47
   3   6   4   62.45    2.51
   4   6   4    3.76    0.31
   4   6   4    3.37    0.27
   4   6   4    3.71    0.22
   5   6   4    0.14    0.13
   5   6   4    0.24    0.12
   5   6   4    0.27    0.07
   6   6   4   21.76    0.92
   6   6   4   20.90    0.86
   6   6   4   21.23    0.88
   7   6   4    2.44    0.27
   7   6   4    2.20    0.21
   7   6   4    2.63    0.27
   7   6   4    2.36    0.18
   8   6   4   30.14    1.18
   8   6   4   29.76    1.18
   8   6   4   28.89    1.22
   8   6   4   29.42    1.19
   9   6   4    0.04    0.11
   9   6   4    0.24    0.08
   9   6   4    0.09    0.09
   9   6   4    0.05    0.11
  10   6   4    0.96    0.23
  10   6   4    0.61    0.11
  10   6   4    0.58    0.16
  11   6   4    2.33    0.18
  11   6   4    2.65    0.15
   5  -7  -4   10.62    0.47
  -5   7   4   11.15    0.45
   4  -7  -4    2.52    0.17
   3  -7  -4    2.02    0.17
   2  -7  -4    6.70    0.33
   1  -7  -4    4.05    0.25
  -1   7   4    4.68    0.24
   0  -7  -4    6.25    0.31
   0   7   4    5.86    0.30
  -1  -7  -4   11.50    0.51
   1   7   4   11.24    0.49
   2   7   4   10.43    0.45
   3   7   4   41.19    1.56
   3   7   4   39.51    1.59
   4   7   4    2.67    0.26
   4   7   4    2.98    0.19
   4   7   4    1.96    0.35
   5   7   4    0.25    0.12
   5   7   4    0.18    0.07
   5   7   4    0.27    0.17
   6   7   4    8.03    0.40
   6   7   4    8.35    0.38
   6   7   4    7.96    0.45
   7   7   4    6.12    0.31
   7   7   4    6.03    0.38
   7   7   4    5.94    0.32
   8   7   4   20.82    0.86
   8   7   4   20.91    0.89
   8   7   4   20.52    0.85
   9   7   4    0.64    0.17
   9   7   4    0.52    0.11
  10   7   4    2.39    0.19
  10   7   4    2.39    0.15
  11   7   4    0.55    0.13
  11   7   4    0.66    0.08
   4  -8  -4   10.61    0.45
  -4   8   4   10.19    0.42
   3  -8  -4    4.67    0.25
  -3   8   4    4.09    0.22
   2  -8  -4    6.43    0.32
  -2   8   4    6.60    0.30
   1  -8  -4    8.13    0.39
  -1   8   4    8.56    0.38
   0  -8  -4    1.71    0.18
   0   8   4    2.02    0.16
  -1  -8  -4   38.94    1.52
   1   8   4   35.82    1.46
   2   8   4    9.15    0.41
   3   8   4    0.19    0.06
   4   8   4   16.64    0.69
   4   8   4   16.87    0.72
   5   8   4    0.37    0.13
   5   8   4    0.39    0.11
   6   8   4    2.10    0.31
   6   8   4    1.89    0.21
   6   8   4    1.73    0.16
   7   8   4    2.93    0.19
   7   8   4    3.00    0.22
   7   8   4    3.61    0.32
   8   8   4    4.02    0.29
   8   8   4    4.19    0.22
   9   8   4    0.21    0.06
   9   8   4    0.18    0.11
  10   8   4   29.38    1.16
  10   8   4   30.66    1.18
  -3   9   4    5.56    0.24
   2  -9  -4    4.44    0.28
  -2   9   4    4.76    0.22
   1  -9  -4    0.19    0.13
   0   9   4    0.05    0.05
   1   9   4   20.10    0.81
   2   9   4    0.77    0.12
   3   9   4    2.70    0.17
   4   9   4    2.77    0.18
   5   9   4    7.53    0.35
   6   9   4    8.64    0.39
   7   9   4    0.22    0.06
   8   9   4    5.92    0.26
   8   9   4    5.03    0.34
   9   9   4    6.78    0.36
   9   9   4    7.42    0.31
  -1  10   4    0.28    0.07
   0  10   4    4.12    0.20
   1  10   4    3.38    0.18
   2  10   4    4.74    0.23
   3  10   4    0.07    0.05
   4  10   4    3.63    0.19
   5  10   4   18.67    0.75
   6  10   4    5.89    0.27
   7  10   4   -0.04    0.04
  -8 -10  -4    0.01    0.08
   8  10   4    0.00    0.04
   1  11   4    4.63    0.21
   2  11   4    1.50    0.10
   3  11   4    0.09    0.04
   4  11   4    5.86    0.26
   5  11   4    0.86    0.09
   6  11   4    3.70    0.18
   7  11   4    2.03    0.12
   6  10  -5    7.19    0.31
  -6 -10   5    6.88    0.32
   5  10  -5    0.13    0.07
  -5 -10   5    0.06    0.10
   4  10  -5   17.47    0.69
  -4 -10   5   16.87    0.78
   3  10  -5    1.77    0.14
   2  10  -5    1.91    0.14
   1  10  -5    0.04    0.06
   0  10  -5   -0.02    0.06
  -1  10  -5    6.55    0.29
   7   9  -5    3.43    0.18
  -7  -9   5    3.65    0.20
   6   9  -5    3.32    0.19
  -6  -9   5    3.31    0.21
   5   9  -5    0.99    0.12
  -5  -9   5    0.61    0.15
   4   9  -5   -0.07    0.07
  -4  -9   5    0.30    0.11
   3   9  -5    2.99    0.19
  -3  -9   5    2.83    0.24
   2   9  -5   19.57    0.80
   1   9  -5   12.07    0.52
   0   9  -5    6.48    0.31
   1  -9   5   13.14    0.58
   2  -9   5    9.51    0.44
   8   8  -5   10.67    0.45
  -8  -8   5   10.86    0.46
   7   8  -5   12.35    0.52
  -7  -8   5   12.40    0.54
   6   8  -5    1.77    0.16
  -6  -8   5    1.74    0.18
   5   8  -5    0.97    0.16
  -5  -8   5    1.08    0.18
   4   8  -5   15.53    0.66
  -4  -8   5   15.51    0.68
   3   8  -5    0.78    0.15
  -3  -8   5    0.61    0.20
   2   8  -5   13.32    0.56
  -2  -8   5   12.58    0.59
   1   8  -5    6.89    0.34
   0  -8   5   16.16    0.69
   1  -8   5    2.35    0.22
   2  -8   5    1.47    0.18
   3  -8   5    7.76    0.37
   4  -8   5    1.06    0.15
   9   7  -5    0.07    0.05
  -9  -7   5    0.11    0.08
  -9  -7   5   -0.01    0.09
   8   7  -5   16.67    0.66
  -8  -7   5   16.73    0.67
  -8  -7   5   14.92    0.67
   7   7  -5    2.35    0.18
  -7  -7   5    2.37    0.19
  -7  -7   5    2.05    0.25
   6   7  -5    0.26    0.10
  -6  -7   5    0.32    0.12
  -6  -7   5    0.04    0.21
   5   7  -5    0.68    0.16
  -5  -7   5    0.39    0.12
   4   7  -5   32.55    1.28
  -4  -7   5   31.99    1.30
   3   7  -5    0.69    0.16
  -3  -7   5    0.30    0.12
   2   7  -5   -0.09    0.09
  -2  -7   5   -0.08    0.13
  -1  -7   5   29.98    1.25
  -1  -7   5   31.88    1.24
   0  -7   5   37.08    1.47
   1  -7   5    0.89    0.17
   2  -7   5    0.96    0.16
   3  -7   5   13.74    0.63
   3  -7   5   15.39    0.61
   4  -7   5    6.41    0.33
   4  -7   5    6.35    0.30
   5  -7   5    4.23    0.21
   5  -7   5    4.29    0.24
   9   6  -5    0.95    0.11
  -9  -6   5    0.99    0.17
  -9  -6   5    1.04    0.15
   8   6  -5    2.13    0.16
  -8  -6   5    2.19    0.18
  -8  -6   5    1.61    0.21
   7   6  -5    0.70    0.15
  -7  -6   5    0.93    0.17
   6   6  -5    0.04    0.09
  -6  -6   5   -0.02    0.10
   5   6  -5    0.55    0.16
  -5  -6   5    0.78    0.20
   4   6  -5   45.95    1.78
  -4  -6   5   45.14    1.80
   3   6  -5    7.11    0.36
  -3  -6   5    7.54    0.39
   2   6  -5   31.91    1.27
  -2  -6   5   32.18    1.29
  -2  -6   5   32.46    1.28
  -1  -6   5    0.60    0.17
  -1  -6   5    0.12    0.14
   0  -6   5    8.16    0.39
   1  -6   5    1.09    0.14
   2  -6   5   23.15    0.95
   2  -6   5   22.41    0.91
   3  -6   5   16.69    0.67
   3  -6   5   15.64    0.70
   4  -6   5   32.35    1.37
   4  -6   5   36.07    1.34
   5  -6   5    8.39    0.37
   5  -6   5    8.31    0.40
   6  -6   5    3.55    0.19
   6  -6   5    3.66    0.23
   7  -6   5   11.23    0.45
 -10  -5   5   10.41    0.44
  -9  -5   5    0.46    0.13
   8   5  -5    0.06    0.08
  -8  -5   5    0.16    0.11
   7   5  -5    0.95    0.17
  -7  -5   5    1.09    0.19
   6   5  -5    2.06    0.20
  -6  -5   5    1.96    0.23
   5   5  -5   12.89    0.57
  -5  -5   5   12.86    0.59
   4   5  -5   42.09    1.63
  -4  -5   5   41.45    1.65
   3   5  -5   10.92    0.49
  -3  -5   5   10.79    0.51
   2   5  -5    4.09    0.26
  -2  -5   5    3.83    0.27
  -2  -5   5    3.87    0.25
  -1  -5   5   18.43    0.80
  -1  -5   5   19.65    0.78
   0  -5   5    0.10    0.08
   0  -5   5    0.09    0.18
   1  -5   5    2.75    0.20
   1  -5   5    2.78    0.21
   2  -5   5    9.72    0.45
   2  -5   5    9.55    0.43
   3  -5   5   47.30    1.89
   3  -5   5   48.72    1.85
   4  -5   5    1.81    0.20
   4  -5   5    1.83    0.17
   5  -5   5   13.99    0.57
   5  -5   5   13.13    0.60
   6  -5   5   53.89    2.05
   6  -5   5   52.80    2.08
   7  -5   5    6.62    0.29
   7  -5   5    6.60    0.33
   8  -5   5    8.69    0.35
  10   4  -5    5.33    0.24
   9   4  -5    9.23    0.39
  -9  -4   5    8.51    0.41
   8   4  -5    0.06    0.08
  -8  -4   5    0.11    0.14
   7   4  -5    7.20    0.36
  -7  -4   5    7.11    0.38
   6   4  -5    2.06    0.20
  -6  -4   5    1.87    0.22
   5   4  -5   52.08    2.01
  -5  -4   5   51.57    2.03
   4   4  -5    1.24    0.19
  -4  -4   5    1.27    0.23
   3   4  -5   37.87    1.49
  -3  -4   5   36.49    1.66
  -3  -4   5   40.21    1.52
  -2  -4   5  126.00    4.81
  -2  -4   5  132.52    4.79
  -2  -4   5  121.53    4.93
  -1  -4   5   15.43    0.83
  -1  -4   5   16.45    0.65
   0  -4   5    0.73    0.24
   0  -4   5    0.94    0.13
   1  -4   5    1.93    0.16
   2  -4   5   95.15    3.66
   2  -4   5   97.77    3.68
   3  -4   5  103.41    3.92
   3  -4   5  103.62    3.95
   4  -4   5   36.38    1.43
   4  -4   5   36.96    1.46
   5  -4   5   50.96    1.94
   5  -4   5   47.81    1.90
   6  -4   5    7.91    0.36
   6  -4   5    7.38    0.38
   6  -4   5    7.78    0.39
   7  -4   5    0.79    0.17
   7  -4   5    0.90    0.11
   7  -4   5    1.04    0.16
   8  -4   5    7.09    0.31
  10   3  -5    1.41    0.11
 -10  -3   5    1.20    0.13
   9   3  -5    0.89    0.12
  -9  -3   5    0.95    0.14
   8   3  -5    2.41    0.19
   7   3  -5    0.21    0.10
  -7  -3   5    0.25    0.15
   6   3  -5   81.71    3.14
  -6  -3   5   82.43    3.15
   5   3  -5   23.06    0.95
  -5  -3   5   23.67    0.98
   4   3  -5    4.00    0.29
  -4  -3   5    4.92    0.32
  -3  -3   5    0.99    0.24
  -2  -3   5    0.06    0.15
  -2  -3   5    0.16    0.08
  -1  -3   5   31.39    1.32
  -1  -3   5   30.98    1.21
   0  -3   5    7.10    0.43
   0  -3   5    7.07    0.32
   1  -3   5    1.49    0.14
   1  -3   5    1.61    0.28
   2  -3   5   76.73    3.23
   2  -3   5   87.84    3.14
   3  -3   5   79.10    2.93
   3  -3   5   73.79    2.91
   4  -3   5   38.97    1.48
   4  -3   5   37.32    1.51
   5  -3   5   11.10    0.48
   5  -3   5   11.01    0.50
   5  -3   5   10.49    0.50
   6  -3   5    7.62    0.35
   6  -3   5    7.29    0.37
   6  -3   5    6.85    0.37
   7  -3   5    4.12    0.26
   7  -3   5    3.66    0.24
   7  -3   5    4.27    0.23
   8  -3   5    6.91    0.31
   8  -3   5    6.86    0.32
   9  -3   5    1.91    0.12
 -10  -2   5    5.30    0.26
   9   2  -5    4.11    0.21
  -9  -2   5    3.92    0.24
   8   2  -5   12.36    0.52
   8   2  -5   10.38    0.51
  -8  -2   5   12.97    0.56
   7   2  -5    3.11    0.22
   7   2  -5    2.90    0.27
   6   2  -5   36.66    1.39
  -6  -2   5   33.53    1.41
   5   2  -5   12.90    0.58
  -5  -2   5   13.40    0.61
   4   2  -5    0.48    0.15
  -4  -2   5    0.52    0.16
   3   2  -5    1.59    0.28
   2   2  -5   19.30    0.84
  -2  -2   5   19.82    0.85
   1   2  -5    2.14    0.24
  -1  -2   5    2.29    0.23
  -1  -2   5    2.25    0.16
   0   2  -5   24.16    1.01
   0  -2   5   24.56    1.01
   0  -2   5   23.09    0.94
  -1   2  -5  123.61    4.86
   1  -2   5  130.60    4.87
   1  -2   5  126.66    4.79
   2  -2   5    3.78    0.21
   3  -2   5   10.12    0.44
   4  -2   5   21.82    0.86
   4  -2   5   20.42    0.86
   5  -2   5    0.53    0.15
   5  -2   5    0.48    0.11
   5  -2   5    0.23    0.14
   6  -2   5   27.28    1.03
   6  -2   5   24.76    1.03
   6  -2   5   25.19    1.05
   7  -2   5   50.79    2.11
   7  -2   5   55.15    2.10
   7  -2   5   57.52    2.10
   8  -2   5   -0.06    0.06
   8  -2   5   -0.01    0.07
   9  -2   5   22.66    0.87
   9  -2   5   21.54    0.87
  10  -2   5    8.02    0.34
   9   1  -5    6.11    0.28
  -9  -1   5    6.40    0.31
   8   1  -5   13.70    0.58
   8   1  -5   14.32    0.58
  -8  -1   5   13.19    0.60
   7   1  -5    3.99    0.29
   7   1  -5    4.84    0.27
  -7  -1   5    4.72    0.31
   6   1  -5   13.69    0.58
   6   1  -5   12.75    0.59
   5   1  -5    0.96    0.21
   5   1  -5    1.29    0.18
   4   1  -5   58.05    2.22
   3   1  -5   84.23    3.22
   3   1  -5   85.87    3.24
   2   1  -5  113.74    4.33
   1   1  -5    3.94    0.26
  -1  -1   5    3.81    0.21
   0   1  -5  121.95    4.57
   0  -1   5  117.44    4.51
  -1   1  -5  103.98    3.87
   1  -1   5   97.43    3.80
  -2   1  -5    6.66    0.40
   2  -1   5    6.45    0.30
  -3   1  -5    1.24    0.32
   3  -1   5    1.29    0.13
  -4   1  -5   12.26    0.62
   4  -1   5   11.82    0.51
   5  -1   5   36.09    1.41
   5  -1   5   35.77    1.43
   5  -1   5   36.45    1.42
   6  -1   5   19.13    0.83
   6  -1   5   20.46    0.84
   6  -1   5   21.18    0.83
   7  -1   5    0.74    0.17
   7  -1   5    0.89    0.16
   8  -1   5    3.78    0.22
   8  -1   5    3.91    0.24
   9  -1   5    3.05    0.19
   9  -1   5    2.98    0.18
  10  -1   5    2.49    0.16
  10  -1   5    2.54    0.14
   9   0  -5   17.98    0.71
  -9   0   5   18.38    0.74
   8   0  -5   15.41    0.65
   8   0  -5   16.47    0.65
  -8   0   5   15.54    0.67
   7   0  -5    0.10    0.10
   7   0  -5   -0.05    0.09
  -7   0   5    0.03    0.11
   6   0  -5    0.17    0.11
   6   0  -5    0.17    0.10
   6   0  -5    0.25    0.12
  -6   0   5    0.38    0.14
   5   0  -5    1.94    0.18
   5   0  -5    1.69    0.27
   5   0  -5    1.64    0.23
   4   0  -5   67.94    2.59
   3   0  -5   33.81    1.31
   2   0  -5    2.40    0.19
   2   0  -5    2.00    0.16
   2   0  -5    1.91    0.14
   1   0  -5   13.41    0.59
   1   0  -5   13.69    0.58
   0   0  -5    8.38    0.41
   0   0  -5    8.46    0.39
   0   0   5    8.11    0.36
  -1   0  -5   74.21    2.85
  -1   0  -5   73.00    2.84
  -2   0  -5    2.08    0.18
  -2   0  -5    1.89    0.22
   2   0   5    1.88    0.14
  -3   0  -5   44.38    1.73
  -3   0  -5   43.06    1.76
   3   0   5   42.98    1.67
  -4   0  -5   86.74    3.34
   4   0   5   85.83    3.28
  -5   0  -5   40.17    1.65
   5   0   5   39.34    1.55
   6   0   5   21.63    0.97
   6   0   5   22.83    0.90
   6   0   5   22.40    0.89
   6   0   5   20.88    0.89
   7   0   5   25.53    1.03
   7   0   5   25.81    1.02
   8   0   5   70.97    2.79
   8   0   5   74.75    2.78
   9   0   5    1.12    0.14
   9   0   5    1.25    0.14
  10   0   5    3.09    0.18
  10   0   5    3.49    0.18
   8  -1  -5    3.60    0.21
   8  -1  -5    3.83    0.20
  -8   1   5    3.51    0.27
   7  -1  -5    4.61    0.25
   7  -1  -5    4.22    0.26
  -7   1   5    4.18    0.31
   6  -1  -5   15.01    0.65
   6  -1  -5   14.15    0.63
   6  -1  -5   15.68    0.64
  -6   1   5   15.41    0.69
   5  -1  -5    2.38    0.26
   5  -1  -5    2.52    0.24
   5  -1  -5    2.73    0.19
  -5   1   5    2.64    0.28
   4  -1  -5   16.46    0.77
   4  -1  -5   18.97    0.75
   4  -1  -5   17.94    0.87
  -4   1   5   19.40    0.81
   3  -1  -5   45.40    1.75
   2  -1  -5  162.85    6.09
   2  -1  -5  156.78    6.08
   2  -1  -5  164.29    6.08
   1  -1  -5   50.33    1.96
   1  -1  -5   53.66    1.98
   1  -1  -5   47.87    1.93
   0  -1  -5    3.05    0.20
   0  -1  -5    3.32    0.23
  -1  -1  -5    5.44    0.32
  -1  -1  -5    5.48    0.29
  -2  -1  -5   82.20    3.16
  -2  -1  -5   81.04    3.14
  -3  -1  -5  276.79   10.60
  -3  -1  -5  283.53   10.58
  -4  -1  -5  121.95    4.42
   4   1   5  107.75    4.34
  -5  -1  -5   14.23    0.71
   6   1   5    9.35    0.44
   6   1   5    8.99    0.48
   6   1   5    8.22    0.46
   6   1   5    8.67    0.44
   7   1   5   31.58    1.20
   7   1   5   30.11    1.20
   7   1   5   29.01    1.25
   8   1   5   25.05    0.98
   8   1   5   24.18    1.05
   8   1   5   24.06    0.99
   9   1   5    0.75    0.15
   9   1   5    0.80    0.14
  10   1   5   21.63    0.86
  10   1   5   21.85    0.85
  11   1   5    1.00    0.11
   8  -2  -5    9.31    0.39
   8  -2  -5    9.16    0.39
   7  -2  -5    0.36    0.11
   7  -2  -5    0.36    0.10
   6  -2  -5    4.83    0.27
   6  -2  -5    4.96    0.29
   6  -2  -5    5.17    0.28
  -6   2   5    4.85    0.35
   5  -2  -5   12.74    0.54
   5  -2  -5   11.64    0.54
   5  -2  -5   12.21    0.54
  -5   2   5   12.08    0.59
   4  -2  -5   79.88    3.13
   4  -2  -5   82.23    3.13
  -4   2   5   83.68    3.15
   3  -2  -5   84.61    3.17
  -3   2   5   81.55    3.19
   2  -2  -5  124.06    4.69
   1  -2  -5   14.48    0.63
   1  -2  -5   14.72    0.59
   1  -2  -5   14.92    0.66
   0  -2  -5   26.18    1.03
   0  -2  -5   24.72    0.99
  -1  -2  -5   30.22    1.22
  -2  -2  -5  123.15    4.70
  -3  -2  -5  378.21   14.25
  -4  -2  -5   72.67    2.84
  -5  -2  -5   11.04    0.60
   5   2   5   10.29    0.50
   6   2   5    0.36    0.14
   6   2   5    0.11    0.10
   6   2   5    0.11    0.12
   7   2   5    0.76    0.23
   7   2   5    1.07    0.24
   7   2   5    1.15    0.19
   7   2   5    0.79    0.23
   8   2   5    0.62    0.13
   8   2   5    0.77    0.26
   8   2   5    1.31    0.26
   8   2   5    1.16    0.18
   9   2   5    4.42    0.25
   9   2   5    4.46    0.26
   9   2   5    4.41    0.35
  10   2   5    0.06    0.06
  10   2   5    0.09    0.08
  10   2   5   -0.03    0.14
  11   2   5    0.03    0.05
   7  -3  -5    5.95    0.31
   7  -3  -5    6.00    0.28
   7  -3  -5    5.92    0.29
   6  -3  -5    4.34    0.26
   6  -3  -5    4.47    0.25
   6  -3  -5    4.56    0.26
   5  -3  -5   54.91    2.13
   5  -3  -5   52.97    2.11
   5  -3  -5   57.05    2.13
   4  -3  -5    5.47    0.34
   4  -3  -5    7.24    0.32
  -4   3   5    6.71    0.42
   3  -3  -5   13.59    0.55
   3  -3  -5   12.48    0.55
  -3   3   5   11.96    0.61
   2  -3  -5   82.90    3.16
   1  -3  -5    0.74    0.20
   1  -3  -5    1.05    0.12
   0  -3  -5    7.77    0.35
   0  -3  -5    8.48    0.41
  -1  -3  -5    0.90    0.19
  -1  -3  -5    1.34    0.12
   1   3   5    1.14    0.25
  -2  -3  -5  146.77    5.22
  -2  -3  -5  126.05    5.14
  -3  -3  -5  160.26    6.12
  -4  -3  -5   38.18    1.57
  -5  -3  -5   42.80    1.81
   5   3   5   42.78    1.70
   5   3   5   44.96    1.71
   6   3   5    9.94    0.47
   6   3   5    9.95    0.48
   6   3   5    9.38    0.44
   7   3   5    0.14    0.09
   7   3   5    0.14    0.13
   7   3   5    0.11    0.13
   8   3   5    8.15    0.41
   8   3   5    8.82    0.40
   8   3   5    8.09    0.41
   8   3   5    7.90    0.45
   9   3   5    5.49    0.30
   9   3   5    5.61    0.36
   9   3   5    5.33    0.29
  10   3   5    6.97    0.33
  10   3   5    7.47    0.38
  10   3   5    7.30    0.34
  11   3   5   12.84    0.52
   7  -4  -5    0.04    0.12
   6  -4  -5   33.91    1.33
   5  -4  -5    3.61    0.22
   5  -4  -5    4.11    0.30
   5  -4  -5    3.47    0.23
   4  -4  -5   34.54    1.39
   4  -4  -5   36.51    1.41
   3  -4  -5   12.20    0.52
   3  -4  -5   11.60    0.52
   2  -4  -5    0.26    0.07
   2  -4  -5    0.13    0.10
   1  -4  -5    6.87    0.32
   0  -4  -5   33.25    1.36
   0  -4  -5   32.01    1.27
  -1  -4  -5   22.24    0.97
  -1  -4  -5   21.52    0.87
  -2  -4  -5    1.02    0.27
  -2  -4  -5    1.12    0.16
  -3  -4  -5   -0.10    0.15
   4   4   5    3.48    0.25
   4   4   5    3.49    0.26
   5   4   5    3.45    0.26
   5   4   5    3.34    0.24
   5   4   5    3.16    0.22
   6   4   5    1.01    0.17
   6   4   5    0.68    0.20
   7   4   5   52.53    2.05
   7   4   5   51.90    2.08
   7   4   5   54.16    2.05
   8   4   5    6.16    0.34
   8   4   5    6.95    0.34
   8   4   5    6.60    0.39
   9   4   5   11.98    0.54
   9   4   5   12.09    0.58
   9   4   5   12.12    0.53
  10   4   5   13.56    0.57
  10   4   5   13.56    0.60
  11   4   5    8.01    0.39
  11   4   5    8.86    0.36
  -7   5   5    3.02    0.17
   6  -5  -5    9.47    0.42
   5  -5  -5    5.40    0.28
   4  -5  -5    4.09    0.23
   3  -5  -5    1.35    0.15
   2  -5  -5   80.28    3.07
   1  -5  -5  115.97    4.40
   0  -5  -5    8.10    0.37
  -1  -5  -5   22.90    0.92
   1   5   5   23.46    0.92
  -2  -5  -5    0.31    0.09
   2   5   5    0.07    0.08
   3   5   5   12.61    0.56
   3   5   5   12.03    0.52
   3   5   5   12.19    0.55
   4   5   5    3.24    0.26
   4   5   5    3.37    0.26
   4   5   5    3.07    0.21
   5   5   5    0.99    0.21
   5   5   5    1.30    0.16
   5   5   5    1.51    0.19
   6   5   5  126.83    5.01
   6   5   5  137.45    5.03
   6   5   5  133.08    5.05
   7   5   5   35.23    1.37
   7   5   5   34.85    1.42
   7   5   5   34.19    1.38
   8   5   5    0.19    0.11
   8   5   5    0.12    0.08
   8   5   5    0.20    0.11
   9   5   5    2.10    0.18
   9   5   5    1.81    0.24
   9   5   5    1.78    0.20
  10   5   5    1.27    0.13
  10   5   5    1.08    0.18
  11   5   5    0.06    0.09
  11   5   5    0.12    0.05
  -6   6   5    3.28    0.17
   5  -6  -5    1.69    0.14
   4  -6  -5   11.78    0.51
   3  -6  -5   11.56    0.51
   2  -6  -5    6.36    0.32
   1  -6  -5    0.70    0.14
   0  -6  -5   26.59    1.05
   0   6   5   26.10    1.04
  -1  -6  -5   23.55    0.95
   1   6   5   23.83    0.94
  -2  -6  -5    8.99    0.43
   2   6   5    9.84    0.42
   3   6   5   24.38    1.01
   3   6   5   24.60    1.02
   3   6   5   24.86    0.98
   4   6   5    0.60    0.15
   4   6   5    0.68    0.20
   4   6   5    0.93    0.14
   5   6   5   14.12    0.66
   5   6   5   15.17    0.61
   5   6   5   14.57    0.64
   6   6   5  103.39    3.97
   6   6   5  104.12    3.94
   6   6   5  102.56    3.93
   7   6   5    0.53    0.14
   7   6   5    0.81    0.16
   7   6   5    0.79    0.21
   8   6   5    4.58    0.27
   8   6   5    4.54    0.27
   8   6   5    5.08    0.33
   9   6   5    7.96    0.38
   9   6   5    8.01    0.37
   9   6   5    7.87    0.42
  10   6   5   14.85    0.61
  10   6   5   14.67    0.64
  11   6   5    0.58    0.13
  11   6   5    0.53    0.09
  -5   7   5    1.29    0.11
   4  -7  -5    3.18    0.19
  -4   7   5    3.23    0.18
   3  -7  -5    8.94    0.41
  -3   7   5    9.04    0.40
   2  -7  -5   21.70    0.93
  -2   7   5   24.17    0.92
   1  -7  -5   11.42    0.52
  -1   7   5   11.87    0.50
   0  -7  -5   53.70    2.04
   0   7   5   51.64    2.03
  -1  -7  -5    2.50    0.21
   1   7   5    2.81    0.19
   2   7   5    0.39    0.12
   3   7   5    0.08    0.16
   3   7   5    0.02    0.06
   4   7   5    3.36    0.33
   4   7   5    3.69    0.22
   4   7   5    3.94    0.27
   5   7   5    0.95    0.14
   5   7   5    0.93    0.19
   5   7   5    1.12    0.24
   6   7   5    2.14    0.16
   6   7   5    2.04    0.28
   6   7   5    2.09    0.20
   7   7   5    1.02    0.16
   7   7   5    0.79    0.13
   7   7   5    0.80    0.22
   8   7   5    6.20    0.32
   8   7   5    6.41    0.37
   8   7   5    6.01    0.31
   9   7   5    7.18    0.38
   9   7   5    7.37    0.34
   9   7   5    7.06    0.34
  10   7   5    0.76    0.10
  10   7   5    0.51    0.14
  -4   8   5   16.18    0.63
   3  -8  -5   13.44    0.56
  -3   8   5   12.77    0.53
   2  -8  -5    5.68    0.29
  -2   8   5    5.66    0.27
   1  -8  -5    6.82    0.35
  -1   8   5    7.08    0.33
   0  -8  -5    1.95    0.19
   0   8   5    1.56    0.15
   1   8   5    1.08    0.14
   2   8   5   21.60    0.87
   3   8   5    4.22    0.23
   4   8   5   38.54    1.50
   4   8   5   37.09    1.47
   5   8   5    0.46    0.20
   5   8   5    0.57    0.18
   5   8   5    0.67    0.12
   6   8   5    0.67    0.17
   6   8   5    0.36    0.11
   6   8   5    0.47    0.16
   7   8   5    7.02    0.40
   7   8   5    6.75    0.33
   7   8   5    6.83    0.35
   8   8   5    1.93    0.17
   8   8   5    2.02    0.22
   8   8   5    2.13    0.15
   9   8   5    0.17    0.10
   9   8   5    0.08    0.05
  10   8   5    0.79    0.10
  10   8   5    0.72    0.14
  -2   9   5    0.02    0.04
   1  -9  -5    6.81    0.37
  -1   9   5    6.61    0.30
   0   9   5   11.24    0.47
   1   9   5    0.04    0.05
   2   9   5    1.40    0.13
   3   9   5   28.93    1.14
   4   9   5   52.99    2.04
   5   9   5    0.10    0.06
   6   9   5    0.45    0.10
   7   9   5    1.89    0.29
   7   9   5    1.74    0.14
   8   9   5    2.54    0.15
   8   9   5    2.44    0.25
   9   9   5    6.75    0.35
   9   9   5    7.37    0.31
  -1  10   5    0.06    0.04
   0  10   5    1.53    0.11
   1  10   5    4.52    0.21
   2  10   5    0.33    0.08
   3  10   5    9.57    0.41
   4  10   5    0.63    0.09
   5  10   5    0.20    0.05
   6  10   5    3.06    0.17
   7  10   5    0.08    0.04
   8  10   5    2.75    0.15
   2  11   5    0.24    0.07
   3  11   5    3.60    0.17
   4  11   5    1.52    0.10
   5  11   5    3.73    0.18
   6  11   5    1.16    0.09
   5  10  -6    1.15    0.12
  -5 -10   6    1.24    0.16
   4  10  -6    3.87    0.20
   3  10  -6    8.30    0.36
   2  10  -6    0.39    0.10
   1  10  -6    3.12    0.17
   0  10  -6    7.54    0.32
   7   9  -6    4.20    0.20
  -7  -9   6    3.70    0.20
   6   9  -6    1.06    0.12
  -6  -9   6    1.04    0.14
   5   9  -6    7.05    0.33
  -5  -9   6    7.41    0.35
   4   9  -6   -0.02    0.07
  -4  -9   6   -0.04    0.09
   3   9  -6    9.69    0.42
  -3  -9   6    9.43    0.44
   2   9  -6    7.96    0.36
   1   9  -6    0.88    0.13
   0   9  -6    1.86    0.15
  -1   9  -6    0.69    0.12
   1  -9   6    0.89    0.26
  -2   9  -6    1.96    0.14
  -3   9  -6    5.96    0.26
   8   8  -6    0.37    0.10
  -8  -8   6    0.32    0.08
   7   8  -6    0.17    0.07
  -7  -8   6    0.07    0.08
   6   8  -6    0.18    0.08
  -6  -8   6    0.07    0.08
   5   8  -6    4.25    0.25
  -5  -8   6    4.30    0.26
   4   8  -6   11.68    0.49
  -4  -8   6   10.34    0.50
   3   8  -6    0.14    0.09
  -3  -8   6    0.66    0.20
   2   8  -6   27.76    1.11
  -2  -8   6   27.90    1.12
   1   8  -6   14.27    0.61
   0  -8   6    2.68    0.23
   1  -8   6    0.71    0.17
   2  -8   6    3.12    0.23
   3  -8   6    0.84    0.16
   4  -8   6    3.11    0.21
   8   7  -6   11.76    0.48
  -8  -7   6   10.66    0.50
  -8  -7   6   11.89    0.49
   7   7  -6   -0.01    0.08
  -7  -7   6   -0.01    0.12
  -7  -7   6    0.07    0.09
   6   7  -6    1.26    0.16
  -6  -7   6    1.21    0.17
   5   7  -6    2.88    0.22
  -5  -7   6    3.12    0.25
   4   7  -6   22.87    0.94
  -4  -7   6   23.22    0.96
   3   7  -6   45.94    1.82
  -3  -7   6   47.40    1.84
   2   7  -6   23.48    0.95
  -2  -7   6   23.20    0.97
   1   7  -6    0.55    0.16
  -1  -7   6    0.80    0.24
  -1  -7   6    0.40    0.12
   0  -7   6   15.49    0.67
   1  -7   6   39.40    1.56
   2  -7   6   44.36    1.75
   3  -7   6   20.92    0.87
   4  -7   6    0.05    0.08
   5  -7   6    2.81    0.20
   9   6  -6    0.00    0.06
   8   6  -6    0.21    0.08
  -8  -6   6    0.15    0.09
  -8  -6   6    0.14    0.09
   7   6  -6    9.75    0.44
  -7  -6   6    9.67    0.47
  -7  -6   6    9.95    0.45
   6   6  -6    8.21    0.41
  -6  -6   6    8.59    0.43
  -6  -6   6    8.42    0.46
   5   6  -6   40.56    1.55
  -5  -6   6   39.18    1.57
  -5  -6   6   38.24    1.58
   4   6  -6   68.68    2.61
  -4  -6   6   66.92    2.63
   3   6  -6   37.60    1.50
  -3  -6   6   39.01    1.53
   2   6  -6    0.02    0.10
  -2  -6   6    0.24    0.13
  -2  -6   6    0.12    0.12
  -1  -6   6    4.50    0.27
  -1  -6   6    4.38    0.33
   0  -6   6    1.29    0.18
   0  -6   6    1.34    0.28
   1  -6   6    0.01    0.09
   2  -6   6   98.95    3.75
   2  -6   6   98.43    3.78
   3  -6   6   12.44    0.59
   3  -6   6   13.77    0.56
   4  -6   6   14.10    0.57
   4  -6   6   12.87    0.60
   5  -6   6   18.00    0.78
   5  -6   6   19.67    0.76
   6  -6   6    0.27    0.06
   6  -6   6    0.15    0.09
   9   5  -6    1.45    0.13
  -9  -5   6    1.42    0.14
   8   5  -6    0.81    0.13
  -8  -5   6    0.66    0.18
  -8  -5   6    0.44    0.16
   7   5  -6   51.03    1.94
  -7  -5   6   49.43    1.97
  -7  -5   6   49.71    1.95
   6   5  -6    0.44    0.12
  -6  -5   6    0.51    0.14
  -6  -5   6    0.61    0.14
   5   5  -6   47.89    1.83
  -5  -5   6   46.63    1.85
  -5  -5   6   45.63    1.86
   4   5  -6   87.19    3.23
  -4  -5   6   83.88    3.26
  -4  -5   6   82.36    3.26
   3   5  -6    4.54    0.28
  -3  -5   6    5.00    0.30
   2   5  -6   15.97    0.68
  -2  -5   6   16.48    0.70
  -2  -5   6   15.55    0.67
  -1  -5   6    0.13    0.08
  -1  -5   6    0.09    0.12
   0  -5   6   10.21    0.50
   0  -5   6   10.28    0.46
   1  -5   6   45.59    1.73
   1  -5   6   42.44    1.75
   2  -5   6   14.04    0.56
   2  -5   6   10.37    0.52
   3  -5   6   25.75    1.05
   3  -5   6   25.28    1.01
   4  -5   6   15.82    0.72
   4  -5   6   17.64    0.69
   5  -5   6    4.19    0.24
   5  -5   6    4.29    0.26
   6  -5   6    7.65    0.34
   6  -5   6    7.73    0.38
   7  -5   6    1.90    0.13
   7  -5   6    1.79    0.19
   9   4  -6    0.20    0.07
  -9  -4   6    0.11    0.06
   8   4  -6    8.84    0.39
  -8  -4   6    8.20    0.41
   7   4  -6   10.88    0.49
  -7  -4   6   10.61    0.50
  -7  -4   6   10.53    0.52
   6   4  -6    1.59    0.20
  -6  -4   6    1.86    0.22
   5   4  -6    2.91    0.24
  -5  -4   6    3.23    0.26
   4   4  -6   -0.11    0.12
  -4  -4   6   -0.05    0.10
   3   4  -6    6.60    0.36
  -3  -4   6    6.16    0.44
  -3  -4   6    6.35    0.35
   2   4  -6   68.15    2.76
  -2  -4   6   77.14    2.77
  -2  -4   6   71.62    2.78
  -1  -4   6    1.57    0.16
  -1  -4   6    1.47    0.23
   0  -4   6   14.87    0.67
   0  -4   6   15.59    0.64
   1  -4   6   41.05    1.59
   1  -4   6   42.16    1.57
   1  -4   6   37.32    1.55
   2  -4   6    0.84    0.14
   2  -4   6    1.18    0.19
   3  -4   6   12.33    0.54
   3  -4   6   12.72    0.56
   4  -4   6    0.74    0.17
   4  -4   6    0.76    0.16
   5  -4   6   37.55    1.46
   5  -4   6   37.21    1.49
   6  -4   6    0.61    0.13
   6  -4   6    0.24    0.10
   7  -4   6    9.32    0.44
   7  -4   6    9.84    0.41
   8  -4   6    2.24    0.14
   9   3  -6    4.31    0.22
  -9  -3   6    4.49    0.24
   8   3  -6   10.72    0.46
  -8  -3   6   10.25    0.49
   7   3  -6    1.30    0.18
  -7  -3   6    1.12    0.21
  -7  -3   6    1.74    0.26
   6   3  -6   10.41    0.46
  -6  -3   6    9.28    0.48
   5   3  -6   17.96    0.76
  -5  -3   6   18.55    0.79
   4   3  -6   21.39    0.91
  -4  -3   6   23.06    0.93
   3   3  -6   21.00    0.92
  -3  -3   6   22.88    0.94
  -3  -3   6   21.45    0.90
  -2  -3   6    2.84    0.25
  -2  -3   6    2.48    0.44
  -2  -3   6    2.54    0.19
  -1  -3   6   13.29    0.74
  -1  -3   6   14.41    0.58
   0  -3   6   19.12    0.94
   0  -3   6   20.25    0.79
   1  -3   6   36.00    1.33
   1  -3   6   31.95    1.47
   2  -3   6    2.45    0.18
   3  -3   6    0.16    0.08
   3  -3   6    0.18    0.11
   4  -3   6    0.29    0.10
   4  -3   6    0.37    0.10
   5  -3   6  323.49   12.27
   5  -3   6  328.24   12.24
   6  -3   6    0.64    0.15
   6  -3   6    0.47    0.16
   7  -3   6    7.46    0.34
   7  -3   6    7.02    0.37
   8  -3   6    4.89    0.23
   9  -3   6   17.81    0.69
   9   2  -6    6.79    0.30
  -9  -2   6    6.79    0.32
   8   2  -6    5.46    0.27
  -8  -2   6    5.25    0.30
   7   2  -6    4.47    0.27
  -7  -2   6    4.25    0.30
   6   2  -6    1.62    0.21
  -6  -2   6    1.24    0.36
   5   2  -6    0.13    0.13
  -5  -2   6    0.12    0.15
   4   2  -6   59.29    2.24
   4   2  -6   54.54    2.25
  -4  -2   6   60.98    2.27
   3   2  -6   29.79    1.14
  -3  -2   6   29.14    1.18
  -3  -2   6   27.56    1.17
   2   2  -6    0.11    0.19
  -1  -2   6  270.74   10.17
   0  -2   6    0.34    0.10
   1  -2   6   72.56    2.76
   2  -2   6    3.64    0.21
   3  -2   6    0.67    0.13
   4  -2   6   90.38    3.50
   4  -2   6   94.17    3.52
   5  -2   6    9.83    0.45
   5  -2   6    9.89    0.46
   6  -2   6   28.65    1.13
   6  -2   6   28.45    1.15
   7  -2   6    3.91    0.26
   7  -2   6    3.84    0.23
   8  -2   6    0.08    0.08
   8  -2   6   -0.02    0.07
   9  -2   6    0.11    0.06
  -9  -1   6    0.23    0.08
   8   1  -6    1.31    0.15
  -8  -1   6    1.29    0.16
   7   1  -6    4.40    0.25
  -7  -1   6    3.67    0.29
   6   1  -6    0.97    0.21
  -6  -1   6    0.67    0.23
   5   1  -6    0.51    0.18
   5   1  -6    0.60    0.15
  -5  -1   6    0.67    0.23
   4   1  -6    1.04    0.14
  -4  -1   6    1.08    0.22
  -4  -1   6    1.41    0.24
   3   1  -6    4.42    0.25
  -3  -1   6    5.28    0.34
   2   1  -6    3.59    0.35
   2   1  -6    4.44    0.31
   1   1  -6  177.28    7.11
  -1  -1   6  197.44    7.06
   0   1  -6    7.11    0.44
   0  -1   6    7.52    0.33
  -1   1  -6    9.38    0.53
   1  -1   6    9.97    0.42
   2  -1   6    1.44    0.13
  -3   1  -6   14.52    0.72
   3  -1   6   14.77    0.61
  -4   1  -6  129.68    5.17
   4  -1   6  137.13    5.05
   5  -1   6    1.01    0.16
   5  -1   6    1.10    0.28
   6  -1   6    7.74    0.39
   6  -1   6    8.38    0.40
   7  -1   6   40.83    1.53
   7  -1   6   37.88    1.54
   8  -1   6    3.21    0.23
   8  -1   6    3.26    0.21
   9  -1   6    0.23    0.08
   9  -1   6    0.02    0.07
   8   0  -6    7.89    0.35
  -8   0   6    7.38    0.36
   7   0  -6    9.14    0.42
  -7   0   6    9.68    0.46
   6   0  -6   77.21    2.90
   6   0  -6   70.76    2.90
  -6   0   6   79.84    2.95
   5   0  -6   15.73    0.64
   5   0  -6   14.36    0.65
  -5   0   6   14.89    0.68
   4   0  -6    2.14    0.17
  -4   0   6    1.82    0.24
   3   0  -6   36.09    1.39
  -3   0   6   35.16    1.42
   2   0  -6   19.78    0.80
   2   0  -6   18.94    0.75
   2   0  -6   17.55    0.82
   1   0  -6    4.48    0.34
   1   0  -6    4.96    0.30
   0   0  -6    4.26    0.28
   0   0  -6    3.74    0.32
   0   0   6    4.37    0.22
  -1   0  -6   55.43    2.19
  -1   0  -6   54.38    2.21
   1   0   6   57.29    2.13
  -2   0  -6   12.60    0.69
  -2   0  -6   14.80    0.67
   2   0   6   15.86    0.60
  -3   0  -6  208.09    7.73
   3   0   6  198.18    7.64
  -4   0  -6   48.66    1.96
   4   0   6   47.78    1.86
   5   0   6    1.52    0.18
   5   0   6    1.55    0.25
   5   0   6    1.25    0.21
   6   0   6    2.50    0.28
   6   0   6    2.79    0.39
   6   0   6    2.90    0.24
   7   0   6    4.95    0.31
   7   0   6    5.46    0.31
   8   0   6   23.03    0.94
   8   0   6   23.43    0.93
   9   0   6   19.80    0.78
   9   0   6   19.03    0.78
  10   0   6    1.48    0.15
  10   0   6    1.47    0.16
  -8   1   6    0.53    0.19
   7  -1  -6    3.00    0.22
   7  -1  -6    2.94    0.22
  -7   1   6    2.57    0.24
   6  -1  -6   96.88    3.92
   6  -1  -6  105.19    3.92
   6  -1  -6  101.20    3.92
  -6   1   6  109.91    3.96
   5  -1  -6   22.85    0.99
   5  -1  -6   25.28    0.99
  -5   1   6   24.79    1.02
   4  -1  -6    9.98    0.46
  -4   1   6   10.43    0.51
   3  -1  -6   73.08    2.84
  -3   1   6   75.58    2.87
   2  -1  -6    0.79    0.11
   1  -1  -6  170.57    6.38
   1  -1  -6  164.33    6.33
   1  -1  -6  169.43    6.40
   0  -1  -6   74.73    2.89
   0  -1  -6   74.37    2.91
  -1  -1  -6    3.14    0.24
  -1  -1  -6    2.82    0.30
  -2  -1  -6  100.85    3.79
  -2  -1  -6   88.40    3.80
   2   1   6  105.03    3.72
  -3  -1  -6    0.08    0.12
   3   1   6    0.30    0.09
  -4  -1  -6   71.89    2.77
   4   1   6   68.13    2.67
   5   1   6   10.78    0.50
   5   1   6   10.29    0.47
   5   1   6   10.82    0.51
   6   1   6   20.50    0.87
   6   1   6   20.55    0.87
   6   1   6   21.34    0.89
   7   1   6   22.39    0.92
   7   1   6   22.57    0.95
   7   1   6   21.23    0.90
   8   1   6    7.69    0.48
   8   1   6    7.91    0.39
   8   1   6    7.98    0.39
   9   1   6    3.71    0.24
   9   1   6    4.09    0.23
  10   1   6    8.70    0.38
   7  -2  -6    0.12    0.11
   7  -2  -6    0.09    0.08
   6  -2  -6    6.52    0.34
   6  -2  -6    6.77    0.34
  -6   2   6    7.20    0.39
   5  -2  -6    9.25    0.41
   5  -2  -6    8.73    0.43
  -5   2   6    8.68    0.47
   4  -2  -6   18.06    0.73
   4  -2  -6   16.39    0.73
  -4   2   6   17.64    0.77
   3  -2  -6   64.46    2.57
  -3   2   6   69.79    2.60
   2  -2  -6   10.60    0.44
  -2   2   6    9.81    0.50
   1  -2  -6   20.85    0.89
   1  -2  -6   20.98    0.95
   1  -2  -6   21.10    0.83
   0  -2  -6   22.96    0.95
   0  -2  -6   22.22    0.89
   0  -2  -6   22.32    1.00
  -1  -2  -6   15.85    0.71
  -2  -2  -6   68.57    2.69
  -3  -2  -6    0.85    0.23
  -4  -2  -6    0.22    0.18
   4   2   6    0.09    0.12
   5   2   6   14.08    0.62
   5   2   6   14.47    0.61
   6   2   6    4.78    0.29
   6   2   6    5.10    0.32
   6   2   6    4.63    0.32
   7   2   6   56.67    2.19
   7   2   6   56.26    2.21
   7   2   6   56.33    2.18
   8   2   6    7.09    0.41
   8   2   6    6.53    0.35
   8   2   6    6.84    0.38
   9   2   6    6.60    0.41
   9   2   6    7.90    0.36
  10   2   6   12.80    0.59
  10   2   6   13.34    0.54
  11   2   6    2.28    0.16
   7  -3  -6    3.53    0.24
   6  -3  -6    0.07    0.08
   6  -3  -6    0.11    0.08
   5  -3  -6    2.95    0.20
   5  -3  -6    2.96    0.23
  -5   3   6    2.61    0.32
   4  -3  -6    7.34    0.33
   4  -3  -6    5.84    0.34
  -4   3   6    6.19    0.40
   3  -3  -6    0.25    0.11
   3  -3  -6    0.15    0.08
  -3   3   6    0.19    0.14
   2  -3  -6    1.45    0.24
   2  -3  -6    1.35    0.13
  -2   3   6    1.50    0.26
   1  -3  -6   51.44    1.98
   0  -3  -6   22.16    0.96
   0  -3  -6   22.13    0.88
  -1  -3  -6   58.24    2.26
  -1  -3  -6   55.42    2.17
  -2  -3  -6    0.10    0.14
  -2  -3  -6    0.18    0.08
  -3  -3  -6   32.24    1.33
  -3  -3  -6   36.34    1.45
   4   3   6    0.55    0.17
   4   3   6    0.39    0.10
   5   3   6   24.53    1.02
   5   3   6   24.82    1.02
   5   3   6   26.89    1.04
   6   3   6   10.95    0.52
   6   3   6   11.46    0.51
   6   3   6   11.47    0.52
   7   3   6   31.49    1.25
   7   3   6   31.66    1.28
   7   3   6   30.41    1.24
   8   3   6    1.39    0.24
   8   3   6    1.27    0.19
   8   3   6    1.25    0.21
   9   3   6   29.07    1.17
   9   3   6   28.88    1.12
   9   3   6   26.59    1.12
  10   3   6    9.65    0.46
  10   3   6    9.48    0.41
  11   3   6    3.56    0.19
   6  -4  -6    0.25    0.08
   5  -4  -6    5.69    0.29
   4  -4  -6    1.25    0.14
   3  -4  -6  179.17    6.77
   2  -4  -6    0.66    0.12
  -2   4   6    0.53    0.15
   1  -4  -6    5.16    0.27
  -1   4   6    5.04    0.33
   0  -4  -6   37.74    1.63
   0  -4  -6   41.19    1.51
   0   4   6   37.72    1.53
  -1  -4  -6    9.46    0.41
  -1  -4  -6    9.44    0.60
  -2  -4  -6    5.90    0.29
  -3  -4  -6    1.55    0.26
   3   4   6    1.54    0.19
   3   4   6    1.30    0.20
   4   4   6    1.73    0.20
   4   4   6    1.64    0.20
   4   4   6    1.72    0.21
   5   4   6   19.71    0.82
   5   4   6   20.67    0.84
   5   4   6   19.95    0.83
   6   4   6   18.58    0.78
   6   4   6   19.33    0.81
   6   4   6   18.93    0.79
   7   4   6   31.28    1.24
   7   4   6   30.70    1.27
   7   4   6   31.26    1.25
   8   4   6    0.22    0.11
   8   4   6    0.33    0.13
   8   4   6    0.08    0.09
   9   4   6    7.53    0.40
   9   4   6    7.16    0.35
   9   4   6    6.24    0.34
  10   4   6    0.52    0.17
  10   4   6    0.56    0.12
  11   4   6    4.28    0.27
  11   4   6    4.97    0.22
   6  -5  -6    8.77    0.39
   5  -5  -6    1.04    0.12
   4  -5  -6    8.60    0.40
   3  -5  -6    7.11    0.35
   2  -5  -6   10.20    0.46
   1  -5  -6   33.80    1.33
   0  -5  -6   88.11    3.21
   0   5   6   85.72    3.19
   0   5   6   78.03    3.21
  -1  -5  -6    2.70    0.19
   1   5   6    2.69    0.21
   1   5   6    2.51    0.26
  -2  -5  -6    7.86    0.35
   2   5   6    6.56    0.42
   2   5   6    6.94    0.37
   2   5   6    7.15    0.35
   3   5   6    4.17    0.26
   3   5   6    4.93    0.31
   3   5   6    4.09    0.28
   4   5   6   52.96    2.06
   4   5   6   53.62    2.04
   4   5   6   52.53    2.06
   5   5   6  279.06   10.34
   5   5   6  270.11   10.32
   5   5   6  274.19   10.35
   6   5   6   43.70    1.69
   6   5   6   43.89    1.73
   6   5   6   42.98    1.71
   7   5   6    1.24    0.21
   7   5   6    0.86    0.16
   7   5   6    1.07    0.17
   8   5   6   19.77    0.79
   8   5   6   18.46    0.83
   8   5   6   19.17    0.80
   9   5   6    7.60    0.40
   9   5   6    6.75    0.34
   9   5   6    7.02    0.34
  10   5   6    0.07    0.06
  10   5   6    0.03    0.09
  11   5   6    4.05    0.24
  11   5   6    4.16    0.20
   5  -6  -6   11.30    0.49
  -5   6   6   11.66    0.47
   4  -6  -6   14.33    0.60
   3  -6  -6    2.63    0.18
   2  -6  -6   29.80    1.19
   1  -6  -6   21.57    0.86
  -1   6   6   20.04    0.84
   0  -6  -6   11.83    0.52
   0   6   6   11.66    0.51
  -1  -6  -6    3.98    0.24
   1   6   6    3.68    0.23
  -2  -6  -6    0.18    0.11
   2   6   6    0.29    0.08
   2   6   6    0.20    0.13
   3   6   6    0.60    0.14
   3   6   6    0.40    0.15
   3   6   6    0.53    0.13
   4   6   6    0.03    0.12
   4   6   6    0.12    0.07
   4   6   6    0.09    0.11
   5   6   6   38.18    1.51
   5   6   6   37.67    1.49
   5   6   6   38.96    1.53
   6   6   6    9.41    0.44
   6   6   6    9.05    0.47
   6   6   6    9.25    0.42
   7   6   6    0.17    0.12
   7   6   6    0.03    0.08
   7   6   6    0.06    0.07
   8   6   6    1.17    0.21
   8   6   6    1.32    0.16
   8   6   6    1.13    0.17
   9   6   6    7.77    0.41
   9   6   6    8.25    0.38
   9   6   6    8.25    0.37
  10   6   6   21.88    0.84
  10   6   6   20.53    0.87
  11   6   6    0.33    0.09
  11   6   6    0.37    0.10
   4  -7  -6    4.34    0.23
  -4   7   6    4.13    0.21
   3  -7  -6    0.36    0.11
  -3   7   6    0.23    0.06
   2  -7  -6    3.01    0.20
  -2   7   6    3.08    0.19
   1  -7  -6    1.14    0.15
  -1   7   6    1.33    0.15
   0  -7  -6   13.64    0.60
   0   7   6   14.54    0.59
  -1  -7  -6   39.21    1.50
   1   7   6   37.35    1.49
   2   7   6    7.13    0.34
   3   7   6   17.76    0.77
   3   7   6   18.61    0.73
   3   7   6   17.07    0.79
   4   7   6    3.41    0.26
   4   7   6    3.31    0.21
   4   7   6    3.31    0.29
   5   7   6    3.30    0.21
   5   7   6    3.26    0.24
   5   7   6    3.14    0.28
   6   7   6    1.12    0.18
   6   7   6    1.63    0.23
   6   7   6    1.32    0.15
   7   7   6    0.65    0.20
   7   7   6    0.81    0.14
   7   7   6    0.96    0.16
   8   7   6    1.23    0.14
   8   7   6    0.91    0.14
   8   7   6    1.21    0.18
   9   7   6    0.10    0.06
   9   7   6    0.11    0.09
   9   7   6    0.02    0.07
  10   7   6    1.62    0.16
  10   7   6    1.78    0.13
   3  -8  -6    4.54    0.25
  -3   8   6    4.41    0.21
   2  -8  -6    6.12    0.30
  -2   8   6    5.72    0.27
   1  -8  -6    7.03    0.34
  -1   8   6    6.85    0.32
   0  -8  -6   15.11    0.66
   0   8   6   16.49    0.65
   1   8   6   16.98    0.69
   2   8   6   33.18    1.30
   3   8   6    3.16    0.20
   4   8   6    9.31    0.41
   4   8   6    8.89    0.45
   5   8   6    7.83    0.40
   5   8   6    8.29    0.37
   5   8   6    8.25    0.47
   6   8   6    9.43    0.41
   6   8   6    9.03    0.48
   6   8   6    8.94    0.43
   7   8   6   11.21    0.47
   7   8   6   11.09    0.49
   7   8   6   10.32    0.52
   8   8   6   12.75    0.53
   8   8   6   12.50    0.54
   8   8   6   12.84    0.57
   9   8   6    5.44    0.30
   9   8   6    5.62    0.26
  10   8   6    0.45    0.13
  10   8   6    0.74    0.10
  -2   9   6    1.03    0.10
  -1   9   6    4.51    0.21
   0   9   6    0.64    0.10
   1   9   6    1.71    0.13
   2   9   6    1.98    0.14
   3   9   6   14.75    0.61
   4   9   6    3.53    0.19
   5   9   6    1.04    0.12
   6   9   6    6.68    0.31
   7   9   6    2.95    0.29
   7   9   6    2.80    0.17
   8   9   6    2.12    0.14
   8   9   6    1.74    0.23
   9   9   6   21.94    0.82
   9   9   6   20.14    0.84
   0  10   6    1.18    0.10
   1  10   6    9.82    0.41
   2  10   6    0.09    0.05
   3  10   6    0.11    0.04
   4  10   6    6.86    0.30
   5  10   6    3.39    0.18
   6  10   6    0.29    0.08
   7  10   6    0.35    0.08
   8  10   6    3.44    0.17
   3  11   6   10.49    0.42
   4  11   6    3.65    0.17
   5  11   6   13.32    0.53
   4  10  -7    0.01    0.07
   3  10  -7    0.07    0.07
   1  10  -7    0.54    0.11
  -6  -9   7   13.86    0.56
   5   9  -7    0.45    0.12
  -5  -9   7    0.42    0.09
   4   9  -7    0.03    0.07
  -4  -9   7    0.22    0.09
   3   9  -7    5.79    0.28
  -3  -9   7    5.29    0.29
   2   9  -7    1.54    0.15
   1   9  -7    0.92    0.13
   0   9  -7    0.15    0.07
  -1   9  -7    5.31    0.26
  -2   9  -7    0.36    0.11
   7   8  -7    3.03    0.17
  -7  -8   7    3.05    0.18
   6   8  -7    6.40    0.31
  -6  -8   7    6.66    0.32
   5   8  -7    0.45    0.10
  -5  -8   7    0.63    0.15
   4   8  -7    1.17    0.15
  -4  -8   7    1.19    0.17
   3   8  -7    4.37    0.25
  -3  -8   7    4.01    0.26
   2   8  -7    4.33    0.25
  -2  -8   7    4.00    0.27
   1   8  -7   14.99    0.63
   0   8  -7    4.76    0.26
   0  -8   7    4.68    0.31
  -1   8  -7    6.96    0.33
   1  -8   7    7.00    0.36
   2  -8   7    6.29    0.33
   3  -8   7    0.72    0.15
   8   7  -7    2.29    0.16
  -8  -7   7    2.58    0.17
   7   7  -7    0.10    0.08
  -7  -7   7    0.12    0.08
   6   7  -7    0.52    0.10
  -6  -7   7    0.47    0.15
   5   7  -7    0.09    0.09
  -5  -7   7    0.19    0.10
   4   7  -7    0.30    0.11
  -4  -7   7    0.59    0.19
   3   7  -7    1.73    0.20
  -3  -7   7    1.71    0.22
   2   7  -7    1.08    0.18
  -2  -7   7    1.02    0.20
   1   7  -7    0.22    0.10
  -1  -7   7    0.20    0.13
  -1  -7   7    0.35    0.13
   0   7  -7   41.52    1.58
   0  -7   7   39.38    1.59
   1  -7   7    3.10    0.22
   2  -7   7    2.37    0.20
   3  -7   7    1.31    0.16
   4  -7   7    1.87    0.17
   5  -7   7   18.78    0.76
   8   6  -7    0.24    0.08
  -8  -6   7    0.21    0.09
  -8  -6   7    0.19    0.09
   7   6  -7    1.41    0.16
  -7  -6   7    1.87    0.17
  -7  -6   7    1.53    0.20
   6   6  -7    8.35    0.39
  -6  -6   7    7.66    0.42
  -6  -6   7    8.91    0.41
   4   6  -7    8.87    0.43
  -4  -6   7    8.70    0.45
   3   6  -7    3.40    0.25
  -3  -6   7    3.54    0.27
   2   6  -7    0.08    0.11
  -2  -6   7    0.07    0.13
  -2  -6   7   -0.05    0.12
   1   6  -7    1.33    0.21
  -1  -6   7    1.54    0.20
  -1  -6   7    0.78    0.21
   0  -6   7    2.08    0.19
   0  -6   7    2.30    0.27
   1  -6   7   63.94    2.48
   2  -6   7    1.54    0.18
   3  -6   7    4.11    0.26
   4  -6   7    0.48    0.14
   5  -6   7    0.51    0.14
   6  -6   7    1.74    0.16
  -9  -5   7    0.52    0.12
   8   5  -7    3.08    0.19
  -8  -5   7    2.87    0.21
  -8  -5   7    3.29    0.24
   7   5  -7    6.94    0.34
  -7  -5   7    7.11    0.35
  -7  -5   7    6.86    0.37
   6   5  -7    0.69    0.18
  -6  -5   7    0.47    0.14
  -6  -5   7    0.45    0.13
   5   5  -7    9.40    0.45
  -5  -5   7    9.42    0.50
  -5  -5   7    9.65    0.47
   4   5  -7   25.41    1.00
  -4  -5   7   23.61    1.03
  -4  -5   7   24.51    1.02
   3   5  -7   11.02    0.50
  -3  -5   7   10.26    0.51
   2   5  -7    4.14    0.29
  -2  -5   7    4.59    0.31
  -2  -5   7    4.75    0.29
   1   5  -7   32.05    1.33
  -1  -5   7   34.77    1.34
  -1  -5   7   34.13    1.35
   0  -5   7   59.41    2.25
   0  -5   7   56.54    2.24
   1  -5   7   23.49    0.98
   1  -5   7   24.32    0.99
   2  -5   7    0.26    0.10
   3  -5   7    2.16    0.19
   3  -5   7    1.83    0.19
   4  -5   7    2.43    0.19
   4  -5   7    2.16    0.20
   5  -5   7    7.53    0.39
   5  -5   7    7.91    0.35
   6  -5   7    0.02    0.07
   6  -5   7    0.12    0.09
   7  -5   7    1.65    0.13
  -9  -4   7    0.07    0.06
   8   4  -7    1.03    0.14
  -8  -4   7    1.02    0.15
   7   4  -7    6.84    0.33
  -7  -4   7    6.50    0.35
  -7  -4   7    6.71    0.36
   6   4  -7    5.74    0.31
  -6  -4   7    5.24    0.33
  -6  -4   7    5.15    0.35
   5   4  -7   56.11    2.21
  -5  -4   7   57.27    2.24
  -5  -4   7   58.32    2.26
   4   4  -7    0.10    0.15
  -4  -4   7    0.31    0.14
  -4  -4   7    0.19    0.13
   3   4  -7    0.96    0.26
  -3  -4   7    0.82    0.20
   2   4  -7    2.86    0.29
  -2  -4   7    3.49    0.23
  -2  -4   7    3.67    0.27
   1   4  -7    0.97    0.17
  -1  -4   7    1.21    0.16
  -1  -4   7    1.12    0.20
   0  -4   7    9.88    0.48
   0  -4   7    9.93    0.45
   1  -4   7    2.77    0.26
   1  -4   7    3.03    0.20
   2  -4   7    5.88    0.31
   2  -4   7    5.38    0.32
   2  -4   7    5.70    0.35
   3  -4   7   21.00    0.87
   3  -4   7   22.40    0.91
   4  -4   7  121.66    4.55
   4  -4   7  118.70    4.59
   5  -4   7    2.53    0.20
   5  -4   7    2.41    0.21
   6  -4   7   10.53    0.50
   6  -4   7   11.33    0.47
   7  -4   7    5.69    0.30
   7  -4   7    5.29    0.26
   8  -4   7    7.09    0.31
  -9  -3   7    0.12    0.06
   8   3  -7    6.72    0.32
  -8  -3   7    6.50    0.33
   7   3  -7    6.78    0.35
  -7  -3   7    8.00    0.39
   6   3  -7   30.81    1.24
  -6  -3   7   30.90    1.26
  -6  -3   7   32.19    1.29
   5   3  -7   60.43    2.38
  -5  -3   7   61.69    2.43
  -5  -3   7   63.51    2.41
   4   3  -7    3.46    0.31
   4   3  -7    3.44    0.25
  -4  -3   7    3.29    0.27
  -4  -3   7    4.15    0.32
  -3  -3   7    0.94    0.21
  -3  -3   7    0.57    0.16
  -2  -3   7    5.32    0.33
  -1  -3   7    2.87    0.24
  -1  -3   7    2.96    0.19
   0  -3   7   19.03    0.80
   0  -3   7   19.00    0.78
   1  -3   7   -0.07    0.06
   1  -3   7    0.04    0.13
   2  -3   7   33.02    1.35
   2  -3   7   35.13    1.35
   3  -3   7    7.17    0.36
   3  -3   7    6.91    0.40
   4  -3   7    0.57    0.14
   4  -3   7    0.58    0.15
   5  -3   7   18.14    0.76
   5  -3   7   17.49    0.73
   6  -3   7   11.14    0.47
   6  -3   7    9.83    0.49
   7  -3   7   16.55    0.73
   7  -3   7   18.21    0.70
   8  -3   7    0.13    0.08
  -9  -2   7    1.60    0.14
  -8  -2   7    4.31    0.25
   7   2  -7    3.71    0.25
  -7  -2   7    3.76    0.26
   6   2  -7   13.49    0.62
  -6  -2   7   14.99    0.66
   5   2  -7   11.97    0.57
  -5  -2   7   13.31    0.60
  -5  -2   7   11.49    0.58
   4   2  -7    2.45    0.20
  -4  -2   7    2.21    0.29
  -4  -2   7    2.62    0.28
   3   2  -7   -0.03    0.08
  -3  -2   7    0.14    0.14
  -3  -2   7    0.20    0.13
  -2  -2   7  102.68    3.91
  -1  -2   7    0.24    0.12
  -1  -2   7    0.22    0.07
   0  -2   7    9.29    0.47
   0  -2   7   10.83    0.44
   1  -2   7    0.15    0.11
   1  -2   7    0.15    0.06
   2  -2   7   45.56    1.71
   2  -2   7   42.68    1.72
   3  -2   7   13.21    0.56
   3  -2   7   12.57    0.58
   4  -2   7    2.28    0.19
   4  -2   7    2.31    0.27
   5  -2   7    5.67    0.32
   6  -2   7   13.89    0.61
   6  -2   7   13.68    0.59
   7  -2   7    3.03    0.23
   7  -2   7    2.90    0.21
   8  -2   7    0.01    0.08
  -9  -1   7    1.48    0.14
  -8  -1   7    0.48    0.13
  -7  -1   7   14.64    0.64
  -6  -1   7    0.21    0.11
   5   1  -7    5.74    0.33
  -5  -1   7    6.26    0.37
   4   1  -7    4.26    0.24
  -4  -1   7    4.74    0.33
  -4  -1   7    4.15    0.36
   3   1  -7    6.51    0.32
  -3  -1   7    6.66    0.39
  -3  -1   7    6.93    0.39
  -2  -1   7    1.03    0.24
  -2  -1   7    1.39    0.23
   1   1  -7    0.29    0.17
   0  -1   7    0.02    0.06
   1  -1   7   19.81    0.80
  -2   1  -7   55.03    2.33
   2  -1   7   60.43    2.22
   3  -1   7   10.25    0.43
   3  -1   7    9.12    0.45
   4  -1   7   11.57    0.54
   4  -1   7   11.86    0.52
   5  -1   7    1.01    0.26
   5  -1   7    1.32    0.17
   6  -1   7   70.31    2.71
   7  -1   7   -0.11    0.11
  -8   0   7    2.52    0.18
  -7   0   7   21.79    0.90
   6   0  -7    3.22    0.25
  -6   0   7    4.02    0.28
   5   0  -7    0.32    0.11
  -5   0   7    0.28    0.11
   4   0  -7    1.20    0.16
  -4   0   7    0.99    0.24
   3   0  -7   18.52    0.72
  -3   0   7   17.77    0.76
  -3   0   7   16.05    0.77
   2   0  -7   60.01    2.20
  -2   0   7   54.66    2.22
   1   0  -7    4.04    0.35
   0   0  -7   22.74    1.00
  -1   0  -7   38.80    1.66
   1   0   7   41.88    1.57
  -2   0  -7  128.77    4.97
   2   0   7  128.57    4.87
  -3   0  -7    5.70    0.47
   3   0   7    6.10    0.29
   4   0   7    0.57    0.19
   4   0   7    0.69    0.13
   4   0   7    0.84    0.24
   5   0   7   15.99    0.68
   5   0   7   16.00    0.67
   5   0   7   15.72    0.72
   6   0   7   10.22    0.57
   6   0   7    9.71    0.47
   6   0   7   10.62    0.49
  -7   1   7    0.02    0.09
   6  -1  -7    0.46    0.15
  -6   1   7    0.74    0.20
   5  -1  -7    1.81    0.17
  -5   1   7    1.88    0.25
   4  -1  -7    1.04    0.15
  -4   1   7    0.92    0.23
   3  -1  -7   20.45    0.84
  -3   1   7   20.72    0.88
   2  -1  -7   42.82    1.69
  -2   1   7   44.68    1.72
   1  -1  -7   35.15    1.32
   1  -1  -7   33.80    1.40
  -1   1   7   32.55    1.34
   0  -1  -7   46.34    1.87
  -1  -1  -7   69.26    2.73
  -2  -1  -7  150.71    5.72
   2   1   7  147.00    5.62
  -3  -1  -7   13.69    0.71
   3   1   7   13.50    0.57
   4   1   7    2.78    0.22
   4   1   7    2.59    0.24
   4   1   7    2.88    0.21
   5   1   7   24.80    0.99
   5   1   7   23.91    0.99
   5   1   7   24.71    1.00
   6   1   7   14.89    0.67
   6   1   7   14.77    0.64
   7   1   7    2.31    0.26
   7   1   7    2.68    0.31
   8   1   7    2.12    0.33
   8   1   7    2.03    0.23
   9   1   7   14.98    0.62
   6  -2  -7    3.73    0.22
  -6   2   7    3.26    0.26
   5  -2  -7    0.04    0.07
  -5   2   7   -0.07    0.11
   4  -2  -7   53.35    2.12
  -4   2   7   55.89    2.14
   3  -2  -7    4.24    0.24
  -3   2   7    4.27    0.31
   2  -2  -7   13.90    0.58
  -2   2   7   13.95    0.62
   1  -2  -7    1.40    0.12
  -1   2   7    0.90    0.21
   0  -2  -7    1.74    0.14
   0  -2  -7    1.55    0.32
  -1  -2  -7    0.80    0.30
  -2  -2  -7   44.59    1.83
   3   2   7   11.22    0.49
   3   2   7   10.92    0.49
   4   2   7   14.35    0.62
   4   2   7   14.77    0.62
   5   2   7   38.15    1.45
   5   2   7   35.26    1.45
   6   2   7   47.58    1.89
   6   2   7   48.38    1.87
   7   2   7    6.18    0.36
   7   2   7    6.26    0.38
   7   2   7    6.36    0.35
   8   2   7    0.95    0.24
   8   2   7    0.62    0.12
   8   2   7    0.69    0.21
   9   2   7   14.60    0.64
   9   2   7   13.59    0.59
  10   2   7    0.75    0.15
   6  -3  -7    1.75    0.17
   5  -3  -7   10.87    0.49
  -5   3   7   11.37    0.52
   4  -3  -7  170.45    6.67
  -4   3   7  182.54    6.68
   3  -3  -7    1.66    0.16
  -3   3   7    1.29    0.24
   2  -3  -7    0.05    0.07
  -2   3   7    0.41    0.12
   1  -3  -7    0.15    0.06
  -1   3   7    0.01    0.10
   0  -3  -7   -0.30    0.22
   0  -3  -7    0.14    0.06
   0   3   7    0.12    0.10
  -1  -3  -7   76.50    2.82
  -1  -3  -7   71.83    2.94
   1   3   7   73.51    2.83
  -2  -3  -7    0.13    0.08
   2   3   7    0.12    0.08
  -3  -3  -7   17.64    0.71
   3   3   7   17.18    0.71
   3   3   7   16.89    0.72
   4   3   7   12.43    0.54
   4   3   7   12.45    0.54
   5   3   7    1.49    0.18
   5   3   7    1.13    0.17
   6   3   7    1.65    0.21
   6   3   7    1.72    0.25
   6   3   7    1.51    0.19
   7   3   7    9.99    0.50
   7   3   7   10.20    0.48
   7   3   7   10.40    0.48
   8   3   7   12.79    0.59
   8   3   7   12.17    0.56
   8   3   7   12.63    0.56
   9   3   7    1.49    0.23
   9   3   7    1.22    0.19
   9   3   7    1.39    0.16
  10   3   7    1.71    0.16
  10   3   7    1.38    0.20
   6  -4  -7    1.45    0.15
   5  -4  -7    0.15    0.07
   4  -4  -7   39.89    1.57
   3  -4  -7   57.00    2.21
  -3   4   7   57.25    2.22
   2  -4  -7    2.20    0.18
  -2   4   7    2.08    0.25
   1  -4  -7   17.27    0.70
  -1   4   7   15.89    0.71
   0  -4  -7   13.72    0.57
   0   4   7   13.03    0.59
  -1  -4  -7   17.48    0.69
   1   4   7   17.15    0.71
   1   4   7   15.77    0.73
  -2  -4  -7   11.42    0.48
   2   4   7   10.77    0.49
   2   4   7   10.88    0.51
  -3  -4  -7   86.77    3.37
   3   4   7   90.22    3.38
   3   4   7   88.75    3.38
   4   4   7   17.82    0.74
   4   4   7   17.40    0.74
   5   4   7    0.30    0.12
   5   4   7    0.21    0.09
   5   4   7    0.22    0.10
   6   4   7   16.17    0.79
   6   4   7   20.44    0.81
   6   4   7   20.92    0.82
   7   4   7   17.00    0.73
   7   4   7   17.11    0.76
   7   4   7   17.61    0.72
   8   4   7   11.05    0.50
   8   4   7   10.66    0.50
   8   4   7   11.86    0.55
   9   4   7    0.70    0.15
   9   4   7    0.72    0.19
   9   4   7    0.69    0.15
  10   4   7    2.18    0.21
  10   4   7    2.50    0.19
  10   4   7    2.20    0.17
  11   4   7   10.89    0.48
   5  -5  -7    2.18    0.16
  -5   5   7    2.29    0.18
   4  -5  -7    0.20    0.07
   3  -5  -7    0.07    0.07
   2  -5  -7    9.77    0.44
   1  -5  -7    9.41    0.42
  -1   5   7    8.45    0.45
  -1   5   7    8.72    0.42
   0  -5  -7    0.78    0.14
   0   5   7    1.14    0.19
   0   5   7    0.60    0.14
  -1  -5  -7    0.12    0.09
   1   5   7    0.65    0.20
   1   5   7    0.22    0.10
  -2  -5  -7    5.13    0.28
   2   5   7    5.45    0.36
   2   5   7    4.72    0.29
   2   5   7    4.92    0.30
   3   5   7    8.37    0.44
   3   5   7    9.89    0.46
   3   5   7   10.06    0.44
   4   5   7    2.42    0.22
   4   5   7    2.41    0.22
   4   5   7    2.95    0.23
   5   5   7   23.36    0.96
   5   5   7   23.81    0.97
   5   5   7   23.46    0.95
   6   5   7   33.87    1.36
   6   5   7   34.41    1.33
   6   5   7   33.08    1.34
   7   5   7   12.09    0.54
   7   5   7   12.17    0.53
   7   5   7   12.04    0.57
   8   5   7   21.18    0.88
   8   5   7   22.23    0.88
   8   5   7   21.07    0.91
   9   5   7   10.60    0.46
   9   5   7   10.43    0.50
   9   5   7   10.35    0.46
  10   5   7    0.22    0.07
  10   5   7    0.45    0.13
  10   5   7    0.17    0.09
  11   5   7   25.53    1.00
   4  -6  -7    2.10    0.15
  -4   6   7    1.79    0.16
   3  -6  -7    0.12    0.07
  -3   6   7    0.23    0.08
   2  -6  -7   10.13    0.46
  -2   6   7   10.16    0.45
   1  -6  -7   10.02    0.47
  -1   6   7   10.75    0.46
   0  -6  -7   19.75    0.80
   0   6   7   19.00    0.79
  -1  -6  -7    0.23    0.09
   1   6   7    0.32    0.09
   1   6   7    0.36    0.13
  -2  -6  -7   29.96    1.16
   2   6   7   29.66    1.17
   2   6   7   27.90    1.14
   3   6   7    8.83    0.44
   3   6   7    8.49    0.42
   3   6   7    8.15    0.39
   4   6   7    0.19    0.11
   4   6   7   -0.03    0.09
   4   6   7   -0.03    0.08
   5   6   7   44.05    1.70
   5   6   7   42.57    1.68
   5   6   7   42.89    1.71
   6   6   7   36.50    1.45
   6   6   7   37.23    1.44
   6   6   7   36.15    1.47
   7   6   7    0.14    0.08
   7   6   7    0.03    0.09
   7   6   7   -0.06    0.09
   8   6   7    1.36    0.16
   8   6   7    1.41    0.19
   8   6   7    1.50    0.16
   9   6   7    6.08    0.29
   9   6   7    5.99    0.33
   9   6   7    5.97    0.30
  10   6   7    5.90    0.27
  10   6   7    5.49    0.30
  -4   7   7    0.13    0.09
   3  -7  -7    1.37    0.14
  -3   7   7    1.37    0.14
   2  -7  -7    2.74    0.19
  -2   7   7    3.08    0.19
   1  -7  -7    9.04    0.43
  -1   7   7    9.97    0.42
   0  -7  -7   28.00    1.14
   0   7   7   29.38    1.13
  -1  -7  -7    8.12    0.41
   1   7   7    9.28    0.40
   2   7   7   68.10    2.60
   3   7   7    7.24    0.34
   3   7   7    6.75    0.41
   3   7   7    7.28    0.41
   4   7   7    5.39    0.28
   4   7   7    5.14    0.34
   4   7   7    5.68    0.33
   5   7   7   21.76    0.90
   5   7   7   21.70    0.88
   5   7   7   21.69    0.92
   6   7   7   10.19    0.47
   6   7   7   10.29    0.45
   6   7   7    9.51    0.49
   7   7   7   13.54    0.59
   7   7   7   13.43    0.62
   7   7   7   13.95    0.58
   8   7   7    5.58    0.28
   8   7   7    5.59    0.32
   8   7   7    5.49    0.28
   9   7   7    4.36    0.24
   9   7   7    4.57    0.23
   9   7   7    4.45    0.26
  10   7   7    2.17    0.14
  10   7   7    1.68    0.16
   2  -8  -7    9.10    0.39
  -2   8   7    7.93    0.36
   1  -8  -7    4.20    0.25
  -1   8   7    4.01    0.21
   0  -8  -7    4.49    0.26
   0   8   7    3.95    0.22
   1   8   7   12.15    0.51
   2   8   7    2.58    0.18
   3   8   7    0.02    0.07
   4   8   7    0.90    0.13
   4   8   7    0.86    0.22
   5   8   7    1.82    0.20
   5   8   7    1.82    0.16
   5   8   7    2.28    0.28
   6   8   7    4.28    0.30
   6   8   7    4.33    0.24
   6   8   7    4.57    0.26
   7   8   7    2.05    0.16
   7   8   7    2.30    0.18
   7   8   7    2.19    0.21
   8   8   7    8.44    0.37
   8   8   7    8.17    0.37
   8   8   7    8.25    0.40
   9   8   7    0.37    0.11
   9   8   7    0.17    0.08
  -1   9   7    1.45    0.12
   0   9   7    0.16    0.05
   1   9   7    1.65    0.12
   2   9   7    1.67    0.13
   3   9   7    2.54    0.16
   4   9   7   13.05    0.54
   5   9   7    0.70    0.11
   6   9   7    0.01    0.05
   7   9   7    6.41    0.38
   7   9   7    6.85    0.30
   8   9   7    0.13    0.12
   8   9   7    0.06    0.06
   9   9   7    0.30    0.06
   1  10   7    2.10    0.13
   2  10   7    8.82    0.37
   3  10   7    4.18    0.20
   4  10   7   13.44    0.54
   5  10   7   18.49    0.73
   6  10   7    0.02    0.05
   7  10   7    0.63    0.10
  -5  -9   8    5.18    0.25
   4   9  -8    3.27    0.19
  -4  -9   8    3.08    0.19
   3   9  -8   13.26    0.54
  -3  -9   8   13.32    0.55
   2   9  -8    0.07    0.08
   1   9  -8    0.00    0.08
   0   9  -8   10.50    0.44
  -1   9  -8    0.53    0.13
   6   8  -8    0.59    0.15
  -6  -8   8    0.54    0.12
   5   8  -8    0.15    0.09
  -5  -8   8    0.14    0.08
   4   8  -8    3.09    0.21
  -4  -8   8    3.18    0.21
   3   8  -8    0.05    0.09
  -3  -8   8    0.14    0.10
   2   8  -8    1.87    0.18
  -2  -8   8    2.21    0.19
   0   8  -8    7.63    0.35
   0  -8   8    7.10    0.41
  -1   8  -8    3.85    0.23
   1  -8   8    4.38    0.28
  -2   8  -8    0.15    0.08
   2  -8   8    0.04    0.12
  -3   8  -8    3.31    0.20
   7   7  -8    7.25    0.34
  -7  -7   8    7.77    0.34
   6   7  -8    1.22    0.16
  -6  -7   8    1.07    0.15
   5   7  -8   25.93    1.02
  -5  -7   8   25.66    1.04
   4   7  -8    0.13    0.11
  -4  -7   8    0.58    0.15
   3   7  -8    0.04    0.10
  -3  -7   8    0.08    0.10
   2   7  -8   -0.09    0.11
  -2  -7   8    0.08    0.11
   1   7  -8   -0.17    0.11
  -1  -7   8   -0.02    0.13
  -1  -7   8   -0.01    0.10
   0   7  -8   10.48    0.46
   0  -7   8    9.59    0.47
  -1   7  -8    6.53    0.32
   1  -7   8    6.20    0.34
   2  -7   8    2.90    0.21
   3  -7   8    0.25    0.09
   4  -7   8    1.87    0.18
   7   6  -8    2.11    0.18
  -7  -6   8    1.91    0.16
  -7  -6   8    1.43    0.20
   6   6  -8    0.30    0.10
  -6  -6   8    0.27    0.09
  -6  -6   8    0.16    0.12
   5   6  -8   66.17    2.56
  -5  -6   8   67.57    2.59
   4   6  -8    1.36    0.22
  -4  -6   8    0.94    0.20
   3   6  -8    8.99    0.44
  -3  -6   8    8.86    0.45
   2   6  -8    7.64    0.41
  -2  -6   8    8.55    0.42
   1   6  -8    7.37    0.37
  -1  -6   8    7.14    0.38
  -1  -6   8    6.66    0.37
   0   6  -8   62.27    2.33
   0  -6   8   57.48    2.35
   0  -6   8   61.96    2.35
   2  -6   8    1.08    0.15
   3  -6   8   16.69    0.72
   4  -6   8    0.32    0.10
   5  -6   8    4.26    0.25
  -8  -5   8    0.19    0.07
   7   5  -8    7.75    0.38
  -7  -5   8    8.49    0.38
  -7  -5   8    8.07    0.39
   6   5  -8   36.49    1.45
  -6  -5   8   36.72    1.48
  -6  -5   8   38.43    1.47
   5   5  -8   53.76    2.09
  -5  -5   8   52.85    2.11
  -5  -5   8   55.48    2.11
   4   5  -8    0.06    0.13
  -4  -5   8    0.18    0.15
  -4  -5   8    0.04    0.12
   3   5  -8    2.35    0.25
  -3  -5   8    2.41    0.23
   2   5  -8    0.11    0.15
  -2  -5   8    0.30    0.12
   1   5  -8    1.08    0.24
  -1  -5   8    0.77    0.17
  -1  -5   8    0.65    0.20
   0   5  -8   12.75    0.62
   0  -5   8   14.87    0.63
   0  -5   8   14.23    0.61
   1  -5   8   11.01    0.51
   1  -5   8   10.60    0.50
   2  -5   8   41.95    1.66
   3  -5   8   27.88    1.14
   4  -5   8    0.05    0.09
   5  -5   8    1.93    0.18
   6  -5   8    6.87    0.34
  -8  -4   8    3.93    0.22
  -7  -4   8    2.32    0.21
  -7  -4   8    2.58    0.22
   6   4  -8    8.86    0.45
  -6  -4   8   10.20    0.48
  -6  -4   8    9.88    0.46
   5   4  -8    0.35    0.15
  -5  -4   8    0.01    0.12
  -5  -4   8    0.31    0.13
   4   4  -8    0.20    0.16
  -4  -4   8    0.09    0.13
  -4  -4   8    0.18    0.13
  -3  -4   8    0.93    0.28
  -2  -4   8   45.72    1.75
  -2  -4   8   42.79    1.76
  -1  -4   8    6.53    0.34
   0  -4   8    0.10    0.09
   0  -4   8    0.13    0.12
   1  -4   8    4.24    0.25
   1  -4   8    3.93    0.28
   2  -4   8    0.77    0.15
   2  -4   8    0.43    0.13
   3  -4   8    2.42    0.21
   4  -4   8    0.11    0.09
   4  -4   8   -0.02    0.13
   5  -4   8    2.00    0.19
   5  -4   8    1.89    0.22
   6  -4   8    1.93    0.19
   6  -4   8    1.42    0.18
   7  -4   8   14.43    0.62
  -8  -3   8    3.11    0.19
  -7  -3   8    2.83    0.22
  -6  -3   8    1.32    0.23
  -6  -3   8    1.45    0.22
  -5  -3   8   11.54    0.54
  -5  -3   8   11.44    0.56
   4   3  -8   18.27    0.79
  -4  -3   8   19.21    0.83
  -4  -3   8   19.43    0.82
   3   3  -8   81.80    3.02
  -3  -3   8   79.77    3.05
  -3  -3   8   74.83    3.03
  -2  -3   8   25.75    1.07
  -2  -3   8   26.17    1.07
  -1  -3   8    1.77    0.31
  -1  -3   8    2.07    0.22
  -1  -3   8    2.04    0.18
   0  -3   8    3.02    0.20
   0  -3   8    2.90    0.24
   1  -3   8   16.10    0.68
   1  -3   8   16.41    0.70
   2  -3   8   69.06    2.66
   3  -3   8   57.99    2.24
   3  -3   8   57.22    2.22
   4  -3   8  116.31    4.44
   5  -3   8   20.74    0.87
   6  -3   8    3.51    0.24
   7  -3   8    0.29    0.11
  -8  -2   8    1.42    0.13
  -7  -2   8   -0.05    0.07
  -6  -2   8   12.75    0.59
  -5  -2   8    3.58    0.28
  -5  -2   8    2.81    0.29
   4   2  -8   13.67    0.59
  -4  -2   8   13.60    0.62
  -4  -2   8   13.65    0.63
   3   2  -8    0.32    0.09
  -3  -2   8    0.32    0.13
  -3  -2   8    0.42    0.13
  -2  -2   8    0.17    0.12
  -2  -2   8    0.10    0.12
  -1  -2   8    3.75    0.27
  -1  -2   8    3.67    0.30
   0  -2   8    1.97    0.28
   0  -2   8    2.26    0.22
   0  -2   8    2.26    0.17
   1  -2   8   43.77    1.74
   1  -2   8   45.46    1.74
   2  -2   8    1.77    0.15
   2  -2   8    1.49    0.19
   3  -2   8   33.81    1.36
   3  -2   8   34.69    1.35
   4  -2   8  163.76    6.10
   4  -2   8  157.82    6.08
   5  -2   8    0.29    0.10
   6  -2   8   20.39    0.85
   7  -2   8   15.93    0.68
  -8  -1   8    0.09    0.06
  -7  -1   8   11.57    0.51
  -6  -1   8    3.22    0.25
   5   1  -8    2.12    0.21
  -5  -1   8    2.10    0.25
   4   1  -8   44.10    1.68
  -4  -1   8   40.05    1.69
  -4  -1   8   44.41    1.72
   3   1  -8   31.07    1.22
  -3  -1   8   29.49    1.24
  -3  -1   8   31.71    1.26
   2   1  -8   24.45    0.98
  -2  -1   8   23.48    1.00
  -2  -1   8   25.07    1.01
  -1  -1   8    0.93    0.22
  -1  -1   8    1.37    0.21
   0  -1   8    0.86    0.20
   0  -1   8    1.27    0.14
   0  -1   8    1.10    0.23
   1  -1   8    0.24    0.11
   1  -1   8    0.22    0.11
   2  -1   8    0.37    0.12
   2  -1   8    0.12    0.13
   2  -1   8    0.24    0.11
   3  -1   8   22.72    0.92
   3  -1   8   22.25    0.91
   4  -1   8    1.33    0.15
   4  -1   8    1.09    0.20
   5  -1   8    1.56    0.23
   5  -1   8    1.22    0.17
   6  -1   8    0.14    0.10
   7  -1   8   -0.19    0.12
  -8   0   8    0.69    0.12
  -7   0   8    7.56    0.36
   6   0  -8    2.39    0.24
  -6   0   8    3.38    0.24
   5   0  -8   18.39    0.81
  -5   0   8   21.00    0.85
   4   0  -8   40.15    1.62
  -4   0   8   42.87    1.66
   3   0  -8   12.14    0.50
  -3   0   8    9.98    0.52
  -3   0   8   11.19    0.54
   2   0  -8   10.35    0.44
  -2   0   8    9.09    0.49
  -2   0   8   10.15    0.48
   1   0  -8   18.30    1.21
  -1   0   8   24.06    0.92
  -1   0   8   22.94    0.91
   0   0   8   28.84    1.15
   0   0   8   28.64    1.15
   1   0   8   58.74    2.40
   1   0   8   61.13    2.40
   1   0   8   67.59    2.40
   2   0   8    0.07    0.07
   2   0   8   -0.04    0.10
   2   0   8    0.24    0.11
   3   0   8   25.59    1.06
   3   0   8   26.13    1.06
   3   0   8   27.34    1.06
   4   0   8   53.80    2.12
   4   0   8   54.88    2.11
   4   0   8   55.43    2.12
   5   0   8    1.30    0.18
   5   0   8    1.00    0.17
   5   0   8    0.69    0.19
   6   0   8    1.42    0.33
   6   0   8    1.64    0.23
   6   0   8    1.67    0.22
  -7   1   8    1.08    0.14
   6  -1  -8    2.61    0.21
  -6   1   8    2.36    0.21
   5  -1  -8    0.83    0.15
  -5   1   8    0.70    0.20
   4  -1  -8    1.65    0.17
  -4   1   8    1.63    0.22
   3  -1  -8    0.12    0.08
  -3   1   8    0.27    0.12
   2  -1  -8    0.13    0.07
  -2   1   8   -0.14    0.18
  -2   1   8    0.06    0.10
   1  -1  -8    0.33    0.11
  -1   1   8    0.28    0.10
  -1   1   8    0.21    0.15
   0   1   8   15.53    0.65
   0   1   8   14.65    0.65
   1   1   8    5.13    0.30
   1   1   8    5.34    0.30
   2   1   8    4.05    0.26
   2   1   8    4.35    0.27
   3   1   8    2.02    0.20
   3   1   8    1.70    0.19
   3   1   8    2.10    0.17
   4   1   8   85.03    3.33
   4   1   8   90.19    3.33
   4   1   8   86.77    3.33
   5   1   8   15.48    0.67
   5   1   8   15.60    0.68
   5   1   8   15.54    0.66
   6   1   8    1.30    0.20
   6   1   8    1.29    0.24
   7   1   8   51.27    2.03
   7   1   8   53.23    2.06
   8   1   8    2.91    0.34
   6  -2  -8   11.61    0.49
  -6   2   8   10.82    0.49
   5  -2  -8    9.38    0.44
  -5   2   8   10.21    0.48
   4  -2  -8    0.89    0.14
  -4   2   8    0.56    0.13
   3  -2  -8    0.21    0.08
  -3   2   8   -0.15    0.10
   2  -2  -8    0.57    0.12
  -2   2   8    0.24    0.10
   1  -2  -8   56.62    2.03
  -1   2   8   47.49    2.04
  -1   2   8   53.03    2.04
   0  -2  -8    2.83    0.18
   0   2   8    2.95    0.27
   0   2   8    2.35    0.22
  -1  -2  -8    2.02    0.16
   1   2   8    2.23    0.23
   1   2   8    2.01    0.19
   2   2   8   11.53    0.52
   2   2   8   12.02    0.52
   3   2   8    5.54    0.30
   3   2   8    5.35    0.30
   4   2   8    1.44    0.17
   4   2   8    1.00    0.17
   5   2   8    2.55    0.21
   5   2   8    2.47    0.22
   6   2   8    1.08    0.20
   6   2   8    1.07    0.18
   7   2   8    5.67    0.32
   7   2   8    5.82    0.36
   8   2   8    2.20    0.23
   8   2   8    2.03    0.26
   9   2   8    4.27    0.32
   6  -3  -8    0.44    0.15
   5  -3  -8    6.92    0.33
  -5   3   8    6.67    0.35
   4  -3  -8    0.45    0.12
  -4   3   8    0.24    0.11
   3  -3  -8   26.08    1.08
  -3   3   8   27.47    1.09
   2  -3  -8    1.50    0.15
  -2   3   8    1.24    0.20
   1  -3  -8   27.55    1.08
  -1   3   8   26.32    1.09
   0  -3  -8   15.69    0.62
   0   3   8   15.00    0.63
   0   3   8   13.58    0.66
  -1  -3  -8    0.15    0.07
   1   3   8    0.25    0.13
   1   3   8    0.00    0.08
  -2  -3  -8  176.68    6.51
   2   3   8  168.89    6.51
   2   3   8  172.00    6.52
  -3  -3  -8   10.49    0.47
   3   3   8   10.40    0.47
   3   3   8   10.49    0.47
  -4  -3  -8    9.53    0.47
   4   3   8   10.81    0.47
   4   3   8   10.18    0.46
   5   3   8    0.57    0.15
   5   3   8    0.45    0.10
   6   3   8    5.86    0.32
   6   3   8    5.69    0.33
   7   3   8    0.59    0.19
   7   3   8    0.38    0.11
   9   3   8    1.35    0.21
   9   3   8    1.56    0.18
  10   3   8    2.29    0.22
   5  -4  -8    1.28    0.14
   4  -4  -8    2.17    0.17
   3  -4  -8   17.66    0.75
  -3   4   8   18.42    0.76
   2  -4  -8    4.87    0.29
  -2   4   8    6.47    0.33
   1  -4  -8    4.33    0.25
  -1   4   8    4.14    0.28
   0  -4  -8    0.93    0.15
   0   4   8    0.82    0.18
  -1  -4  -8    0.16    0.08
   1   4   8    0.13    0.09
   1   4   8    0.08    0.15
  -2  -4  -8   62.06    2.40
   2   4   8   62.54    2.41
   2   4   8   63.22    2.41
  -3  -4  -8    7.12    0.35
   3   4   8    7.01    0.35
   3   4   8    7.39    0.37
   4   4   8    1.42    0.17
   4   4   8    1.51    0.18
   5   4   8   10.67    0.50
   5   4   8   10.96    0.49
   6   4   8    8.53    0.42
   6   4   8    8.61    0.43
   7   4   8   34.02    1.38
   7   4   8   35.59    1.41
   8   4   8    0.02    0.11
   8   4   8    0.06    0.10
   8   4   8   -0.02    0.10
   9   4   8    3.24    0.22
   9   4   8    3.27    0.21
   9   4   8    3.43    0.25
  10   4   8   16.10    0.66
  10   4   8   16.62    0.69
   5  -5  -8    2.63    0.17
   4  -5  -8   21.28    0.86
   3  -5  -8    3.80    0.22
   2  -5  -8   27.81    1.12
   1  -5  -8    9.47    0.43
  -1   5   8    9.21    0.46
   0  -5  -8   30.54    1.17
   0   5   8   27.75    1.17
  -1  -5  -8    2.73    0.21
   1   5   8    2.60    0.22
  -2  -5  -8    1.36    0.18
   2   5   8    1.28    0.26
   2   5   8    1.07    0.18
  -3  -5  -8    1.79    0.24
   3   5   8    2.33    0.20
   3   5   8    1.52    0.23
   4   5   8    0.23    0.09
   4   5   8    0.09    0.11
   5   5   8    5.59    0.32
   5   5   8    6.05    0.32
   5   5   8    5.06    0.32
   6   5   8    6.15    0.33
   6   5   8    6.27    0.33
   6   5   8    6.16    0.35
   7   5   8   25.78    1.03
   7   5   8   24.34    1.01
   7   5   8   25.28    1.05
   8   5   8    0.01    0.10
   8   5   8    0.02    0.09
   9   5   8    8.55    0.39
   9   5   8    9.05    0.40
   9   5   8    8.54    0.42
  10   5   8    2.95    0.20
  10   5   8    2.65    0.17
  10   5   8    2.18    0.28
   4  -6  -8    2.87    0.18
   3  -6  -8   18.79    0.76
   2  -6  -8    2.90    0.19
  -2   6   8    1.94    0.20
   1  -6  -8    3.78    0.24
  -1   6   8    4.44    0.27
   0  -6  -8   30.34    1.20
   0   6   8   28.35    1.31
   0   6   8   31.19    1.18
  -1  -6  -8    1.03    0.17
   1   6   8    1.21    0.21
   1   6   8    1.30    0.19
  -2  -6  -8   26.61    1.05
   2   6   8   25.67    1.03
   2   6   8   25.58    1.05
   3   6   8    5.61    0.31
   3   6   8    5.98    0.34
   3   6   8    5.95    0.32
   4   6   8   47.90    1.86
   4   6   8   47.79    1.86
   4   6   8   47.01    1.84
   5   6   8    9.87    0.45
   5   6   8    9.47    0.43
   5   6   8    9.19    0.46
   6   6   8    6.97    0.35
   6   6   8    6.55    0.37
   6   6   8    6.66    0.34
   7   6   8    1.71    0.19
   7   6   8    1.66    0.21
   7   6   8    1.94    0.18
   8   6   8   12.95    0.55
   8   6   8   12.51    0.57
   8   6   8   12.99    0.55
   9   6   8    5.24    0.27
   9   6   8    5.30    0.26
   9   6   8    5.09    0.29
  10   6   8    6.32    0.28
  10   6   8    6.13    0.31
  10   6   8    6.61    0.31
   3  -7  -8    2.25    0.17
   2  -7  -8    0.98    0.14
  -2   7   8    1.01    0.14
   1  -7  -8    8.33    0.37
  -1   7   8    7.43    0.35
   0  -7  -8    0.52    0.15
   0   7   8    0.38    0.09
  -1  -7  -8    2.05    0.21
   1   7   8    2.33    0.19
   2   7   8    3.53    0.30
   2   7   8    3.92    0.23
   3   7   8    3.83    0.29
   3   7   8    3.75    0.33
   3   7   8    3.64    0.23
   4   7   8   17.46    0.72
   4   7   8   17.82    0.76
   4   7   8   17.62    0.75
   5   7   8   14.65    0.64
   5   7   8   13.91    0.62
   5   7   8   14.19    0.60
   6   7   8   11.60    0.52
   6   7   8   11.82    0.51
   6   7   8   11.73    0.55
   7   7   8    1.65    0.19
   7   7   8    1.53    0.16
   7   7   8    1.45    0.15
   8   7   8    3.16    0.19
   8   7   8    2.96    0.20
   8   7   8    2.98    0.22
   9   7   8   10.85    0.48
   9   7   8   10.39    0.45
   9   7   8   10.91    0.45
  10   7   8    5.66    0.28
   1  -8  -8    0.44    0.12
  -1   8   8    0.45    0.13
   0  -8  -8    0.67    0.19
   0   8   8    0.77    0.13
   1   8   8    2.18    0.16
   2   8   8   13.32    0.55
   3   8   8    3.98    0.22
   4   8   8    3.40    0.27
   4   8   8    2.89    0.20
   4   8   8    3.32    0.30
   5   8   8    1.35    0.14
   5   8   8    1.09    0.22
   5   8   8    1.12    0.17
   6   8   8    0.09    0.07
   6   8   8    0.02    0.11
   6   8   8    0.05    0.08
   7   8   8   -0.01    0.06
   7   8   8    0.07    0.07
   7   8   8   -0.07    0.10
   8   8   8    2.08    0.15
   8   8   8    1.90    0.15
   8   8   8    1.60    0.19
   9   8   8    4.20    0.23
   9   8   8    3.68    0.21
   0   9   8    2.52    0.16
   1   9   8    0.14    0.06
   2   9   8    1.34    0.13
   3   9   8   57.76    2.20
   4   9   8    8.78    0.38
   5   9   8   -0.04    0.06
   6   9   8    0.43    0.11
   7   9   8   -0.12    0.15
   7   9   8   -0.05    0.06
   8   9   8   -0.13    0.13
   8   9   8    0.08    0.07
   3  10   8    9.58    0.39
   4  10   8   -0.01    0.06
   5  10   8    0.17    0.06
   6  10   8    2.13    0.14
  -5  -8   9    0.22    0.07
  -4  -8   9    0.36    0.12
   3   8  -9    2.33    0.23
  -3  -8   9    2.84    0.18
   2   8  -9    0.00    0.11
  -2  -8   9    0.08    0.09
   1   8  -9    1.35    0.18
   0   8  -9    0.94    0.18
  -1   8  -9    0.72    0.18
   1  -8   9    0.53    0.17
  -6  -7   9    1.80    0.14
  -5  -7   9    0.45    0.13
   4   7  -9    0.04    0.13
  -4  -7   9    0.08    0.09
   3   7  -9    9.01    0.43
  -3  -7   9    9.36    0.43
   2   7  -9   24.70    0.99
  -2  -7   9   24.70    1.00
   1   7  -9    2.44    0.24
  -1  -7   9    2.17    0.18
   0   7  -9    3.15    0.24
   0  -7   9    2.76    0.24
   0  -7   9    2.48    0.22
  -1   7  -9    6.35    0.33
   1  -7   9    6.34    0.34
  -2   7  -9    7.79    0.37
   2  -7   9    7.57    0.38
  -3   7  -9    2.63    0.27
   3  -7   9    2.43    0.21
   4  -7   9    0.54    0.17
  -7  -6   9    3.36    0.19
  -6  -6   9    3.58    0.22
  -5  -6   9    0.76    0.14
   4   6  -9    0.30    0.17
   3   6  -9    9.13    0.47
  -3  -6   9   10.29    0.47
   2   6  -9    0.89    0.25
  -2  -6   9    0.56    0.18
   1   6  -9    1.25    0.24
  -1  -6   9    0.82    0.17
  -1  -6   9    0.86    0.20
   0   6  -9    1.58    0.25
   0  -6   9    1.52    0.20
   0  -6   9    1.69    0.19
  -1   6  -9    9.97    0.45
   1  -6   9    9.13    0.44
   1  -6   9    8.86    0.44
  -2   6  -9   23.27    0.92
   2  -6   9   22.13    0.94
   3  -6   9    0.48    0.15
   4  -6   9    0.03    0.09
   5  -6   9   16.93    0.70
  -7  -5   9    1.42    0.16
  -7  -5   9    1.81    0.17
  -6  -5   9    3.77    0.25
  -6  -5   9    3.98    0.24
  -5  -5   9    4.20    0.29
  -5  -5   9    4.37    0.27
  -4  -5   9    2.21    0.26
  -4  -5   9    1.79    0.22
  -3  -5   9    9.39    0.47
  -2  -5   9    1.55    0.21
  -1  -5   9    3.64    0.27
  -1  -5   9    3.57    0.25
   0  -5   9   23.77    0.95
   0  -5   9   22.41    0.95
   1  -5   9   13.51    0.62
   1  -5   9   14.52    0.62
   2  -5   9    7.76    0.40
   2  -5   9    7.14    0.38
   3  -5   9    5.03    0.29
   4  -5   9   -0.08    0.07
   5  -5   9   13.46    0.59
   6  -5   9    0.13    0.10
  -8  -4   9    0.54    0.11
  -7  -4   9    4.11    0.24
  -6  -4   9   19.61    0.82
  -6  -4   9   19.55    0.80
  -5  -4   9   62.09    2.43
  -5  -4   9   63.57    2.44
  -4  -4   9   10.93    0.55
  -4  -4   9   11.92    0.54
   3   4  -9   50.99    1.99
  -3  -4   9   51.61    2.01
  -3  -4   9   51.04    2.02
  -2  -4   9    0.11    0.15
  -2  -4   9    0.06    0.12
  -1  -4   9    8.38    0.41
  -1  -4   9    8.54    0.43
   0  -4   9   45.98    1.74
   0  -4   9   42.54    1.74
   1  -4   9   16.13    0.71
   1  -4   9   17.55    0.73
   2  -4   9    5.99    0.34
   2  -4   9    6.29    0.33
   3  -4   9    0.13    0.14
   3  -4   9    0.06    0.08
   4  -4   9    9.12    0.44
   5  -4   9    4.54    0.27
   6  -4   9    1.62    0.18
  -8  -3   9    0.00    0.05
  -7  -3   9    2.10    0.17
  -6  -3   9   21.77    0.89
  -6  -3   9   20.77    0.86
  -5  -3   9    0.91    0.20
  -5  -3   9    1.00    0.21
   4   3  -9   16.26    0.76
  -4  -3   9   19.92    0.81
  -4  -3   9   18.80    0.79
   3   3  -9    5.30    0.30
  -3  -3   9    5.37    0.36
  -3  -3   9    5.12    0.33
  -2  -3   9    0.05    0.12
  -2  -3   9   -0.09    0.12
  -1  -3   9    5.62    0.37
  -1  -3   9    6.13    0.34
   0  -3   9    0.99    0.15
   0  -3   9    1.29    0.19
   1  -3   9    0.12    0.10
   1  -3   9    0.08    0.08
   2  -3   9    8.23    0.39
   2  -3   9    7.46    0.39
   3  -3   9   46.89    1.88
   3  -3   9   48.83    1.87
   4  -3   9    9.45    0.47
   5  -3   9   17.92    0.77
   6  -3   9    0.27    0.10
   7  -3   9    0.93    0.22
  -7  -2   9    1.36    0.15
  -6  -2   9    4.94    0.29
  -5  -2   9    8.24    0.43
  -5  -2   9    8.42    0.44
   4   2  -9    1.52    0.17
  -4  -2   9    1.73    0.23
  -4  -2   9    1.53    0.23
   3   2  -9   16.27    0.65
  -3  -2   9   14.29    0.68
  -3  -2   9   14.93    0.67
  -2  -2   9    8.65    0.44
  -2  -2   9    7.93    0.42
  -1  -2   9    6.08    0.36
  -1  -2   9    6.15    0.34
   0  -2   9    2.76    0.26
   0  -2   9    2.89    0.21
   0  -2   9    2.71    0.23
   1  -2   9    9.44    0.49
   1  -2   9   10.46    0.48
   1  -2   9   10.90    0.47
   2  -2   9    7.89    0.38
   2  -2   9    7.80    0.39
   3  -2   9    7.20    0.37
   3  -2   9    7.15    0.37
   4  -2   9   16.60    0.71
   4  -2   9   16.48    0.72
   5  -2   9    0.25    0.14
   5  -2   9    0.09    0.09
   6  -2   9    1.52    0.19
   7  -2   9    0.74    0.21
  -7  -1   9   14.53    0.60
  -6  -1   9    7.94    0.39
   5   1  -9    7.61    0.39
  -5  -1   9    8.58    0.42
   4   1  -9    1.77    0.19
  -4  -1   9    1.70    0.25
  -4  -1   9    1.67    0.22
   3   1  -9    4.06    0.25
  -3  -1   9    4.03    0.30
  -3  -1   9    4.01    0.29
   2   1  -9   16.32    0.67
  -2  -1   9   15.37    0.69
  -2  -1   9   15.67    0.70
  -1  -1   9   50.62    2.02
  -1  -1   9   53.34    2.03
   0  -1   9  123.17    4.81
   0  -1   9  130.12    4.81
   1  -1   9    6.29    0.31
   1  -1   9    5.55    0.33
   1  -1   9    6.09    0.32
   2  -1   9   12.88    0.55
   2  -1   9   12.06    0.57
   2  -1   9   12.77    0.55
   3  -1   9   29.09    1.17
   3  -1   9   30.39    1.18
   3  -1   9   28.39    1.18
   4  -1   9    0.68    0.13
   4  -1   9    0.86    0.17
   5  -1   9    1.33    0.19
   5  -1   9    1.30    0.21
   6  -1   9    0.16    0.11
   6  -1   9    0.02    0.14
  -7   0   9    0.81    0.12
  -6   0   9    3.96    0.24
   5   0  -9    0.80    0.16
  -5   0   9    0.74    0.18
   4   0  -9    0.77    0.14
  -4   0   9    1.16    0.21
   3   0  -9    0.74    0.14
  -3   0   9    0.80    0.20
  -3   0   9    0.52    0.17
   2   0  -9   43.10    1.62
  -2   0   9   40.47    1.64
  -2   0   9   40.41    1.63
   1   0  -9   13.78    0.58
  -1   0   9   13.22    0.59
  -1   0   9   12.80    0.59
   0   0   9    7.31    0.38
   0   0   9    7.81    0.39
   1   0   9    3.92    0.26
   1   0   9    4.12    0.26
   2   0   9   18.25    0.78
   2   0   9   19.73    0.78
   2   0   9   18.61    0.78
   3   0   9   70.35    2.85
   3   0   9   77.62    2.87
   3   0   9   75.87    2.86
   4   0   9    7.01    0.35
   4   0   9    6.89    0.35
   4   0   9    6.35    0.36
   5   0   9    7.16    0.37
   5   0   9    7.91    0.38
   5   0   9    6.90    0.41
   6   0   9   37.76    1.48
   6   0   9   37.29    1.48
   7   0   9    0.25    0.15
  -7   1   9    8.05    0.35
   6  -1  -9    4.13    0.26
  -6   1   9    3.88    0.23
   5  -1  -9    0.78    0.15
  -5   1   9    1.16    0.18
   4  -1  -9    5.65    0.31
  -4   1   9    6.41    0.35
   3  -1  -9   10.08    0.46
  -3   1   9    9.79    0.48
   2  -1  -9    3.34    0.21
  -2   1   9    2.47    0.31
  -2   1   9    3.39    0.26
   1  -1  -9   11.55    0.50
  -1   1   9   10.89    0.53
  -1   1   9   11.61    0.52
   0  -1  -9   21.60    0.85
   0   1   9   20.02    0.86
   0   1   9   20.67    0.86
   1   1   9   36.98    1.44
   1   1   9   36.29    1.44
   2   1   9   26.56    1.07
   2   1   9   26.47    1.06
   3   1   9   15.91    0.67
   3   1   9   15.76    0.67
   4   1   9    0.61    0.17
   4   1   9    0.58    0.16
   4   1   9    0.47    0.11
   5   1   9   12.37    0.57
   5   1   9   12.44    0.56
   5   1   9   12.87    0.55
   6   1   9    9.53    0.45
   6   1   9    9.50    0.47
   7   1   9    0.62    0.19
   7   1   9    0.21    0.15
   8   1   9   -0.12    0.13
   8   1   9    0.01    0.21
   6  -2  -9    1.25    0.20
  -6   2   9    1.01    0.14
   5  -2  -9    8.90    0.40
  -5   2   9    8.55    0.40
   4  -2  -9    4.52    0.26
  -4   2   9    5.11    0.29
   3  -2  -9   26.17    1.06
  -3   2   9   26.43    1.08
   2  -2  -9   55.41    2.13
  -2   2   9   54.45    2.14
   1  -2  -9    3.62    0.22
  -1   2   9    3.33    0.25
  -1   2   9    3.30    0.30
   0  -2  -9    3.43    0.22
   0   2   9    3.47    0.27
   0   2   9    3.55    0.25
  -1  -2  -9   77.83    2.91
   1   2   9   74.27    2.91
   1   2   9   75.85    2.91
   2   2   9    2.99    0.22
   2   2   9    3.00    0.22
   3   2   9   29.91    1.17
   3   2   9   28.93    1.17
   4   2   9    6.10    0.32
   4   2   9    6.24    0.32
   5   2   9   36.42    1.44
   5   2   9   36.30    1.44
   6   2   9    5.77    0.31
   6   2   9    5.98    0.35
   7   2   9    0.64    0.21
   7   2   9    1.03    0.18
   8   2   9    1.24    0.18
   8   2   9    1.85    0.24
   9   2   9   -0.01    0.14
   5  -3  -9    7.91    0.36
  -5   3   9    7.75    0.37
   4  -3  -9    4.79    0.26
  -4   3   9    5.14    0.29
   3  -3  -9    0.73    0.13
  -3   3   9    0.88    0.19
   2  -3  -9    2.63    0.19
  -2   3   9    2.75    0.23
   1  -3  -9   19.96    0.82
  -1   3   9   19.30    0.82
   0  -3  -9    8.70    0.41
   0   3   9    8.81    0.42
   0   3   9    8.51    0.45
  -1  -3  -9   47.78    1.80
   1   3   9   45.45    1.80
   1   3   9   45.14    1.80
  -2  -3  -9    2.60    0.20
   2   3   9    2.43    0.21
   2   3   9    2.67    0.21
  -3  -3  -9    0.02    0.09
   3   3   9    0.03    0.07
   3   3   9    0.09    0.09
  -4  -3  -9   40.95    1.62
   4   3   9   41.78    1.62
   4   3   9   41.26    1.62
   5   3   9   32.04    1.31
   5   3   9   33.79    1.31
   6   3   9    9.13    0.45
   6   3   9    9.09    0.44
   7   3   9    0.80    0.17
   7   3   9    0.59    0.18
   8   3   9    3.84    0.26
   8   3   9    2.94    0.22
   9   3   9    9.72    0.46
   9   3   9    9.46    0.42
  10   3   9    5.17    0.31
   5  -4  -9   38.35    1.49
   4  -4  -9    0.14    0.08
   3  -4  -9    6.43    0.31
  -3   4   9    6.01    0.33
   2  -4  -9    9.46    0.45
  -2   4   9   10.48    0.47
   1  -4  -9    8.03    0.39
  -1   4   9    8.34    0.40
   0  -4  -9    9.00    0.43
   0   4   9    9.37    0.43
  -1  -4  -9    0.26    0.10
   1   4   9    0.43    0.14
   1   4   9    0.19    0.09
  -2  -4  -9    0.91    0.16
   2   4   9    0.71    0.19
   2   4   9    1.00    0.17
  -3  -4  -9    0.31    0.11
   3   4   9    0.08    0.10
   3   4   9    0.09    0.08
   4   4   9    0.14    0.09
   4   4   9    0.02    0.07
   5   4   9    2.16    0.19
   5   4   9    1.81    0.19
   6   4   9    9.75    0.46
   6   4   9    8.96    0.44
   7   4   9    1.19    0.16
   7   4   9    0.99    0.19
   8   4   9    3.36    0.26
   8   4   9    4.07    0.23
   9   4   9   13.65    0.59
   9   4   9   12.91    0.55
  10   4   9    4.71    0.26
  10   4   9    5.05    0.27
   4  -5  -9    0.77    0.12
   3  -5  -9    2.98    0.19
   2  -5  -9    2.69    0.19
  -2   5   9    3.13    0.25
   1  -5  -9   10.45    0.48
  -1   5   9   10.95    0.49
   0  -5  -9   14.75    0.63
   0   5   9   14.33    0.63
  -1  -5  -9   39.09    1.51
   1   5   9   37.13    1.50
  -2  -5  -9    0.03    0.10
   2   5   9    0.11    0.15
   2   5   9    0.05    0.08
  -3  -5  -9   10.54    0.49
   3   5   9   10.52    0.48
   3   5   9   10.40    0.50
   4   5   9   31.65    1.29
   4   5   9   32.99    1.29
   5   5   9    0.06    0.09
   5   5   9    0.14    0.11
   6   5   9   -0.01    0.08
   6   5   9   -0.05    0.09
   7   5   9    0.14    0.10
   7   5   9    0.03    0.09
   8   5   9    4.01    0.23
   8   5   9    3.67    0.26
   9   5   9    0.21    0.07
   9   5   9    0.21    0.08
  10   5   9   26.08    1.06
  10   5   9   27.57    1.04
   3  -6  -9    4.48    0.24
   2  -6  -9    3.88    0.22
   1  -6  -9    7.63    0.36
   0  -6  -9    1.09    0.15
   0   6   9    0.63    0.21
  -1  -6  -9    5.96    0.33
   1   6   9    6.62    0.34
  -2  -6  -9    1.12    0.20
   2   6   9    0.81    0.18
   3   6   9    7.63    0.41
   3   6   9    8.22    0.39
   4   6   9  107.55    4.05
   4   6   9  104.84    4.05
   5   6   9   19.47    0.81
   5   6   9   19.23    0.82
   6   6   9    1.40    0.19
   6   6   9    1.59    0.18
   7   6   9    5.27    0.31
   7   6   9    5.52    0.29
   8   6   9   13.94    0.61
   8   6   9   13.85    0.58
   9   6   9   10.62    0.48
   9   6   9   11.22    0.46
  10   6   9    9.57    0.42
   2  -7  -9    6.58    0.32
   1  -7  -9    1.84    0.17
   0  -7  -9   22.74    0.92
  -1  -7  -9    3.20    0.25
   2   7   9    0.42    0.13
   4   7   9   82.62    3.11
   4   7   9   79.43    3.10
   5   7   9   14.49    0.62
   5   7   9   14.58    0.64
   6   7   9    0.90    0.15
   6   7   9    1.02    0.16
   7   7   9    0.54    0.15
   7   7   9    0.18    0.10
   7   7   9    0.12    0.08
   8   7   9    0.92    0.12
   8   7   9    1.10    0.15
   9   7   9    2.20    0.17
   9   7   9    2.25    0.14
   2   8   9    2.20    0.19
   3   8   9    1.38    0.17
   4   8   9    0.14    0.13
   5   8   9    4.01    0.23
   5   8   9    4.34    0.28
   5   8   9    4.25    0.25
   6   8   9    2.58    0.22
   6   8   9    2.66    0.19
   6   8   9    2.74    0.18
   7   8   9    6.09    0.28
   7   8   9    5.44    0.29
   7   8   9    6.19    0.31
   8   8   9    0.00    0.08
   8   8   9    0.23    0.07
   9   8   9    1.55    0.15
   4   9   9    3.12    0.20
   5   9   9    3.06    0.20
  -4  -8  10    5.11    0.24
  -3  -8  10    9.35    0.40
  -2  -8  10    9.14    0.39
  -5  -7  10    0.33    0.11
  -4  -7  10    0.05    0.07
  -3  -7  10    0.58    0.13
  -2  -7  10    0.03    0.08
  -1  -7  10    2.23    0.18
   0  -7  10   13.22    0.56
   1  -7  10   -0.09    0.11
   2  -7  10    4.60    0.28
   3  -7  10    1.94    0.24
  -6  -6  10    0.64    0.12
  -5  -6  10    1.56    0.15
  -4  -6  10    0.46    0.13
  -3  -6  10    0.70    0.15
  -2  -6  10    2.99    0.22
  -1  -6  10    4.20    0.25
   0  -6  10   20.16    0.84
   0  -6  10   20.06    0.82
   1  -6  10    0.81    0.17
   1  -6  10    0.77    0.18
   2  -6  10    0.46    0.15
   3  -6  10    3.51    0.23
   4  -6  10   17.77    0.74
  -6  -5  10   48.74    1.86
  -6  -5  10   48.54    1.86
  -5  -5  10   31.97    1.22
  -5  -5  10   29.52    1.21
  -4  -5  10   -0.01    0.12
  -4  -5  10    0.04    0.09
  -3  -5  10    0.30    0.11
  -2  -5  10    0.51    0.12
  -1  -5  10   26.17    1.07
   0  -5  10   17.25    0.76
   0  -5  10   18.50    0.76
   1  -5  10    6.40    0.33
   1  -5  10    5.99    0.33
   2  -5  10    1.43    0.17
   3  -5  10    3.46    0.24
   4  -5  10    3.77    0.25
   5  -5  10    1.37    0.17
  -7  -4  10    9.96    0.42
  -6  -4  10    4.98    0.27
  -6  -4  10    5.13    0.27
  -5  -4  10    0.22    0.09
  -5  -4  10    0.22    0.10
  -4  -4  10    0.18    0.11
  -4  -4  10    0.02    0.10
   3   4 -10    1.65    0.21
  -3  -4  10    1.60    0.21
  -3  -4  10    1.41    0.23
  -1  -4  10   15.36    0.68
   0  -4  10   26.15    1.04
   0  -4  10   24.73    1.04
   1  -4  10    2.38    0.21
   1  -4  10    2.38    0.20
   2  -4  10    9.74    0.49
   2  -4  10   11.23    0.49
   3  -4  10    9.83    0.51
   3  -4  10   12.04    0.50
   4  -4  10    2.89    0.23
   5  -4  10    1.89    0.20
   6  -4  10    8.81    0.42
  -7  -3  10    4.45    0.22
  -6  -3  10    5.75    0.30
  -5  -3  10    0.10    0.10
  -5  -3  10    0.22    0.09
   4   3 -10    1.17    0.21
  -4  -3  10    1.55    0.20
  -4  -3  10    1.09    0.20
   3   3 -10   17.20    0.76
  -3  -3  10   18.57    0.78
  -3  -3  10   19.00    0.79
  -2  -3  10    1.65    0.20
  -2  -3  10    1.57    0.23
  -1  -3  10    0.17    0.12
  -1  -3  10    0.28    0.11
   0  -3  10    0.86    0.15
   0  -3  10    0.71    0.16
   1  -3  10   10.25    0.50
   1  -3  10   11.33    0.50
   2  -3  10    0.07    0.08
   2  -3  10    0.09    0.10
   3  -3  10   30.53    1.14
   3  -3  10   25.86    1.15
   4  -3  10    0.03    0.09
   4  -3  10    0.06    0.13
   5  -3  10    0.32    0.11
   6  -3  10   11.76    0.53
  -7  -2  10    0.36    0.10
  -6  -2  10   11.48    0.50
  -5  -2  10    5.57    0.31
  -5  -2  10    5.74    0.33
   4   2 -10    0.83    0.18
  -4  -2  10    0.97    0.20
  -4  -2  10    0.81    0.19
   3   2 -10    0.48    0.15
  -3  -2  10    0.59    0.19
  -3  -2  10    0.24    0.11
   2   2 -10   99.08    3.62
  -2  -2  10   91.47    3.62
  -2  -2  10   92.82    3.62
  -1  -2  10   24.66    1.02
  -1  -2  10   25.06    1.02
   0  -2  10    0.11    0.10
   0  -2  10    0.01    0.10
   1  -2  10   48.94    1.95
   1  -2  10   54.13    1.97
   1  -2  10   47.40    1.94
   2  -2  10   31.41    1.25
   2  -2  10   30.23    1.23
   3  -2  10   37.73    1.50
   3  -2  10   38.30    1.52
   4  -2  10   46.35    1.98
   4  -2  10   54.78    1.97
   5  -2  10    1.65    0.22
   5  -2  10    1.37    0.18
   6  -2  10   12.46    0.56
   7  -2  10    0.35    0.19
  -7  -1  10    1.15    0.11
  -6  -1  10    0.04    0.07
   5   1 -10    3.27    0.24
  -5  -1  10    3.31    0.23
   4   1 -10    0.81    0.15
  -4  -1  10    0.73    0.19
  -4  -1  10    0.41    0.15
   3   1 -10    4.43    0.26
  -3  -1  10    4.29    0.31
  -3  -1  10    4.74    0.30
   2   1 -10    2.06    0.19
  -2  -1  10    2.24    0.23
  -2  -1  10    2.32    0.23
  -1  -1  10    1.52    0.21
  -1  -1  10    1.19    0.20
   0  -1  10   16.44    0.71
   0  -1  10   16.65    0.71
   1  -1  10    8.14    0.41
   1  -1  10    8.42    0.40
   2  -1  10   60.41    2.25
   2  -1  10   57.55    2.24
   2  -1  10   55.86    2.24
   3  -1  10   24.95    1.06
   3  -1  10   27.66    1.07
   3  -1  10   25.81    1.06
   4  -1  10    1.87    0.21
   4  -1  10    1.96    0.20
   5  -1  10    7.03    0.39
   5  -1  10    8.29    0.38
   6  -1  10   67.77    2.76
   6  -1  10   75.75    2.75
  -7   0  10    0.03    0.05
  -6   0  10    1.97    0.15
   5   0 -10    2.05    0.19
  -5   0  10    2.24    0.19
   4   0 -10   26.87    1.12
  -4   0  10   29.03    1.15
   3   0 -10    3.26    0.22
  -3   0  10    3.30    0.26
  -3   0  10    3.28    0.30
   2   0 -10    0.36    0.09
  -2   0  10    0.31    0.11
  -2   0  10    0.33    0.14
   1   0 -10   24.46    0.96
  -1   0  10   22.18    0.96
  -1   0  10   23.68    0.97
   0   0  10    6.32    0.34
   0   0  10    6.34    0.34
   1   0  10    1.80    0.19
   1   0  10    2.56    0.21
   2   0  10   15.96    0.75
   2   0  10   20.19    0.76
   3   0  10    1.52    0.18
   3   0  10    1.86    0.20
   3   0  10    1.66    0.18
   4   0  10    1.86    0.19
   4   0  10    1.60    0.18
   4   0  10    1.54    0.21
   5   0  10   18.04    0.77
   5   0  10   17.26    0.77
   5   0  10   18.80    0.76
   6   0  10   16.30    0.72
   6   0  10   17.29    0.71
   7   0  10    2.27    0.22
  -6   1  10   -0.01    0.06
   5  -1 -10    3.03    0.20
  -5   1  10    2.79    0.19
   4  -1 -10   69.95    2.83
  -4   1  10   77.44    2.85
   3  -1 -10    8.10    0.40
  -3   1  10    8.77    0.43
   2  -1 -10    0.55    0.12
  -2   1  10    0.67    0.18
  -2   1  10    0.52    0.16
   1  -1 -10   20.89    0.84
  -1   1  10   20.19    0.85
  -1   1  10   19.71    0.84
   0  -1 -10    1.54    0.17
   0   1  10    1.29    0.19
   0   1  10    1.47    0.18
   1   1  10   92.19    3.46
   1   1  10   88.75    3.46
   2   1  10   64.38    2.51
   2   1  10   65.70    2.51
   3   1  10    0.06    0.09
   3   1  10    0.10    0.08
   4   1  10   40.95    1.62
   4   1  10   41.69    1.62
   5   1  10    2.33    0.23
   5   1  10    2.36    0.20
   6   1  10    0.27    0.10
   6   1  10    0.18    0.11
   7   1  10    0.16    0.14
   7   1  10    0.28    0.11
   8   1  10    2.90    0.23
  -6   2  10    0.05    0.08
   5  -2 -10    0.24    0.09
  -5   2  10    0.42    0.12
   4  -2 -10    0.37    0.12
  -4   2  10    0.47    0.14
   3  -2 -10    0.33    0.09
  -3   2  10    0.10    0.09
   2  -2 -10    0.82    0.14
  -2   2  10    1.26    0.18
   1  -2 -10   20.85    0.84
  -1   2  10   20.33    0.84
  -1   2  10   19.07    0.84
   0  -2 -10    1.13    0.14
   0   2  10    0.77    0.17
   0   2  10    0.86    0.20
  -1  -2 -10   34.00    1.31
   1   2  10   31.83    1.30
   1   2  10   32.73    1.31
  -2  -2 -10    1.13    0.16
   2   2  10    1.02    0.17
   2   2  10    0.70    0.17
   3   2  10   45.23    1.80
   3   2  10   46.95    1.80
   4   2  10   31.79    1.28
   4   2  10   32.48    1.28
   5   2  10    0.48    0.15
   5   2  10    0.48    0.11
   6   2  10    0.23    0.09
   6   2  10    0.27    0.10
   7   2  10    0.50    0.16
   7   2  10   -0.01    0.11
   8   2  10   23.02    0.94
   8   2  10   23.68    0.96
   5  -3 -10    2.98    0.20
  -5   3  10    3.12    0.21
   4  -3 -10    0.68    0.13
  -4   3  10    0.47    0.14
   3  -3 -10    0.10    0.07
  -3   3  10   -0.03    0.08
   2  -3 -10    2.89    0.21
  -2   3  10    3.21    0.23
   1  -3 -10   -0.08    0.07
  -1   3  10    0.20    0.08
   0  -3 -10    6.26    0.31
   0   3  10    6.12    0.32
   0   3  10    5.45    0.34
  -1  -3 -10    1.50    0.17
   1   3  10    1.35    0.17
   1   3  10    1.49    0.19
  -2  -3 -10   15.56    0.64
   2   3  10   14.90    0.64
   2   3  10   14.41    0.64
  -3  -3 -10    0.65    0.17
   3   3  10    0.68    0.14
   3   3  10    0.75    0.15
  -4  -3 -10    7.96    0.40
   4   3  10    7.62    0.38
   4   3  10    7.67    0.38
   5   3  10   19.85    0.85
   5   3  10   21.56    0.86
   6   3  10    2.10    0.21
   6   3  10    2.16    0.20
   7   3  10    2.71    0.23
   7   3  10    2.26    0.20
   8   3  10    2.49    0.22
   8   3  10    2.36    0.19
   9   3  10    3.44    0.20
   9   3  10    3.33    0.25
   4  -4 -10    0.03    0.07
   3  -4 -10    0.86    0.13
  -3   4  10    1.05    0.16
   2  -4 -10    1.22    0.14
  -2   4  10    1.57    0.18
   1  -4 -10   45.03    1.89
  -1   4  10   51.80    1.89
   0  -4 -10   29.17    1.20
   0   4  10   30.57    1.20
  -1  -4 -10    7.31    0.39
   1   4  10    9.17    0.40
   1   4  10    8.35    0.43
  -2  -4 -10   17.34    0.71
   2   4  10   16.32    0.71
   2   4  10   16.83    0.71
  -3  -4 -10    1.00    0.18
   3   4  10    0.95    0.16
   3   4  10    1.29    0.16
   4   4  10    0.52    0.15
   4   4  10    0.40    0.14
   5   4  10    0.00    0.08
   5   4  10   -0.05    0.09
   6   4  10    4.81    0.30
   6   4  10    5.16    0.29
   7   4  10    1.81    0.19
   7   4  10    1.51    0.17
   8   4  10    1.69    0.18
   8   4  10    1.84    0.16
   9   4  10    0.80    0.15
   9   4  10    0.95    0.12
  10   4  10    0.20    0.11
   3  -5 -10    0.24    0.08
   2  -5 -10    0.76    0.13
  -2   5  10    0.75    0.18
   1  -5 -10   17.17    0.74
  -1   5  10   18.23    0.74
   0  -5 -10    0.71    0.14
   0   5  10    0.88    0.17
  -1  -5 -10   31.31    1.26
   1   5  10   31.88    1.26
  -2  -5 -10   33.14    1.35
   2   5  10   34.78    1.35
   2   5  10   33.95    1.35
  -3  -5 -10    1.67    0.24
   3   5  10    1.97    0.22
   3   5  10    1.59    0.17
   4   5  10    2.01    0.18
   4   5  10    1.68    0.20
   5   5  10    0.18    0.11
   5   5  10    0.24    0.09
   6   5  10   50.79    1.99
   7   5  10   51.34    2.01
   7   5  10   52.49    2.03
   8   5  10    0.36    0.11
   8   5  10    0.21    0.09
   9   5  10    1.16    0.14
   9   5  10    1.21    0.12
  10   5  10    2.04    0.17
   2  -6 -10    8.48    0.38
   1  -6 -10    3.32    0.21
   0  -6 -10    0.65    0.15
   0   6  10    0.68    0.19
  -1  -6 -10    0.29    0.10
   1   6  10    0.27    0.10
  -2  -6 -10   -0.03    0.13
   2   6  10   -0.01    0.09
   3   6  10    2.89    0.26
   3   6  10    2.86    0.22
   4   6  10    1.44    0.19
   4   6  10    0.92    0.17
   5   6  10    1.90    0.19
   5   6  10    1.77    0.19
   6   6  10    5.96    0.32
   6   6  10    5.68    0.30
   7   6  10    4.37    0.26
   7   6  10    4.45    0.24
   8   6  10    0.12    0.06
   8   6  10    0.04    0.08
   9   6  10    3.23    0.18
   9   6  10    3.38    0.20
   1  -7 -10    0.19    0.11
   0  -7 -10    0.13    0.11
  -1  -7 -10    0.09    0.16
   2   7  10   40.64    1.59
   3   7  10    1.39    0.19
   4   7  10    0.49    0.12
   4   7  10    0.37    0.10
   5   7  10    1.22    0.16
   5   7  10    1.65    0.17
   6   7  10    3.10    0.22
   6   7  10    3.56    0.21
   7   7  10    1.16    0.16
   7   7  10    1.46    0.13
   8   7  10    0.85    0.13
   8   7  10    1.15    0.11
   9   7  10    0.24    0.08
   4   8  10   18.11    0.76
   5   8  10    0.20    0.11
   5   8  10    0.27    0.11
   6   8  10    4.81    0.27
   6   8  10    4.78    0.25
   7   8  10    1.30    0.14
   7   8  10    1.10    0.15
   8   8  10    6.38    0.32
   8   8  10    7.02    0.29
  -3  -7  11    1.37    0.13
  -2  -7  11    0.82    0.12
  -1  -7  11    0.28    0.08
   0  -7  11    1.31    0.23
  -5  -6  11    0.19    0.07
  -4  -6  11    0.02    0.07
  -3  -6  11    2.85    0.19
  -2  -6  11    0.17    0.08
  -1  -6  11   36.60    1.43
   0  -6  11    0.05    0.09
   1  -6  11    3.35    0.22
   2  -6  11    1.09    0.17
   3  -6  11    4.49    0.27
  -5  -5  11    0.19    0.08
  -4  -5  11    2.55    0.18
  -3  -5  11    2.33    0.18
   2   5 -11    0.36    0.14
  -2  -5  11    0.25    0.09
  -1  -5  11   44.82    1.75
   0  -5  11   15.76    0.66
   1  -5  11   24.46    1.02
   1  -5  11   25.65    1.00
   2  -5  11    7.34    0.36
   2  -5  11    7.66    0.38
   3  -5  11    0.94    0.17
   4  -5  11    0.11    0.10
   5  -5  11    0.66    0.20
  -6  -4  11    6.98    0.31
  -5  -4  11    5.63    0.28
  -5  -4  11    5.63    0.28
  -4  -4  11   -0.02    0.08
  -4  -4  11    0.05    0.08
   3   4 -11    0.74    0.20
  -3  -4  11    0.69    0.18
  -3  -4  11    0.57    0.14
   2   4 -11    4.89    0.29
  -2  -4  11    5.19    0.29
  -1  -4  11   30.56    1.23
   0  -4  11    7.63    0.38
   1  -4  11    7.19    0.38
   1  -4  11    7.86    0.38
   2  -4  11   11.06    0.47
   2  -4  11    9.56    0.48
   3  -4  11    3.39    0.25
   3  -4  11    3.86    0.24
   4  -4  11    0.79    0.16
   5  -4  11    4.68    0.28
  -6  -3  11    2.93    0.17
  -5  -3  11    7.63    0.37
  -5  -3  11    8.05    0.37
  -4  -3  11   35.67    1.46
  -4  -3  11   38.64    1.46
   3   3 -11   64.41    2.61
  -3  -3  11   71.25    2.63
  -3  -3  11   68.52    2.62
   2   3 -11    2.83    0.21
  -2  -3  11    3.26    0.24
  -2  -3  11    3.01    0.24
  -1  -3  11    4.51    0.30
  -1  -3  11    5.17    0.30
   0  -3  11   -0.06    0.08
   1  -3  11    0.93    0.17
   2  -3  11   17.19    0.77
   2  -3  11   18.68    0.76
   3  -3  11    4.98    0.31
   3  -3  11    6.16    0.31
   4  -3  11    3.43    0.23
   4  -3  11    2.78    0.23
   5  -3  11    0.22    0.11
   6  -3  11   -0.04    0.12
  -6  -2  11    0.13    0.05
  -5  -2  11   -0.10    0.07
   4   2 -11    5.81    0.31
  -4  -2  11    5.95    0.31
  -4  -2  11    5.54    0.31
   3   2 -11    5.50    0.31
  -3  -2  11    6.01    0.33
  -3  -2  11    6.21    0.34
   2   2 -11   28.84    1.19
  -2  -2  11   29.75    1.20
  -2  -2  11   30.38    1.20
  -1  -2  11    4.10    0.26
  -1  -2  11    4.09    0.27
   0  -2  11    0.05    0.10
   0  -2  11    0.24    0.10
   1  -2  11   14.26    0.64
   1  -2  11   15.04    0.64
   2  -2  11    8.32    0.43
   2  -2  11    9.40    0.43
   3  -2  11   19.08    0.85
   3  -2  11   21.50    0.84
   4  -2  11   17.81    0.70
   4  -2  11   14.91    0.70
   5  -2  11    3.92    0.27
   5  -2  11    4.64    0.26
   6  -2  11    0.22    0.12
  -6  -1  11    0.54    0.10
  -5  -1  11    0.00    0.06
   4   1 -11    0.23    0.10
  -4  -1  11    0.50    0.13
  -4  -1  11    0.26    0.09
   3   1 -11    1.71    0.17
  -3  -1  11    1.63    0.20
  -3  -1  11    2.04    0.22
   2   1 -11    3.68    0.24
  -2  -1  11    4.16    0.27
  -2  -1  11    4.45    0.28
   1   1 -11    2.27    0.19
  -1  -1  11    2.74    0.22
  -1  -1  11    2.30    0.22
   0  -1  11   16.80    0.72
   0  -1  11   17.04    0.72
   1  -1  11   19.62    0.81
   1  -1  11   19.09    0.80
   2  -1  11   27.54    1.13
   2  -1  11   28.52    1.13
   3  -1  11   61.71    2.54
   3  -1  11   67.25    2.53
   3  -1  11   67.92    2.53
   4  -1  11    0.38    0.11
   4  -1  11    0.46    0.11
   5  -1  11    6.55    0.37
   5  -1  11    7.91    0.36
   6  -1  11    1.28    0.19
  -6   0  11    3.02    0.16
   5   0 -11   24.43    0.97
  -5   0  11   24.15    0.97
   4   0 -11    0.96    0.14
  -4   0  11    0.57    0.14
   3   0 -11    1.54    0.16
  -3   0  11    1.61    0.18
  -3   0  11    1.49    0.25
   2   0 -11    4.52    0.27
  -2   0  11    5.38    0.30
  -2   0  11    5.22    0.30
   1   0 -11   20.10    0.85
  -1   0  11   20.50    0.86
  -1   0  11   21.06    0.86
   0   0 -11   30.16    1.26
   0   0  11   32.75    1.26
   0   0  11   31.62    1.26
   1   0  11   35.96    1.41
   1   0  11   34.93    1.41
   2   0  11   48.01    1.88
   2   0  11   48.10    1.87
   3   0  11    0.63    0.17
   3   0  11    0.80    0.15
   4   0  11    4.94    0.28
   4   0  11    5.00    0.31
   5   0  11    2.31    0.27
   5   0  11    2.11    0.19
   6   0  11    0.14    0.09
   7   0  11    3.48    0.24
  -6   1  11    0.36    0.10
   5  -1 -11    0.67    0.18
  -5   1  11    0.49    0.11
   4  -1 -11    0.46    0.13
  -4   1  11    0.67    0.13
   3  -1 -11    0.30    0.09
  -3   1  11    0.47    0.15
   2  -1 -11    1.28    0.15
  -2   1  11    1.92    0.19
   1  -1 -11   21.22    0.90
  -1   1  11   22.04    0.90
  -1   1  11   22.28    0.91
   0  -1 -11   29.63    1.24
   0   1  11   31.11    1.24
   0   1  11   32.02    1.24
  -1  -1 -11   59.72    2.17
   1   1  11   52.84    2.15
   1   1  11   54.15    2.16
   2   1  11   52.22    2.05
   2   1  11   53.20    2.05
   3   1  11   12.05    0.53
   3   1  11   11.65    0.53
   4   1  11    2.60    0.22
   4   1  11    2.66    0.20
   5   1  11    0.10    0.11
   5   1  11    0.02    0.09
   6   1  11    3.26    0.27
   6   1  11    3.42    0.22
   7   1  11   25.75    1.04
   7   1  11   25.16    1.02
   8   1  11    7.29    0.35
  -5   2  11    1.04    0.12
   4  -2 -11    0.06    0.08
  -4   2  11    0.03    0.06
   3  -2 -11    0.03    0.08
  -3   2  11    0.05    0.07
   2  -2 -11    1.90    0.17
  -2   2  11    1.96    0.19
   1  -2 -11    2.86    0.21
  -1   2  11    3.39    0.23
  -1   2  11    3.72    0.28
   0  -2 -11   44.36    1.76
   0   2  11   45.47    1.76
   0   2  11   44.76    1.76
  -1  -2 -11   13.16    0.60
   1   2  11   13.91    0.60
   1   2  11   14.20    0.60
  -2  -2 -11    0.98    0.16
   2   2  11    0.53    0.15
   2   2  11    0.71    0.15
  -3  -2 -11    6.49    0.34
   3   2  11    5.74    0.32
   3   2  11    6.06    0.32
  -4  -2 -11   21.22    0.89
   4   2  11   22.08    0.89
   4   2  11   21.24    0.88
  -5  -2 -11    0.69    0.16
   5   2  11    0.53    0.14
   5   2  11    0.69    0.17
   6   2  11    3.27    0.22
   6   2  11    3.43    0.25
   7   2  11    6.87    0.34
   7   2  11    6.90    0.37
   8   2  11   11.07    0.52
   8   2  11   11.69    0.49
   4  -3 -11    0.21    0.08
  -4   3  11    0.06    0.07
   3  -3 -11   12.36    0.54
  -3   3  11   12.66    0.53
   2  -3 -11   23.67    1.00
  -2   3  11   25.43    1.00
   1  -3 -11   19.61    0.85
  -1   3  11   21.54    0.85
   0  -3 -11   11.48    0.52
   0   3  11   11.09    0.53
   0   3  11   12.50    0.53
  -1  -3 -11    5.24    0.29
   1   3  11    5.63    0.30
   1   3  11    5.49    0.31
  -2  -3 -11    2.35    0.20
   2   3  11    2.36    0.19
   2   3  11    2.42    0.20
  -3  -3 -11    7.29    0.37
   3   3  11    7.41    0.37
   3   3  11    7.83    0.37
  -4  -3 -11   13.03    0.60
   4   3  11   13.83    0.60
   4   3  11   14.31    0.60
   5   3  11    1.71    0.18
   5   3  11    1.87    0.18
   6   3  11    3.35    0.23
   6   3  11    3.54    0.25
   7   3  11    0.18    0.09
   7   3  11    0.12    0.08
   8   3  11    7.82    0.34
   8   3  11    7.02    0.36
   9   3  11    0.89    0.20
   9   3  11    1.03    0.15
   3  -4 -11    8.68    0.38
  -3   4  11    8.44    0.38
   2  -4 -11   -0.09    0.07
  -2   4  11    0.16    0.08
   1  -4 -11    1.38    0.15
  -1   4  11    1.56    0.16
   0  -4 -11    7.42    0.37
   0   4  11    7.80    0.37
  -1  -4 -11    3.24    0.22
   1   4  11    3.19    0.22
   1   4  11    2.86    0.27
  -2  -4 -11    5.04    0.30
   2   4  11    5.91    0.30
   2   4  11    5.14    0.30
  -3  -4 -11   14.57    0.66
   3   4  11   16.24    0.66
   3   4  11   15.44    0.66
   4   4  11    6.42    0.33
   4   4  11    6.28    0.33
   5   4  11   59.18    2.31
   5   4  11   60.12    2.31
   6   4  11   14.26    0.62
   6   4  11   13.94    0.61
   7   4  11    2.50    0.20
   7   4  11    2.38    0.18
   8   4  11    9.96    0.42
   8   4  11    9.35    0.44
   9   4  11    3.64    0.19
   9   4  11    3.89    0.23
   3  -5 -11    0.13    0.10
   2  -5 -11    2.36    0.17
  -2   5  11    1.72    0.20
   1  -5 -11    0.10    0.08
  -1   5  11    0.14    0.08
   0  -5 -11    5.44    0.29
   0   5  11    5.66    0.29
  -1  -5 -11   20.40    0.88
   1   5  11   22.33    0.88
  -2  -5 -11    1.30    0.18
   2   5  11    1.09    0.15
   2   5  11    0.84    0.23
   3   5  11    9.56    0.46
   3   5  11    9.73    0.45
   4   5  11    5.86    0.31
   4   5  11    5.70    0.31
   5   5  11    0.06    0.08
   5   5  11    0.22    0.09
   6   5  11    0.42    0.12
   6   5  11    0.43    0.14
   7   5  11    3.40    0.23
   7   5  11    3.77    0.21
   8   5  11   -0.02    0.08
   8   5  11    0.15    0.06
   9   5  11   20.42    0.83
   9   5  11   20.89    0.81
   1  -6 -11    3.36    0.21
   0  -6 -11   10.21    0.46
   0   6  11   10.19    0.45
  -1  -6 -11    4.43    0.27
   1   6  11    4.36    0.25
   2   6  11    9.24    0.42
   3   6  11   21.61    0.91
   3   6  11   22.96    0.91
   4   6  11    0.15    0.07
   4   6  11    0.23    0.11
   5   6  11    0.11    0.08
   5   6  11    0.05    0.07
   6   6  11    2.79    0.20
   6   6  11    2.77    0.19
   7   6  11    0.07    0.07
   7   6  11    0.02    0.07
   8   6  11    0.01    0.05
   8   6  11    0.08    0.07
   9   6  11   24.73    0.95
   9   6  11   24.13    0.96
   2   7  11    0.31    0.11
   3   7  11   69.58    2.66
   4   7  11    0.04    0.08
   5   7  11    1.77    0.17
   5   7  11    1.86    0.17
   6   7  11    0.25    0.08
   6   7  11    0.44    0.12
   7   7  11    0.09    0.06
   7   7  11    0.01    0.07
   8   7  11   23.03    0.86
   8   7  11   21.19    0.88
   5   8  11    0.35    0.11
   6   8  11    3.80    0.23
   6   8  11    4.09    0.24
   7   8  11    1.26    0.14
   7   8  11    0.93    0.16
  -3  -6  12   16.72    0.67
  -2  -6  12    0.15    0.07
  -1  -6  12   10.80    0.46
   0  -6  12   -0.01    0.07
   1  -6  12    0.31    0.10
  -4  -5  12    0.69    0.12
  -3  -5  12    2.34    0.17
  -2  -5  12    0.96    0.14
   1   5 -12    2.01    0.21
  -1  -5  12    1.92    0.17
   0  -5  12    0.80    0.13
   1  -5  12   12.04    0.51
   2  -5  12    5.26    0.27
  -5  -4  12    3.70    0.20
  -5  -4  12    3.04    0.22
  -4  -4  12    2.08    0.16
  -4  -4  12    1.96    0.18
  -3  -4  12    5.78    0.31
  -3  -4  12    6.40    0.31
   2   4 -12    3.81    0.25
  -2  -4  12    3.67    0.23
   1   4 -12    0.83    0.16
  -1  -4  12    0.67    0.14
   0  -4  12   13.60    0.59
   1  -4  12    0.74    0.14
   2  -4  12    2.73    0.19
   3  -4  12    1.46    0.17
   3  -4  12    1.70    0.17
   4  -4  12    0.43    0.11
  -5  -3  12    1.80    0.14
  -4  -3  12    1.60    0.15
  -4  -3  12    1.63    0.16
   3   3 -12    4.40    0.26
  -3  -3  12    3.99    0.24
  -3  -3  12    3.87    0.24
   2   3 -12    0.07    0.09
  -2  -3  12    0.15    0.08
  -2  -3  12    0.13    0.09
   1   3 -12   12.44    0.55
  -1  -3  12   13.35    0.56
  -1  -3  12   11.85    0.54
   0  -3  12   15.10    0.65
   1  -3  12    0.83    0.16
   2  -3  12    4.34    0.25
   3  -3  12   20.71    0.84
   4  -3  12    5.81    0.32
   4  -3  12    6.00    0.30
  -5  -2  12    1.19    0.12
  -4  -2  12    3.75    0.22
  -4  -2  12    4.00    0.23
   3   2 -12    0.05    0.09
  -3  -2  12    0.12    0.08
  -3  -2  12    0.52    0.15
   2   2 -12    0.29    0.09
  -2  -2  12    0.39    0.10
  -2  -2  12    0.28    0.09
   1   2 -12   10.26    0.49
  -1  -2  12   10.96    0.49
  -1  -2  12   11.06    0.50
   0  -2  12   12.74    0.56
   0  -2  12   12.20    0.55
   1  -2  12    1.04    0.16
   1  -2  12    1.37    0.21
   2  -2  12   45.80    1.79
   3  -2  12    0.43    0.11
   4  -2  12    4.63    0.26
   5  -2  12    5.57    0.29
  -5  -1  12    0.48    0.10
   4   1 -12    0.12    0.12
  -4  -1  12    0.08    0.06
   3   1 -12   -0.01    0.09
  -3  -1  12    0.02    0.07
  -3  -1  12   -0.02    0.10
   2   1 -12   14.97    0.64
  -2  -1  12   14.60    0.64
  -2  -1  12   15.28    0.64
   1   1 -12   22.11    0.94
  -1  -1  12   23.49    0.94
  -1  -1  12   23.08    0.94
   0   1 -12    8.13    0.40
   0  -1  12    8.62    0.41
   0  -1  12    8.12    0.40
   1  -1  12   47.59    1.85
   1  -1  12   46.94    1.84
   2  -1  12   62.93    2.42
   2  -1  12   62.48    2.41
   4  -1  12    0.70    0.14
   5  -1  12    0.50    0.14
   6  -1  12    0.64    0.17
  -5   0  12    1.73    0.13
   4   0 -12    1.02    0.17
  -4   0  12    0.85    0.12
   3   0 -12    1.91    0.17
  -3   0  12    1.70    0.16
   2   0 -12   34.33    1.40
  -2   0  12   34.79    1.39
  -2   0  12   37.22    1.41
   1   0 -12    0.31    0.09
  -1   0  12    0.58    0.17
  -1   0  12    0.51    0.15
   0   0 -12    1.18    0.15
   0   0  12    1.24    0.17
   0   0  12    1.24    0.18
  -1   0 -12   49.35    2.08
   1   0  12   56.64    2.08
   1   0  12   54.37    2.08
   2   0  12    9.26    0.43
   2   0  12    8.51    0.42
   3   0  12    5.30    0.30
   3   0  12    5.58    0.30
   4   0  12    4.92    0.30
   4   0  12    5.16    0.28
   6   0  12   36.60    1.43
   7   0  12    0.04    0.10
  -5   1  12    1.00    0.10
   4  -1 -12    1.37    0.17
  -4   1  12    1.63    0.13
   3  -1 -12    2.87    0.20
  -3   1  12    2.64    0.19
   2  -1 -12    6.55    0.32
  -2   1  12    5.45    0.38
  -2   1  12    6.05    0.31
   1  -1 -12    0.51    0.12
  -1   1  12    0.64    0.18
  -1   1  12    0.77    0.14
   0  -1 -12    1.54    0.16
   0   1  12    1.72    0.18
   0   1  12    1.70    0.19
  -1  -1 -12    0.84    0.15
   1   1  12    0.88    0.16
  -2  -1 -12   28.22    1.16
   2   1  12   29.15    1.15
   2   1  12   28.66    1.15
  -3  -1 -12   23.99    1.02
   3   1  12   24.83    1.02
   3   1  12   26.24    1.02
   4   1  12    0.51    0.16
   4   1  12    0.30    0.10
   5   1  12    6.28    0.34
   5   1  12    7.17    0.34
   6   1  12   20.00    0.84
   6   1  12   20.42    0.82
   7   1  12    0.28    0.09
   4  -2 -12    5.36    0.33
  -4   2  12    5.94    0.26
   3  -2 -12    3.97    0.23
  -3   2  12    3.95    0.22
   2  -2 -12    3.01    0.21
  -2   2  12    3.12    0.20
   1  -2 -12    0.69    0.14
  -1   2  12    1.02    0.15
  -1   2  12    1.48    0.22
   0  -2 -12    4.08    0.25
   0   2  12    4.87    0.26
   0   2  12    4.66    0.28
  -1  -2 -12   23.43    0.99
   1   2  12   24.21    0.99
   1   2  12   25.03    0.99
  -2  -2 -12    0.46    0.11
   2   2  12    0.29    0.09
   2   2  12    0.48    0.14
  -3  -2 -12    2.70    0.22
   3   2  12    2.52    0.20
   3   2  12    2.55    0.20
  -4  -2 -12    3.55    0.26
   4   2  12    3.60    0.23
   4   2  12    3.71    0.24
  -5  -2 -12   -0.06    0.15
   5   2  12   -0.15    0.08
   5   2  12    0.07    0.08
   6   2  12    3.70    0.22
   6   2  12    3.38    0.23
   7   2  12    4.49    0.24
   7   2  12    4.05    0.26
   8   2  12   -0.02    0.08
  -4   3  12    2.48    0.21
   3  -3 -12    1.88    0.16
  -3   3  12    2.12    0.15
   2  -3 -12    2.55    0.18
  -2   3  12    2.46    0.18
   1  -3 -12    0.76    0.14
  -1   3  12    0.91    0.13
   0  -3 -12    1.89    0.17
   0   3  12    1.46    0.24
   0   3  12    2.09    0.18
  -1  -3 -12   25.20    1.06
   1   3  12   26.65    1.06
   1   3  12   26.47    1.05
  -2  -3 -12    0.42    0.14
   2   3  12    0.41    0.12
   2   3  12    0.40    0.11
  -3  -3 -12   13.78    0.61
   3   3  12   14.35    0.61
   3   3  12   14.25    0.61
  -4  -3 -12   80.06    3.18
   4   3  12   84.58    3.18
   4   3  12   84.75    3.19
   5   3  12    0.21    0.09
   5   3  12    0.18    0.08
   6   3  12    0.97    0.16
   6   3  12    1.21    0.14
   7   3  12    2.53    0.17
   7   3  12    2.72    0.20
   8   3  12    0.87    0.12
   8   3  12    0.75    0.17
  -3   4  12    0.11    0.10
   2  -4 -12    0.77    0.12
  -2   4  12    0.72    0.12
   1  -4 -12    2.58    0.18
  -1   4  12    2.41    0.17
   0  -4 -12    9.38    0.43
   0   4  12    8.90    0.41
  -1  -4 -12    4.03    0.24
   1   4  12    3.24    0.21
   1   4  12    3.91    0.28
  -2  -4 -12    0.56    0.17
   2   4  12    0.75    0.17
   2   4  12    0.54    0.13
  -3  -4 -12    3.86    0.28
   3   4  12    4.41    0.26
   3   4  12    4.60    0.25
   4   4  12    9.69    0.45
   4   4  12    9.82    0.44
   5   4  12    0.44    0.13
   5   4  12    0.60    0.13
   6   4  12    6.28    0.32
   6   4  12    6.35    0.31
   7   4  12    0.22    0.07
   7   4  12    0.16    0.07
   8   4  12    4.89    0.24
   8   4  12    4.83    0.26
   1  -5 -12   26.91    1.04
  -1   5  12   25.28    1.02
   0  -5 -12   -0.09    0.09
   0   5  12    0.04    0.06
  -1  -5 -12    2.59    0.20
   1   5  12    2.48    0.18
  -2  -5 -12   -0.15    0.12
   2   5  12    0.08    0.07
   2   5  12   -0.17    0.14
   3   5  12    1.19    0.18
   3   5  12    1.29    0.14
   4   5  12    0.32    0.08
   4   5  12    0.18    0.09
   5   5  12    1.52    0.15
   5   5  12    1.01    0.15
   6   5  12    0.12    0.07
   6   5  12    0.04    0.06
   7   5  12    8.58    0.40
   7   5  12    9.03    0.39
   8   5  12    3.90    0.20
   8   5  12    4.27    0.23
   0   6  12    0.08    0.14
  -1  -6 -12    1.86    0.25
   1   6  12    1.86    0.16
   2   6  12    6.58    0.31
   3   6  12    0.77    0.13
   4   6  12   10.09    0.45
   4   6  12   10.62    0.46
   5   6  12    0.50    0.13
   5   6  12    0.20    0.07
   6   6  12    3.26    0.19
   6   6  12    3.43    0.20
   7   6  12   13.19    0.55
   7   6  12   12.83    0.53
   8   6  12    9.98    0.45
   8   6  12   11.26    0.44
   3   7  12    0.37    0.10
   4   7  12   11.00    0.47
   5   7  12    1.37    0.15
   5   7  12    1.15    0.16
   6   7  12    3.38    0.19
   6   7  12    3.25    0.20
   7   7  12    1.79    0.13
   7   7  12    1.42    0.14
  -1  -6  13   13.02    0.52
  -3  -5  13    9.16    0.38
  -2  -5  13   10.42    0.44
  -1  -5  13    0.02    0.06
   0  -5  13    0.19    0.07
   1  -5  13    0.25    0.08
   2  -5  13    0.03    0.10
  -4  -4  13    0.78    0.12
  -3  -4  13    0.88    0.12
  -2  -4  13   30.46    1.19
   1   4 -13    6.13    0.32
  -1  -4  13    5.90    0.29
   0   4 -13    2.24    0.19
   0  -4  13    1.97    0.16
   1  -4  13    4.01    0.22
   2  -4  13    3.14    0.19
   3  -4  13    1.74    0.16
  -4  -3  13    1.21    0.13
  -4  -3  13    1.04    0.14
  -3  -3  13    0.16    0.07
  -3  -3  13    0.17    0.07
   2   3 -13   15.94    0.63
  -2  -3  13   14.59    0.62
  -2  -3  13   14.34    0.62
   1   3 -13    1.50    0.16
  -1  -3  13    1.17    0.14
   0   3 -13    4.03    0.24
   0  -3  13    3.67    0.22
   1  -3  13    0.31    0.09
   2  -3  13    0.66    0.12
   3  -3  13    3.49    0.20
   4  -3  13    6.56    0.31
  -4  -2  13    3.18    0.18
   3   2 -13    0.21    0.12
  -3  -2  13    0.11    0.06
  -3  -2  13    0.19    0.08
   2   2 -13    2.90    0.20
  -2  -2  13    2.79    0.18
  -2  -2  13    2.40    0.19
   1   2 -13    0.38    0.13
  -1  -2  13    0.16    0.08
  -1  -2  13    0.04    0.07
   0   2 -13    0.74    0.14
   0  -2  13    0.67    0.16
   0  -2  13    0.55    0.14
   2  -2  13    0.33    0.09
   3  -2  13    0.12    0.07
   4  -2  13    1.10    0.14
   5  -2  13    6.51    0.31
  -4  -1  13    2.55    0.15
   3   1 -13   -0.15    0.10
  -3  -1  13    0.03    0.10
  -3  -1  13    0.00    0.06
   2   1 -13    2.09    0.17
  -2  -1  13    2.01    0.16
  -2  -1  13    1.73    0.17
   1   1 -13    0.05    0.08
  -1  -1  13    0.16    0.08
  -1  -1  13   -0.05    0.07
   0   1 -13    8.46    0.40
   0  -1  13    8.03    0.39
   0  -1  13    8.53    0.39
  -1   1 -13   23.58    0.99
   1  -1  13   24.01    0.98
   1  -1  13   24.90    0.97
   2  -1  13    0.11    0.09
   2  -1  13    0.19    0.08
   3  -1  13    0.07    0.07
   4  -1  13    6.41    0.31
   5  -1  13    4.03    0.22
   6  -1  13    5.93    0.30
  -4   0  13    1.14    0.10
   3   0 -13    0.22    0.09
  -3   0  13    0.34    0.10
   2   0 -13    0.48    0.13
  -2   0  13    0.63    0.12
  -2   0  13    0.47    0.10
   1   0 -13   -0.03    0.07
  -1   0  13    0.01    0.06
  -1   0  13    0.13    0.09
   0   0 -13    4.80    0.27
   0   0  13    4.58    0.27
   0   0  13    5.07    0.27
  -1   0 -13   53.51    2.20
   1   0  13   56.09    2.19
   1   0  13   60.90    2.20
  -2   0 -13    0.70    0.15
   2   0  13    0.51    0.13
   2   0  13    0.70    0.14
  -3   0 -13   -0.04    0.09
   3   0  13    0.14    0.08
   3   0  13    0.12    0.08
   4   0  13   11.94    0.51
   4   0  13   11.39    0.51
   5   0  13   16.87    0.69
   6   0  13    1.92    0.16
  -4   1  13    0.84    0.10
   3  -1 -13   11.37    0.47
  -3   1  13   10.26    0.46
   2  -1 -13    3.94    0.22
  -2   1  13    3.83    0.22
   1  -1 -13    6.58    0.32
  -1   1  13    6.52    0.32
  -1   1  13    6.17    0.31
   0  -1 -13    3.56    0.22
   0   1  13    3.50    0.23
   0   1  13    3.88    0.22
  -1  -1 -13    5.20    0.27
   1   1  13    4.55    0.26
   1   1  13    4.83    0.27
  -2  -1 -13    6.10    0.32
   2   1  13    5.91    0.31
   2   1  13    6.34    0.32
  -3  -1 -13    0.33    0.11
   3   1  13    0.62    0.13
   3   1  13    0.37    0.12
  -4  -1 -13    0.54    0.17
   4   1  13    0.26    0.08
   4   1  13    0.39    0.12
  -5  -1 -13    9.60    0.46
   5   1  13    9.23    0.42
   5   1  13    9.47    0.43
   6   1  13    0.16    0.12
   6   1  13    0.16    0.08
   7   1  13    0.14    0.08
  -3   2  13    8.04    0.35
   2  -2 -13    1.74    0.15
  -2   2  13    1.51    0.13
   1  -2 -13   11.56    0.50
  -1   2  13   11.03    0.49
   0  -2 -13    6.29    0.32
   0   2  13    6.28    0.31
   0   2  13    6.16    0.32
  -1  -2 -13    1.20    0.15
   1   2  13    1.43    0.14
   1   2  13    1.22    0.16
  -2  -2 -13    6.86    0.34
   2   2  13    6.83    0.33
   2   2  13    6.34    0.33
  -3  -2 -13   18.49    0.77
   3   2  13   18.09    0.76
   3   2  13   18.60    0.76
  -4  -2 -13    1.29    0.19
   4   2  13    0.92    0.14
   4   2  13    0.80    0.13
   5   2  13    0.42    0.11
   5   2  13    0.18    0.09
   6   2  13    0.23    0.07
   6   2  13    0.43    0.14
   7   2  13    9.05    0.38
   7   2  13    8.61    0.42
  -3   3  13    0.02    0.06
   2  -3 -13    0.22    0.08
  -2   3  13    0.24    0.06
   1  -3 -13   15.19    0.63
  -1   3  13   14.74    0.62
   0  -3 -13    0.65    0.14
   0   3  13    0.63    0.12
  -1  -3 -13    0.29    0.10
   1   3  13    0.54    0.11
   1   3  13    0.52    0.15
  -2  -3 -13    0.26    0.10
   2   3  13    0.32    0.09
   2   3  13    0.34    0.11
  -3  -3 -13    5.80    0.31
   3   3  13    5.47    0.29
   3   3  13    5.39    0.28
   4   3  13    0.13    0.07
   4   3  13    0.06    0.07
   5   3  13    9.55    0.43
   5   3  13    9.19    0.42
   6   3  13    0.25    0.08
   6   3  13    0.12    0.08
   7   3  13   21.39    0.85
   7   3  13   21.50    0.86
   8   3  13    0.83    0.11
  -2   4  13    2.56    0.16
   1  -4 -13   -0.02    0.08
  -1   4  13   -0.01    0.06
   0  -4 -13    0.53    0.14
   0   4  13    0.53    0.11
  -1  -4 -13    0.83    0.16
   1   4  13    0.84    0.12
  -2  -4 -13    3.84    0.26
   2   4  13    3.73    0.21
   2   4  13    3.34    0.24
  -3  -4 -13    0.23    0.14
   3   4  13    0.10    0.06
   3   4  13    0.07    0.09
   4   4  13    0.34    0.09
   4   4  13    0.25    0.07
   5   4  13    0.44    0.12
   5   4  13    0.57    0.12
   6   4  13    4.48    0.25
   6   4  13    4.56    0.23
   7   4  13   14.01    0.59
   7   4  13   14.13    0.57
   8   4  13    0.80    0.10
   8   4  13    1.00    0.15
   0   5  13    1.76    0.14
  -1  -5 -13    6.47    0.34
   1   5  13    6.68    0.31
   2   5  13    3.06    0.18
   3   5  13    1.18    0.12
   3   5  13    0.75    0.16
   4   5  13    0.99    0.13
   4   5  13    0.80    0.12
   5   5  13    3.84    0.21
   5   5  13    3.81    0.22
   6   5  13   17.76    0.71
   6   5  13   17.59    0.72
   7   5  13    0.91    0.12
   7   5  13    0.95    0.10
   1   6  13    1.20    0.17
   2   6  13    3.97    0.22
   3   6  13    6.39    0.30
   4   6  13    0.60    0.19
   4   6  13    1.08    0.12
   5   6  13    6.30    0.30
   5   6  13    6.12    0.29
   6   6  13   10.38    0.45
   6   6  13   10.93    0.44
   4   7  13    1.01    0.16
   5   7  13    0.18    0.08
  -2  -4  14    0.29    0.09
  -1  -4  14    3.24    0.18
   0  -4  14    0.72    0.11
   1  -4  14    6.38    0.29
   2  -4  14   14.26    0.57
  -2  -3  14    3.21    0.18
  -1  -3  14    1.21    0.12
   0   3 -14    2.05    0.17
   0  -3  14    1.76    0.14
  -1   3 -14    0.56    0.14
   1  -3  14    0.34    0.08
  -2   3 -14    0.24    0.10
   2  -3  14    0.23    0.07
   3  -3  14    0.35    0.08
  -3  -2  14   13.42    0.54
  -2  -2  14    3.01    0.18
  -2  -2  14    3.00    0.18
   1   2 -14    0.08    0.08
  -1  -2  14    0.08    0.07
  -1  -2  14    0.06    0.08
   0   2 -14   14.53    0.57
   0  -2  14   11.75    0.57
   0  -2  14   13.97    0.56
  -1   2 -14    0.86    0.14
   1  -2  14    0.75    0.11
  -2   2 -14    0.16    0.08
   2  -2  14    0.18    0.07
  -3   2 -14    8.99    0.42
   3  -2  14    9.26    0.40
   4  -2  14    0.38    0.11
  -3  -1  14    0.76    0.10
   2   1 -14    1.10    0.17
  -2  -1  14    0.91    0.14
  -2  -1  14    1.06    0.12
   1   1 -14    0.94    0.14
  -1  -1  14    1.00    0.12
  -1  -1  14    0.74    0.13
   0   1 -14   16.90    0.69
   0  -1  14   16.09    0.68
   0  -1  14   16.95    0.68
  -1   1 -14    5.38    0.28
   1  -1  14    5.47    0.27
   1  -1  14    5.27    0.27
  -2   1 -14    1.23    0.15
   2  -1  14    1.14    0.17
   2  -1  14    1.09    0.12
  -3   1 -14    3.37    0.22
   3  -1  14    3.47    0.20
  -4   1 -14    0.73    0.17
   4  -1  14    0.56    0.11
   5  -1  14    1.30    0.13
  -3   0  14   -0.01    0.05
   2   0 -14    8.92    0.39
  -2   0  14    8.27    0.37
   1   0 -14    0.70    0.14
  -1   0  14    0.64    0.11
  -1   0  14    0.73    0.13
   0   0 -14   19.74    0.81
   0   0  14   20.12    0.80
   0   0  14   19.49    0.80
  -1   0 -14    6.44    0.33
   1   0  14    7.01    0.33
   1   0  14    7.18    0.33
  -2   0 -14    1.92    0.17
   2   0  14    1.76    0.16
   2   0  14    2.03    0.15
  -3   0 -14    2.18    0.19
   3   0  14    2.00    0.15
   3   0  14    2.05    0.17
  -4   0 -14    6.47    0.34
   4   0  14    6.47    0.30
   5   0  14    5.11    0.25
   6   0  14    1.35    0.14
  -2   1  14    1.95    0.14
   1  -1 -14    8.44    0.37
  -1   1  14    7.96    0.35
  -1   1  14    7.14    0.37
   0  -1 -14    0.03    0.08
   0   1  14    0.08    0.06
   0   1  14    0.21    0.08
  -1  -1 -14    6.23    0.31
   1   1  14    6.41    0.30
   1   1  14    6.16    0.30
  -2  -1 -14    0.46    0.14
   2   1  14    0.41    0.11
   2   1  14    0.59    0.12
  -3  -1 -14   29.71    1.16
   3   1  14   28.77    1.14
   3   1  14   28.71    1.15
  -4  -1 -14    0.50    0.13
   4   1  14    0.53    0.11
   4   1  14    0.54    0.14
   5   1  14    3.58    0.19
   5   1  14    3.27    0.24
   6   1  14    4.77    0.23
  -2   2  14    0.11    0.05
   1  -2 -14    3.38    0.20
  -1   2  14    3.31    0.18
   0  -2 -14    1.66    0.16
   0   2  14    1.68    0.13
   0   2  14    1.85    0.19
  -1  -2 -14   29.27    1.10
   1   2  14   26.18    1.08
   1   2  14   26.91    1.09
  -2  -2 -14    2.29    0.19
   2   2  14    2.50    0.18
   2   2  14    2.46    0.17
  -3  -2 -14   11.86    0.51
   3   2  14   11.27    0.49
   3   2  14   11.44    0.49
  -4  -2 -14    3.55    0.27
   4   2  14    3.31    0.20
   4   2  14    3.43    0.20
   5   2  14    6.48    0.31
   5   2  14    6.19    0.30
   6   2  14    7.91    0.34
   6   2  14    7.88    0.37
   7   2  14    0.18    0.07
  -1   3  14   -0.05    0.05
   0  -3 -14    0.04    0.09
   0   3  14    0.03    0.05
  -1  -3 -14    0.58    0.16
   1   3  14    0.43    0.13
   1   3  14    0.61    0.10
  -2  -3 -14    0.10    0.11
   2   3  14    0.18    0.08
   2   3  14   -0.01    0.05
  -3  -3 -14    0.52    0.15
   3   3  14    0.69    0.12
   3   3  14    0.68    0.10
   4   3  14    0.11    0.06
   4   3  14    0.08    0.07
   5   3  14    2.55    0.17
   5   3  14    2.28    0.16
   6   3  14    5.55    0.28
   7   3  14    0.82    0.10
   0   4  14   -0.01    0.05
   1   4  14    4.41    0.22
   2   4  14    0.06    0.13
   2   4  14    0.06    0.05
   3   4  14    1.66    0.16
   3   4  14    1.64    0.13
   4   4  14    0.07    0.06
   4   4  14    0.04    0.07
   5   4  14    0.93    0.11
   5   4  14    1.20    0.13
   6   4  14    0.61    0.09
   6   4  14    0.41    0.11
   1   5  14    8.03    0.35
   2   5  14    1.74    0.13
   3   5  14    3.73    0.20
   4   5  14    5.23    0.25
   4   5  14    5.16    0.26
   5   5  14    0.04    0.06
   5   5  14    0.05    0.07
   6   5  14    0.40    0.10
   6   5  14    0.61    0.11
   0  -2  15    0.62    0.09
   1  -2  15    0.44    0.09
   2  -2  15    0.86    0.10
   3  -2  15    3.76    0.19
  -1  -1  15    0.76    0.12
  -1  -1  15    0.62    0.14
   0  -1  15    0.58    0.15
   0  -1  15    0.77    0.11
  -1   1 -15    0.39    0.13
   1  -1  15    0.60    0.10
  -2   1 -15    9.43    0.42
   2  -1  15    9.41    0.40
   3  -1  15    4.88    0.23
   4  -1  15    1.28    0.12
  -1   0  15    1.79    0.13
   0   0  15    4.24    0.22
   0   0  15    4.33    0.21
  -1   0 -15    1.90    0.17
   1   0  15    1.90    0.15
   1   0  15    1.76    0.14
  -2   0 -15    4.99    0.27
   2   0  15    5.07    0.25
   2   0  15    4.79    0.24
   3   0  15    0.99    0.11
   4   0  15    2.06    0.14
   5   0  15   10.24    0.42
  -1   1  15    0.50    0.09
   0   1  15   36.52    1.41
   0   1  15   37.23    1.42
  -1  -1 -15    1.30    0.17
   1   1  15    1.28    0.13
   1   1  15    1.00    0.12
  -2  -1 -15   12.63    0.52
   2   1  15   11.57    0.50
   2   1  15   11.75    0.50
   3   1  15    3.63    0.19
   3   1  15    3.41    0.20
   4   1  15    8.62    0.37
   4   1  15    8.72    0.39
   5   1  15    6.47    0.28
   0   2  15    0.06    0.05
   1   2  15    3.75    0.19
   1   2  15    3.45    0.22
   2   2  15   10.76    0.46
   2   2  15   11.26    0.46
   3   2  15    1.20    0.12
   3   2  15    1.15    0.12
   4   2  15    1.94    0.14
   4   2  15    1.68    0.15
   5   2  15    0.16    0.10
   5   2  15    0.38    0.09
   1   3  15    0.10    0.05
   2   3  15    1.58    0.12
   2   3  15    1.03    0.18
   3   3  15    3.85    0.21
   3   3  15    3.86    0.20
   4   3  15    1.36    0.13
   4   3  15    1.38    0.13
   5   3  15    3.54    0.20
   5   3  15    3.89    0.19
   3   4  15    3.58    0.19
   4   4  15    3.44    0.19
   4   4  15    3.36    0.18
   0   0   0    0.00    0.00
;
_shelx_hkl_checksum              40020
_shelx_res_file
;
    SKM235_0m.res created by SHELXL-2014/7
TITL SKM235_0m_a.res in P-1
REM Old TITL SKM235_0m in P-1
REM SHELXT solution in P-1
REM R1 0.126,  Rweak 0.009,  Alpha 0.035,  Orientation as input
REM Formula found by SHELXT:  C22 N2 O2 S Cl
CELL  1.54178   9.4083   9.5140  12.7168   86.863   79.175   71.222
ZERR    2.000   0.0003   0.0003   0.0004    0.001    0.001    0.001
LATT  1
SFAC C H N O S CL
UNIT 44 46 4 4 2 2
TEMP -123
SIZE 0.069 0.089 0.265
L.S. 5
BOND $H
LIST 4
FMAP 2
CONF
EQIV $1 -x+1, -y+2, -z+1
HTAB O1 O2_$1
ACTA 136
PLAN 5
OMIT 7 -1 7
OMIT 7 0 9
OMIT 8 1 9
OMIT 7 -1 8
OMIT 4 -3 9
MPLA C13 > C18
MPLA C1 N1 C7 > C9
WGHT    0.054500    0.319000
FVAR       0.27689
CL1   6    1.095511    0.235341    0.314226    11.00000    0.03155    0.02441 =
         0.04623    0.00079   -0.00492    0.00513
S1    5    0.144263    0.892109    0.063235    11.00000    0.02880    0.04652 =
         0.03561    0.00370   -0.01517   -0.01295
O1    4    0.481959    1.164506    0.382912    11.00000    0.02496    0.02168 =
         0.02389   -0.00529    0.00053   -0.00433
H1    2    0.425480    1.107743    0.400690    11.00000    0.05151
O2    4    0.727749    0.972885    0.498180    11.00000    0.02943    0.03140 =
         0.02343   -0.00177   -0.00506   -0.00924
N1    3    0.302237    0.769483    0.218413    11.00000    0.02017    0.02731 =
         0.02897    0.00079   -0.00461   -0.00792
N2    3    0.271019    1.204569    0.008559    11.00000    0.05434    0.03399 =
         0.03127    0.00529   -0.01655   -0.00823
C1    1    0.459081    0.977398    0.202889    11.00000    0.02031    0.01844 =
         0.01870   -0.00240   -0.00071   -0.00274
C2    1    0.535081    1.096049    0.194966    11.00000    0.02997    0.01862 =
         0.02131    0.00196   -0.00441   -0.00753
H2A   2    0.614545    1.079433    0.132093    11.00000    0.02558
H2B   2    0.457527    1.196390    0.185805    11.00000    0.02833
C3    1    0.601419    1.105239    0.294286    11.00000    0.02357    0.01853 =
         0.02059   -0.00121   -0.00040   -0.00578
C4    1    0.702887    0.946823    0.316440    11.00000    0.02018    0.01961 =
         0.02018   -0.00142   -0.00119   -0.00595
H4    2    0.780281    0.911363    0.251373    11.00000    0.02415
C5    1    0.610865    0.836582    0.343262    11.00000    0.01957    0.01764 =
         0.01983   -0.00019   -0.00274   -0.00458
H5    2    0.560106    0.853345    0.418195    11.00000    0.02122
C6    1    0.491375    0.858211    0.273225    11.00000    0.01814    0.01806 =
         0.01951   -0.00128   -0.00189   -0.00273
C7    1    0.403421    0.761460    0.282246    11.00000    0.01853    0.02228 =
         0.02429   -0.00038   -0.00160   -0.00489
C8    1    0.278101    0.877845    0.146446    11.00000    0.01825    0.02829 =
         0.02458   -0.00219   -0.00296   -0.00371
C9    1    0.349897    0.986836    0.139122    11.00000    0.02263    0.02061 =
         0.02074   -0.00076   -0.00290   -0.00173
C10   1    0.692465    1.213691    0.275159    11.00000    0.03330    0.02336 =
         0.03276    0.00067   -0.00456   -0.01343
H10A  2    0.725145    1.230402    0.341453    11.00000    0.03193
H10B  2    0.782955    1.179935    0.217779    11.00000    0.03835
H10C  2    0.628190    1.311184    0.254339    11.00000    0.03769
C11   1    0.792086    0.944744    0.405793    11.00000    0.02361    0.01913 =
         0.02567   -0.00059   -0.00424   -0.00723
C12   1    0.961680    0.903394    0.374361    11.00000    0.02348    0.04473 =
         0.03687   -0.00472   -0.00532   -0.01002
H12A  2    1.005649    0.805753    0.342585    11.00000    0.05411
H12B  2    1.005794    0.906673    0.437208    11.00000    0.05532
H12C  2    0.987904    0.966872    0.320389    11.00000    0.04753
C13   1    0.726126    0.680241    0.335709    11.00000    0.01781    0.01807 =
         0.02193    0.00029   -0.00398   -0.00602
C14   1    0.767978    0.605754    0.427878    11.00000    0.02584    0.02180 =
         0.02154    0.00007   -0.00467   -0.00533
H14   2    0.715418    0.648717    0.496926    11.00000    0.03572
C15   1    0.881267    0.468024    0.421252    11.00000    0.02570    0.02303 =
         0.02539    0.00429   -0.00818   -0.00564
H15   2    0.910813    0.415942    0.483627    11.00000    0.03160
C16   1    0.952032    0.406063    0.321584    11.00000    0.02056    0.01898 =
         0.03294    0.00028   -0.00444   -0.00498
C17   1    0.911005    0.476585    0.228608    11.00000    0.02566    0.02240 =
         0.02409   -0.00236    0.00010   -0.00654
H17   2    0.958309    0.430004    0.158399    11.00000    0.04293
C18   1    0.797452    0.614255    0.236086    11.00000    0.02468    0.02128 =
         0.02098    0.00038   -0.00393   -0.00707
H18   2    0.769610    0.666937    0.170870    11.00000    0.02978
C19   1    0.410914    0.644642    0.367535    11.00000    0.02892    0.03124 =
         0.03686    0.01037   -0.00877   -0.01540
H19A  2    0.413663    0.678597    0.437196    11.00000    0.05046
H19B  2    0.505830    0.559865    0.350225    11.00000    0.05074
H19C  2    0.325857    0.611524    0.372177    11.00000    0.04869
C20   1    0.308231    1.108728    0.066720    11.00000    0.03065    0.02639 =
         0.02283   -0.00043   -0.00758   -0.00408
C21   1    0.119844    0.711012    0.077805    11.00000    0.05329    0.06726 =
         0.04158    0.00723   -0.01788   -0.04192
H21A  2    0.029451    0.722973    0.047618    11.00000    0.06493
H21B  2    0.093992    0.694407    0.157668    11.00000    0.05396
C22   1    0.254674    0.589852    0.021981    11.00000    0.10003    0.04827 =
         0.05345   -0.00111   -0.02448   -0.03579
H22A  2    0.235728    0.492573    0.034027    11.00000    0.08208
H22B  2    0.284233    0.607397   -0.057959    11.00000    0.07583
H22C  2    0.349734    0.577724    0.051214    11.00000    0.06773
HKLF 4
REM  SKM235_0m_a.res in P-1
REM R1 =  0.0354 for    3653 Fo > 4sig(Fo)  and  0.0384 for all    3971 data
REM    345 parameters refined using      0 restraints
END
WGHT      0.0542      0.3201
REM Highest difference peak  0.190,  deepest hole -0.378,  1-sigma level  0.053
Q1    1   0.2867  0.8897  0.0043  11.00000  0.05    0.19
Q2    1   1.2134  0.2636  0.2848  11.00000  0.05    0.17
Q3    1   1.1644  0.2598  0.2240  11.00000  0.05    0.17
Q4    1   0.6494  1.0271  0.3085  11.00000  0.05    0.15
Q5    1   0.1677  0.8837  0.2408  11.00000  0.05    0.15
;
_shelx_res_checksum              42974
loop_
_space_group_symop_operation_xyz
'x, y, z'
'-x, -y, -z'
loop_
_atom_site_type_symbol
_atom_site_label
_atom_site_fract_x
_atom_site_fract_y
_atom_site_fract_z
_atom_site_U_iso_or_equiv
_atom_site_adp_type
_atom_site_calc_flag
_atom_site_occupancy
Cl Cl1 1.09551(4) 0.23534(4) 0.31423(3) 0.03778(13) Uani d 1
S S1 0.14426(4) 0.89211(5) 0.06323(3) 0.03559(13) Uani d 1
O O1 0.48196(11) 1.16451(11) 0.38291(8) 0.0247(2) Uani d 1
H H1 0.425(3) 1.108(3) 0.4007(18) 0.052(6) Uiso d 1
O O2 0.72775(12) 0.97289(12) 0.49818(8) 0.0281(2) Uani d 1
N N1 0.30224(13) 0.76948(14) 0.21841(10) 0.0254(3) Uani d 1
N N2 0.27102(19) 1.20457(16) 0.00856(12) 0.0403(3) Uani d 1
C C1 0.45908(15) 0.97740(14) 0.20289(10) 0.0203(3) Uani d 1
C C2 0.53508(17) 1.09605(15) 0.19497(11) 0.0234(3) Uani d 1
H H2A 0.615(2) 1.0794(19) 0.1321(14) 0.026(4) Uiso d 1
H H2B 0.458(2) 1.196(2) 0.1858(14) 0.028(4) Uiso d 1
C C3 0.60142(15) 1.10524(15) 0.29429(11) 0.0216(3) Uani d 1
C C4 0.70289(15) 0.94682(15) 0.31644(11) 0.0204(3) Uani d 1
H H4 0.780(2) 0.9114(18) 0.2514(14) 0.024(4) Uiso d 1
C C5 0.61087(15) 0.83658(14) 0.34326(10) 0.0194(3) Uani d 1
H H5 0.5601(19) 0.8533(18) 0.4182(13) 0.021(4) Uiso d 1
C C6 0.49137(15) 0.85821(14) 0.27322(10) 0.0195(3) Uani d 1
C C7 0.40342(15) 0.76146(15) 0.28225(11) 0.0224(3) Uani d 1
C C8 0.27810(15) 0.87785(16) 0.14645(11) 0.0246(3) Uani d 1
C C9 0.34990(15) 0.98684(15) 0.13912(11) 0.0227(3) Uani d 1
C C10 0.69246(18) 1.21369(17) 0.27516(13) 0.0289(3) Uani d 1
H H10A 0.725(2) 1.230(2) 0.3415(15) 0.032(5) Uiso d 1
H H10B 0.783(2) 1.180(2) 0.2178(16) 0.038(5) Uiso d 1
H H10C 0.628(2) 1.311(2) 0.2543(16) 0.038(5) Uiso d 1
C C11 0.79209(16) 0.94474(15) 0.40579(11) 0.0227(3) Uani d 1
C C12 0.96168(18) 0.9034(2) 0.37436(15) 0.0350(4) Uani d 1
H H12A 1.006(3) 0.806(3) 0.3426(19) 0.054(6) Uiso d 1
H H12B 1.006(3) 0.907(3) 0.4372(19) 0.055(6) Uiso d 1
H H12C 0.988(3) 0.967(2) 0.3204(19) 0.048(6) Uiso d 1
C C13 0.72613(14) 0.68024(14) 0.33571(11) 0.0191(3) Uani d 1
C C14 0.76798(16) 0.60575(15) 0.42788(11) 0.0235(3) Uani d 1
H H14 0.715(2) 0.649(2) 0.4969(16) 0.036(5) Uiso d 1
C C15 0.88127(16) 0.46802(16) 0.42125(12) 0.0249(3) Uani d 1
H H15 0.911(2) 0.416(2) 0.4836(15) 0.032(5) Uiso d 1
C C16 0.95203(15) 0.40606(15) 0.32158(12) 0.0245(3) Uani d 1
C C17 0.91100(16) 0.47659(16) 0.22861(12) 0.0248(3) Uani d 1
H H17 0.958(2) 0.430(2) 0.1584(17) 0.043(5) Uiso d 1
C C18 0.79745(16) 0.61425(15) 0.23609(11) 0.0224(3) Uani d 1
H H18 0.770(2) 0.667(2) 0.1709(15) 0.030(4) Uiso d 1
C C19 0.41091(18) 0.64464(18) 0.36753(14) 0.0309(3) Uani d 1
H H19A 0.414(3) 0.679(2) 0.4372(19) 0.050(6) Uiso d 1
H H19B 0.506(3) 0.560(3) 0.3502(18) 0.051(6) Uiso d 1
H H19C 0.326(3) 0.612(2) 0.3722(17) 0.049(6) Uiso d 1
C C20 0.30823(17) 1.10873(16) 0.06672(11) 0.0274(3) Uani d 1
C C21 0.1198(2) 0.7110(3) 0.07781(16) 0.0475(5) Uani d 1
H H21A 0.029(3) 0.723(3) 0.048(2) 0.065(7) Uiso d 1
H H21B 0.094(3) 0.694(3) 0.158(2) 0.054(6) Uiso d 1
C C22 0.2547(4) 0.5899(3) 0.0220(2) 0.0628(6) Uani d 1
H H22A 0.236(3) 0.493(3) 0.034(2) 0.082(9) Uiso d 1
H H22B 0.284(3) 0.607(3) -0.058(2) 0.076(8) Uiso d 1
H H22C 0.350(3) 0.578(3) 0.051(2) 0.068(7) Uiso d 1
loop_
_atom_site_aniso_label
_atom_site_aniso_U_11
_atom_site_aniso_U_22
_atom_site_aniso_U_33
_atom_site_aniso_U_12
_atom_site_aniso_U_13
_atom_site_aniso_U_23
Cl1 0.0316(2) 0.02441(19) 0.0462(2) 0.00513(14) -0.00492(17) 0.00079(16)
S1 0.0288(2) 0.0465(2) 0.0356(2) -0.01295(17) -0.01517(17) 0.00370(18)
O1 0.0250(5) 0.0217(5) 0.0239(5) -0.0043(4) 0.0005(4) -0.0053(4)
O2 0.0294(5) 0.0314(5) 0.0234(5) -0.0092(4) -0.0051(4) -0.0018(4)
N1 0.0202(6) 0.0273(6) 0.0290(6) -0.0079(5) -0.0046(5) 0.0008(5)
N2 0.0543(9) 0.0340(7) 0.0313(7) -0.0082(7) -0.0166(7) 0.0053(6)
C1 0.0203(6) 0.0184(6) 0.0187(6) -0.0027(5) -0.0007(5) -0.0024(5)
C2 0.0300(7) 0.0186(6) 0.0213(6) -0.0075(6) -0.0044(6) 0.0020(5)
C3 0.0236(6) 0.0185(6) 0.0206(6) -0.0058(5) -0.0004(5) -0.0012(5)
C4 0.0202(6) 0.0196(6) 0.0202(6) -0.0060(5) -0.0012(5) -0.0014(5)
C5 0.0196(6) 0.0176(6) 0.0198(6) -0.0046(5) -0.0027(5) -0.0002(5)
C6 0.0181(6) 0.0181(6) 0.0195(6) -0.0027(5) -0.0019(5) -0.0013(5)
C7 0.0185(6) 0.0223(6) 0.0243(6) -0.0049(5) -0.0016(5) -0.0004(5)
C8 0.0182(6) 0.0283(7) 0.0246(7) -0.0037(5) -0.0030(5) -0.0022(6)
C9 0.0226(6) 0.0206(6) 0.0207(6) -0.0017(5) -0.0029(5) -0.0008(5)
C10 0.0333(8) 0.0234(7) 0.0328(8) -0.0134(6) -0.0046(7) 0.0007(6)
C11 0.0236(7) 0.0191(6) 0.0257(7) -0.0072(5) -0.0042(6) -0.0006(5)
C12 0.0235(7) 0.0447(10) 0.0369(9) -0.0100(7) -0.0053(7) -0.0047(8)
C13 0.0178(6) 0.0181(6) 0.0219(6) -0.0060(5) -0.0040(5) 0.0003(5)
C14 0.0258(7) 0.0218(6) 0.0215(7) -0.0053(5) -0.0047(6) 0.0001(5)
C15 0.0257(7) 0.0230(7) 0.0254(7) -0.0056(5) -0.0082(6) 0.0043(6)
C16 0.0206(6) 0.0190(6) 0.0329(7) -0.0050(5) -0.0044(6) 0.0003(6)
C17 0.0257(7) 0.0224(7) 0.0241(7) -0.0065(5) 0.0001(6) -0.0024(6)
C18 0.0247(7) 0.0213(6) 0.0210(6) -0.0071(5) -0.0039(5) 0.0004(5)
C19 0.0289(8) 0.0312(8) 0.0369(8) -0.0154(7) -0.0088(7) 0.0104(7)
C20 0.0306(7) 0.0264(7) 0.0228(7) -0.0041(6) -0.0076(6) -0.0004(6)
C21 0.0533(11) 0.0673(13) 0.0416(10) -0.0419(10) -0.0179(9) 0.0072(9)
C22 0.100(2) 0.0483(12) 0.0535(13) -0.0358(13) -0.0245(13) -0.0011(10)
loop_
_atom_type_symbol
_atom_type_description
_atom_type_scat_dispersion_real
_atom_type_scat_dispersion_imag
_atom_type_scat_source
C C 0.0181 0.0091 'International Tables Vol C Tables 4.2.6.8 and 6.1.1.4'
H H 0.0000 0.0000 'International Tables Vol C Tables 4.2.6.8 and 6.1.1.4'
N N 0.0311 0.0180 'International Tables Vol C Tables 4.2.6.8 and 6.1.1.4'
O O 0.0492 0.0322 'International Tables Vol C Tables 4.2.6.8 and 6.1.1.4'
S S 0.3331 0.5567 'International Tables Vol C Tables 4.2.6.8 and 6.1.1.4'
Cl Cl 0.3639 0.7018 'International Tables Vol C Tables 4.2.6.8 and 6.1.1.4'
loop_
_geom_angle_atom_site_label_1
_geom_angle_atom_site_label_2
_geom_angle_atom_site_label_3
_geom_angle
C8 S1 C21 101.82(8)
C3 O1 H1 111.8(15)
C8 N1 C7 118.86(12)
C6 C1 C9 118.03(12)
C6 C1 C2 122.39(12)
C9 C1 C2 119.57(12)
C1 C2 C3 112.98(11)
C1 C2 H2A 110.1(10)
C3 C2 H2A 109.7(10)
C1 C2 H2B 109.4(10)
C3 C2 H2B 107.6(10)
H2A C2 H2B 106.8(14)
O1 C3 C10 105.58(11)
O1 C3 C2 110.47(11)
C10 C3 C2 109.94(11)
O1 C3 C4 112.05(11)
C10 C3 C4 111.59(12)
C2 C3 C4 107.25(11)
C11 C4 C3 112.15(11)
C11 C4 C5 109.54(11)
C3 C4 C5 112.56(11)
C11 C4 H4 105.9(10)
C3 C4 H4 107.8(10)
C5 C4 H4 108.6(10)
C6 C5 C13 113.33(10)
C6 C5 C4 112.58(11)
C13 C5 C4 107.19(10)
C6 C5 H5 109.1(10)
C13 C5 H5 107.0(9)
C4 C5 H5 107.3(9)
C1 C6 C7 117.95(12)
C1 C6 C5 121.75(12)
C7 C6 C5 120.20(12)
N1 C7 C6 123.02(13)
N1 C7 C19 114.57(12)
C6 C7 C19 122.37(13)
N1 C8 C9 121.71(13)
N1 C8 S1 119.68(11)
C9 C8 S1 118.50(11)
C8 C9 C1 119.97(13)
C8 C9 C20 119.01(13)
C1 C9 C20 121.01(13)
C3 C10 H10A 110.9(11)
C3 C10 H10B 112.5(11)
H10A C10 H10B 109.2(16)
C3 C10 H10C 110.1(12)
H10A C10 H10C 106.2(16)
H10B C10 H10C 107.6(16)
O2 C11 C12 121.86(13)
O2 C11 C4 121.37(12)
C12 C11 C4 116.76(12)
C11 C12 H12A 111.8(14)
C11 C12 H12B 109.4(14)
H12A C12 H12B 109.4(19)
C11 C12 H12C 110.3(14)
H12A C12 H12C 104.4(19)
H12B C12 H12C 111.5(19)
C14 C13 C18 119.17(12)
C14 C13 C5 120.31(12)
C18 C13 C5 120.41(12)
C13 C14 C15 120.67(13)
C13 C14 H14 119.4(11)
C15 C14 H14 119.9(11)
C16 C15 C14 119.08(13)
C16 C15 H15 119.4(11)
C14 C15 H15 121.5(11)
C15 C16 C17 121.49(13)
C15 C16 Cl1 118.67(11)
C17 C16 Cl1 119.85(11)
C16 C17 C18 118.99(13)
C16 C17 H17 121.1(12)
C18 C17 H17 119.9(12)
C17 C18 C13 120.58(13)
C17 C18 H18 119.9(11)
C13 C18 H18 119.5(10)
C7 C19 H19A 113.7(13)
C7 C19 H19B 110.8(13)
H19A C19 H19B 104.6(18)
C7 C19 H19C 108.6(13)
H19A C19 H19C 109.5(19)
H19B C19 H19C 109.6(18)
N2 C20 C9 177.77(17)
C22 C21 S1 113.37(15)
C22 C21 H21A 111.5(15)
S1 C21 H21A 103.7(15)
C22 C21 H21B 113.4(13)
S1 C21 H21B 106.3(13)
H21A C21 H21B 108(2)
C21 C22 H22A 109.8(17)
C21 C22 H22B 114.1(16)
H22A C22 H22B 111(2)
C21 C22 H22C 112.5(15)
H22A C22 H22C 105(2)
H22B C22 H22C 104(2)
loop_
_geom_bond_atom_site_label_1
_geom_bond_atom_site_label_2
_geom_bond_distance
Cl1 C16 1.7398(14)
S1 C8 1.7603(14)
S1 C21 1.805(2)
O1 C3 1.4273(16)
O1 H1 0.87(2)
O2 C11 1.2171(17)
N1 C8 1.3327(19)
N1 C7 1.3445(19)
N2 C20 1.148(2)
C1 C6 1.3955(19)
C1 C9 1.402(2)
C1 C2 1.5086(18)
C2 C3 1.5283(19)
C2 H2A 0.968(18)
C2 H2B 1.014(18)
C3 C10 1.5234(19)
C3 C4 1.5461(18)
C4 C11 1.5300(19)
C4 C5 1.5493(17)
C4 H4 0.987(18)
C5 C6 1.5187(18)
C5 C13 1.5283(17)
C5 H5 0.979(17)
C6 C7 1.4101(19)
C7 C19 1.504(2)
C8 C9 1.399(2)
C9 C20 1.440(2)
C10 H10A 0.987(19)
C10 H10B 0.99(2)
C10 H10C 0.98(2)
C11 C12 1.495(2)
C12 H12A 0.96(2)
C12 H12B 0.97(2)
C12 H12C 0.94(2)
C13 C14 1.3906(19)
C13 C18 1.3950(19)
C14 C15 1.393(2)
C14 H14 0.96(2)
C15 C16 1.382(2)
C15 H15 0.950(19)
C16 C17 1.384(2)
C17 C18 1.393(2)
C17 H17 0.98(2)
C18 H18 0.979(19)
C19 H19A 0.97(2)
C19 H19B 0.99(2)
C19 H19C 0.94(2)
C21 C22 1.501(4)
C21 H21A 0.97(3)
C21 H21B 1.01(2)
C22 H22A 1.00(3)
C22 H22B 1.02(3)
C22 H22C 1.00(3)
loop_
_geom_hbond_atom_site_label_D
_geom_hbond_atom_site_label_H
_geom_hbond_atom_site_label_A
_geom_hbond_site_symmetry_A
_geom_hbond_distance_DH
_geom_hbond_distance_HA
_geom_hbond_distance_DA
_geom_hbond_angle_DHA
O1 H1 O2 2_676 0.87(2) 2.06(2) 2.8655(15) 155(2)
C5 H5 O1 2_676 0.98(2) 2.49(2) 3.4276(16) 160.0(10)
C14 H14 O1 2_676 0.97(2) 2.46(2) 3.3523(17) 154(2)
C18 H18 N2 2_675 0.98(2) 2.56(2) 3.538(2) 174(2)
loop_
_geom_torsion_atom_site_label_1
_geom_torsion_atom_site_label_2
_geom_torsion_atom_site_label_3
_geom_torsion_atom_site_label_4
_geom_torsion
C6 C1 C2 C3 -20.84(18)
C9 C1 C2 C3 158.07(12)
C1 C2 C3 O1 -70.69(14)
C1 C2 C3 C10 173.18(12)
C1 C2 C3 C4 51.68(15)
O1 C3 C4 C11 -65.87(14)
C10 C3 C4 C11 52.30(15)
C2 C3 C4 C11 172.75(11)
O1 C3 C4 C5 58.20(14)
C10 C3 C4 C5 176.36(11)
C2 C3 C4 C5 -63.19(14)
C11 C4 C5 C6 166.36(10)
C3 C4 C5 C6 40.86(15)
C11 C4 C5 C13 -68.35(13)
C3 C4 C5 C13 166.15(11)
C9 C1 C6 C7 -5.11(18)
C2 C1 C6 C7 173.82(12)
C9 C1 C6 C5 178.36(12)
C2 C1 C6 C5 -2.72(19)
C13 C5 C6 C1 -129.28(13)
C4 C5 C6 C1 -7.41(17)
C13 C5 C6 C7 54.26(16)
C4 C5 C6 C7 176.13(11)
C8 N1 C7 C6 -3.2(2)
C8 N1 C7 C19 174.33(13)
C1 C6 C7 N1 7.4(2)
C5 C6 C7 N1 -176.06(12)
C1 C6 C7 C19 -170.04(13)
C5 C6 C7 C19 6.6(2)
C7 N1 C8 C9 -3.0(2)
C7 N1 C8 S1 -179.14(10)
C21 S1 C8 N1 -16.72(14)
C21 S1 C8 C9 166.99(12)
N1 C8 C9 C1 4.9(2)
S1 C8 C9 C1 -178.87(10)
N1 C8 C9 C20 -174.18(13)
S1 C8 C9 C20 2.02(17)
C6 C1 C9 C8 -0.62(19)
C2 C1 C9 C8 -179.58(12)
C6 C1 C9 C20 178.46(12)
C2 C1 C9 C20 -0.49(19)
C3 C4 C11 O2 67.98(16)
C5 C4 C11 O2 -57.75(16)
C3 C4 C11 C12 -113.30(14)
C5 C4 C11 C12 120.97(14)
C6 C5 C13 C14 -135.46(13)
C4 C5 C13 C14 99.70(14)
C6 C5 C13 C18 48.46(16)
C4 C5 C13 C18 -76.37(15)
C18 C13 C14 C15 1.0(2)
C5 C13 C14 C15 -175.14(12)
C13 C14 C15 C16 0.1(2)
C14 C15 C16 C17 -1.1(2)
C14 C15 C16 Cl1 178.98(11)
C15 C16 C17 C18 1.1(2)
Cl1 C16 C17 C18 -179.05(10)
C16 C17 C18 C13 0.0(2)
C14 C13 C18 C17 -1.0(2)
C5 C13 C18 C17 175.07(12)
C8 S1 C21 C22 -72.41(17)

_cod_database_fobs_code 1545623
