#------------------------------------------------------------------------------
#$Date: 2017-05-05 00:21:36 +0300 (Fri, 05 May 2017) $
#$Revision: 196074 $
#$URL: file:///home/coder/svn-repositories/cod/cif/1/54/59/1545940.cif $
#------------------------------------------------------------------------------
#
# This file is available in the Crystallography Open Database (COD),
# http://www.crystallography.net/
#
# All data on this site have been placed in the public domain by the
# contributors.
#
data_1545940
loop_
_publ_author_name
'Bai, Lu'
'Wang, Yan'
'Ge, Yicong'
'Liu, Jingjing'
'Luan, Xinjun'
_publ_section_title
;
 Diastereoselective Synthesis of Dibenzo[b,d]azepines by Pd(II)-Catalyzed
 [5 + 2] Annulation of o-Arylanilines with Dienes.
;
_journal_issue                   7
_journal_name_full               'Organic letters'
_journal_page_first              1734
_journal_page_last               1737
_journal_paper_doi               10.1021/acs.orglett.7b00503
_journal_volume                  19
_journal_year                    2017
_chemical_formula_sum            'C26 H26 N2 O3 S'
_chemical_formula_weight         446.55
_space_group_crystal_system      monoclinic
_space_group_IT_number           15
_space_group_name_Hall           '-C 2yc'
_space_group_name_H-M_alt        'C 1 2/c 1'
_symmetry_space_group_name_Hall  '-C 2yc'
_symmetry_space_group_name_H-M   'C 1 2/c 1'
_atom_sites_solution_hydrogens   geom
_audit_creation_method           SHELXL-2014/7
_cell_angle_alpha                90
_cell_angle_beta                 112.371(7)
_cell_angle_gamma                90
_cell_formula_units_Z            8
_cell_length_a                   18.154(9)
_cell_length_b                   19.790(10)
_cell_length_c                   13.725(8)
_cell_measurement_reflns_used    1010
_cell_measurement_temperature    296(2)
_cell_measurement_theta_max      37.416
_cell_measurement_theta_min      5.220
_cell_volume                     4560(4)
_computing_structure_refinement  'SHELXL-2014/7 (Sheldrick, 2014)'
_diffrn_ambient_temperature      296(2)
_diffrn_measured_fraction_theta_full 0.998
_diffrn_measured_fraction_theta_max 0.996
_diffrn_measurement_device_type  'Bruker APEX-II CCD'
_diffrn_radiation_type           MoK\a
_diffrn_radiation_wavelength     0.71073
_diffrn_reflns_av_R_equivalents  0.0646
_diffrn_reflns_av_unetI/netI     0.0848
_diffrn_reflns_Laue_measured_fraction_full 0.998
_diffrn_reflns_Laue_measured_fraction_max 0.996
_diffrn_reflns_limit_h_max       21
_diffrn_reflns_limit_h_min       -22
_diffrn_reflns_limit_k_max       23
_diffrn_reflns_limit_k_min       -24
_diffrn_reflns_limit_l_max       16
_diffrn_reflns_limit_l_min       -10
_diffrn_reflns_number            12244
_diffrn_reflns_point_group_measured_fraction_full 0.998
_diffrn_reflns_point_group_measured_fraction_max 0.996
_diffrn_reflns_theta_full        25.242
_diffrn_reflns_theta_max         25.997
_diffrn_reflns_theta_min         1.904
_exptl_absorpt_coefficient_mu    0.173
_exptl_crystal_colour            colorless
_exptl_crystal_density_diffrn    1.301
_exptl_crystal_description       block
_exptl_crystal_F_000             1888
_exptl_crystal_size_max          0.350
_exptl_crystal_size_mid          0.230
_exptl_crystal_size_min          0.140
_refine_diff_density_max         0.266
_refine_diff_density_min         -0.250
_refine_diff_density_rms         0.079
_refine_ls_extinction_method     none
_refine_ls_goodness_of_fit_ref   0.964
_refine_ls_hydrogen_treatment    constr
_refine_ls_matrix_type           full
_refine_ls_number_parameters     292
_refine_ls_number_reflns         4480
_refine_ls_number_restraints     0
_refine_ls_restrained_S_all      0.964
_refine_ls_R_factor_all          0.1219
_refine_ls_R_factor_gt           0.0554
_refine_ls_shift/su_max          0.001
_refine_ls_shift/su_mean         0.000
_refine_ls_structure_factor_coef Fsqd
_refine_ls_weighting_details
'w=1/[\s^2^(Fo^2^)+(0.0757P)^2^] where P=(Fo^2^+2Fc^2^)/3'
_refine_ls_weighting_scheme      calc
_refine_ls_wR_factor_gt          0.1262
_refine_ls_wR_factor_ref         0.1697
_reflns_Friedel_coverage         0.000
_reflns_number_gt                2331
_reflns_number_total             4480
_reflns_threshold_expression     'I > 2\s(I)'
_cod_data_source_file            ol7b00503_si_004.cif
_cod_data_source_block           1
_cod_database_code               1545940
_shelx_shelxl_version_number     2014/7
_shelx_space_group_comment
;
The symmetry employed for this shelxl refinement is uniquely defined
by the following loop, which should always be used as a source of
symmetry information in preference to the above space-group names.
They are only intended as comments.
;
_shelx_estimated_absorpt_t_min   0.942
_shelx_estimated_absorpt_t_max   0.976
_shelx_res_file
;

    1.res created by SHELXL-2014/7

TITL 1 in C2/c
CELL 0.71073  18.1541  19.7904  13.7249  90.000 112.371  90.000
ZERR   8.00   0.0090   0.0103   0.0079   0.000   0.007   0.000
LATT 7
SYMM -X, Y, 0.5-Z
SFAC C  H  N  O  S
UNIT 208  208  16  24  8
OMIT -3 52
L.S. 20
size 0.35 0.23 0.14
ACTA
BOND
FMAP 2
PLAN 20
TEMP 23.000
WGHT    0.075700
FVAR       0.05758
MOLE 1
S1    5    0.094359    0.365116    0.617878    11.00000    0.04057    0.04648 =
         0.05014    0.00838    0.00628   -0.00534
O1    4    0.029254    0.342907    0.643462    11.00000    0.03957    0.06549 =
         0.08382    0.02162    0.01400   -0.01277
O2    4    0.099004    0.345633    0.520606    11.00000    0.07054    0.06259 =
         0.04126   -0.00488    0.00417    0.00457
C1    1    0.095689    0.453316    0.622947    11.00000    0.03179    0.04273 =
         0.04538    0.00916    0.00838    0.00184
C2    1    0.107000    0.490971    0.545338    11.00000    0.04848    0.05525 =
         0.05677    0.01293    0.01946   -0.00265
AFIX  43
H2    2    0.114320    0.469568    0.489367    11.00000   -1.20000
AFIX   0
C4    1    0.098152    0.593808    0.632799    11.00000    0.04767    0.05035 =
         0.08046    0.00623   -0.00151   -0.00059
C6    1    0.084919    0.486140    0.705001    11.00000    0.06711    0.05926 =
         0.05836    0.00834    0.02411    0.00790
AFIX  43
H6    2    0.076573    0.461414    0.757510    11.00000   -1.20000
AFIX   0
C5    1    0.086540    0.555742    0.709112    11.00000    0.07115    0.06992 =
         0.06696   -0.00983    0.01304    0.01345
AFIX  43
H5    2    0.079573    0.577415    0.765121    11.00000   -1.20000
AFIX   0
C3    1    0.107412    0.560396    0.551051    11.00000    0.05617    0.05350 =
         0.07955    0.02238    0.01950   -0.00588
AFIX  43
H3    2    0.114199    0.585346    0.497649    11.00000   -1.20000
AFIX   0
C7    1    0.100857    0.670087    0.638996    11.00000    0.09704    0.05294 =
         0.13634   -0.00510   -0.00058   -0.00459
AFIX 137
H7A   2    0.101539    0.688240    0.574481    11.00000   -1.50000
H7B   2    0.148045    0.684039    0.696757    11.00000   -1.50000
H7C   2    0.054705    0.686423    0.649686    11.00000   -1.50000
AFIX   0
C8    1    0.173744    0.325440    0.819160    11.00000    0.04178    0.04014 =
         0.05088    0.00745    0.01945   -0.00073
AFIX  13
H8    2    0.129031    0.350411    0.825123    11.00000   -1.20000
AFIX   0
C11   1    0.092785    0.152837    0.859026    11.00000    0.04428    0.04049 =
         0.04215    0.00417    0.01177    0.00191
N2    3    0.042091    0.129989    0.901922    11.00000    0.05441    0.03993 =
         0.06558    0.00657    0.02604   -0.00905
C9    1    0.161278    0.251950    0.831236    11.00000    0.04543    0.03820 =
         0.05106    0.00710    0.01808    0.00577
AFIX  43
H9    2    0.198339    0.221955    0.824090    11.00000   -1.20000
AFIX   0
C10   1    0.102005    0.226696    0.851139    11.00000    0.04197    0.03459 =
         0.04733    0.00222    0.01848    0.00392
AFIX  43
H10   2    0.064909    0.255665    0.860528    11.00000   -1.20000
AFIX   0
O3    4    0.130583    0.113866    0.826821    11.00000    0.07617    0.03937 =
         0.08333   -0.00355    0.04108    0.00718
C13   1    0.030524    0.057860    0.907017    11.00000    0.06266    0.04617 =
         0.10805    0.01611    0.02553   -0.01492
AFIX 137
H13A  2    0.060039    0.034445    0.872387    11.00000   -1.50000
H13B  2   -0.025073    0.047405    0.872658    11.00000   -1.50000
H13C  2    0.048940    0.043923    0.979385    11.00000   -1.50000
AFIX   0
C14   1   -0.002641    0.171757    0.945056    11.00000    0.09186    0.07029 =
         0.09580   -0.00241    0.06308   -0.01112
AFIX 137
H14A  2    0.028750    0.180978    1.017792    11.00000   -1.50000
H14B  2   -0.050608    0.148742    0.939583    11.00000   -1.50000
H14C  2   -0.015992    0.213493    0.906649    11.00000   -1.50000
AFIX   0
N1    3    0.174697    0.338003    0.712788    11.00000    0.03913    0.04436 =
         0.04180    0.00891    0.01219   -0.00099
C20   1    0.304069    0.388802    0.739096    11.00000    0.04311    0.06617 =
         0.04218    0.01086    0.01372    0.00158
C15   1    0.248941    0.337317    0.697202    11.00000    0.04437    0.05541 =
         0.03793    0.01060    0.01344    0.00426
C19   1    0.373826    0.386887    0.719567    11.00000    0.04599    0.11466 =
         0.05837    0.00191    0.02299   -0.00756
AFIX  43
H19   2    0.411262    0.421144    0.745816    11.00000   -1.20000
AFIX   0
C16   1    0.263693    0.285128    0.640516    11.00000    0.07131    0.06489 =
         0.04438    0.00350    0.01379    0.01485
AFIX  43
H16   2    0.226860    0.250472    0.613940    11.00000   -1.20000
AFIX   0
C17   1    0.335254    0.285213    0.623617    11.00000    0.07820    0.12312 =
         0.04918    0.00581    0.02549    0.04571
AFIX  43
H17   2    0.346132    0.250447    0.585489    11.00000   -1.20000
AFIX   0
C18   1    0.388374    0.335868    0.662801    11.00000    0.05251    0.15793 =
         0.05604   -0.00127    0.02031    0.01518
AFIX  43
H18   2    0.435458    0.335840    0.650802    11.00000   -1.20000
AFIX   0
C21   1    0.291110    0.441651    0.805877    11.00000    0.03916    0.05577 =
         0.04914    0.00581    0.01143   -0.01291
C22   1    0.304437    0.509193    0.791236    11.00000    0.05116    0.07033 =
         0.06774    0.01252    0.01537   -0.02024
AFIX  43
H22   2    0.320109    0.521393    0.736560    11.00000   -1.20000
AFIX   0
C26   1    0.267621    0.424273    0.888545    11.00000    0.04067    0.04928 =
         0.04744    0.00593    0.01126   -0.00459
C25   1    0.260206    0.474317    0.953850    11.00000    0.05047    0.06100 =
         0.05764   -0.00418    0.01409   -0.00537
AFIX  43
H25   2    0.246257    0.462665    1.010215    11.00000   -1.20000
AFIX   0
C23   1    0.294968    0.558082    0.855616    11.00000    0.06815    0.05543 =
         0.08928    0.00302    0.01353   -0.01752
AFIX  43
H23   2    0.303496    0.603147    0.843777    11.00000   -1.20000
AFIX   0
C24   1    0.272961    0.541233    0.937673    11.00000    0.06023    0.06035 =
         0.07901   -0.01421    0.01014   -0.00723
AFIX  43
H24   2    0.266744    0.574532    0.981748    11.00000   -1.20000
AFIX   0
C27   1    0.251350    0.351295    0.904402    11.00000    0.04849    0.05447 =
         0.04727    0.00829    0.01790   -0.00094
AFIX  23
H27A  2    0.248090    0.346213    0.972942    11.00000   -1.20000
H27B  2    0.295438    0.323870    0.903727    11.00000   -1.20000
AFIX   0
HKLF 4

REM  1 in C2/c
REM R1 =  0.0554 for    2331 Fo > 4sig(Fo)  and  0.1219 for all    4480 data
REM    292 parameters refined using      0 restraints

END

WGHT      0.0744      0.0000

REM Highest difference peak  0.266,  deepest hole -0.250,  1-sigma level  0.079
Q1    1   0.0000  0.3706  0.7500  10.50000  0.05    0.27
Q2    1   0.0377  0.2293  0.9730  11.00000  0.05    0.25
Q3    1  -0.0263  0.0893  0.9786  11.00000  0.05    0.25
Q4    1   0.0317  0.4627  0.4463  11.00000  0.05    0.24
Q5    1   0.0025  0.4470  0.6000  11.00000  0.05    0.23
Q6    1   0.0137  0.1346  1.0469  11.00000  0.05    0.23
Q7    1   0.4765  0.3614  0.6811  11.00000  0.05    0.22
Q8    1  -0.0741  0.1742  0.8601  11.00000  0.05    0.22
Q9    1  -0.0349  0.7094  0.6529  11.00000  0.05    0.22
Q10   1  -0.0042  0.0292  0.8236  11.00000  0.05    0.22
Q11   1  -0.0073  0.1511  1.0011  11.00000  0.05    0.22
Q12   1   0.0000  0.5429  0.7500  10.50000  0.05    0.21
Q13   1  -0.0009  0.1340  1.0977  11.00000  0.05    0.21
Q14   1   0.0080  0.6899  0.5493  11.00000  0.05    0.21
Q15   1   0.0276  0.0684  1.0584  11.00000  0.05    0.20
Q16   1  -0.0103  0.0491  0.9506  11.00000  0.05    0.20
Q17   1   0.0000  0.5000  0.5000  10.50000  0.05    0.20
Q18   1   0.5000  0.3092  0.7500  10.50000  0.05    0.20
Q19   1   0.0342  0.2438  0.7943  11.00000  0.05    0.20
Q20   1   0.4682  0.2892  0.6542  11.00000  0.05    0.20
;
_shelx_res_checksum              88220
_shelx_hkl_file
;
   0   0   1   -0.11    0.02
   0   0   2   86.34    2.44
   0   0   3   -0.21    0.07
   0   0   3    0.19    0.12
   0   0   4  255.90    7.20
   0   0   4  258.79    7.16
   0   0   5   -0.03    0.14
   0   0   5   -0.04    0.09
   0   0   6   14.46    0.61
   0   0   6   13.84    0.75
   0   0   7    0.19    0.18
   0   0   7   -0.08    0.10
   0   0   8    6.41    0.68
   0   0   8    6.16    0.41
   0   0   9   -0.29    0.18
   0   0  10    0.47    0.30
   0   0  11   -0.01    0.28
   0   0  12   12.45    1.19
   0   0  13   -0.21    0.29
   0   0  14   -0.38    0.31
   0   0  15    0.10    0.40
   0   0  16    0.08    0.44
   0  -2  -1  125.06    3.45
   0  -2   1  123.13    3.51
   0  -2   2    6.94    0.33
   0  -2   2    6.23    0.33
   0   2   2    6.47    0.23
   0  -2   3   19.00    0.75
   0  -2   3   19.97    0.75
   0   2   3   19.73    0.78
   0   2   3   20.09    0.60
   0  -2   4   78.01    2.38
   0  -2   4   79.14    2.43
   0   2   4   78.99    2.44
   0   2   4   78.45    2.23
   0  -2   5   -0.01    0.13
   0  -2   5    0.00    0.13
   0   2   5    0.10    0.16
   0   2   5    0.19    0.07
   0  -2   6   27.40    1.14
   0  -2   6   27.25    1.03
   0   2   6   26.24    0.88
   0   2   6   25.94    1.14
   0  -2   7    6.43    0.45
   0  -2   7    6.95    0.65
   0   2   7    7.49    0.70
   0   2   7    7.41    0.36
   0  -2   8    4.99    0.61
   0  -2   8    4.77    0.48
   0   2   8    4.92    0.60
   0  -2   9    1.10    0.36
   0  -2   9    1.44    0.29
   0   2   9    0.54    0.32
   0  -2  10    0.91    0.38
   0   2  10    0.35    0.32
   0  -2  11   14.25    1.03
   0   2  11   12.87    1.17
   0  -2  12    2.32    0.56
   0   2  12    1.99    0.54
   0  -2  13    0.01    0.30
   0   2  13   -0.26    0.32
   0  -2  14    0.38    0.41
   0   2  14    0.10    0.36
   0  -2  15    0.47    0.45
   0   2  15    0.54    0.48
   0  -2  16    0.21    0.47
   0   2  16    0.11    0.45
   0  -4   0  180.26    5.12
   0   4   0  181.45    5.00
   0  -4   1  104.98    3.05
   0  -4  -1  102.34    2.98
   0   4   1  102.85    2.95
   0  -4   2    8.96    0.49
   0  -4  -2    9.14    0.40
   0   4   2    9.22    0.46
   0  -4   3    8.47    0.50
   0  -4  -3    8.01    0.34
   0   4   3    7.48    0.46
   0  -4   4   26.80    1.05
   0  -4   4   27.23    1.07
   0   4   4   28.34    1.08
   0  -4   5    4.13    0.43
   0  -4   5    4.32    0.43
   0   4   5    4.05    0.21
   0   4   5    4.76    0.47
   0  -4   6    0.61    0.23
   0  -4   6    0.46    0.22
   0   4   6    0.86    0.12
   0   4   6    1.16    0.29
   0  -4   7    4.33    0.52
   0  -4   7    3.84    0.45
   0   4   7    3.77    0.22
   0   4   7    4.19    0.53
   0  -4   8   15.49    0.93
   0  -4   8   17.17    0.87
   0   4   8   18.39    1.00
   0  -4   9    0.28    0.23
   0  -4   9    0.10    0.25
   0   4   9    0.00    0.24
   0  -4  10    3.60    0.61
   0  -4  10    3.36    0.49
   0   4  10    3.55    0.60
   0  -4  11    0.19    0.32
   0   4  11    0.17    0.32
   0  -4  12   -0.11    0.29
   0   4  12    0.37    0.32
   0  -4  13    0.12    0.35
   0   4  13   -0.16    0.32
   0  -4  14    0.59    0.46
   0   4  14    0.55    0.45
   0  -4  15   -0.01    0.40
   0   4  15    0.19    0.43
   0  -4  16   -0.33    0.42
   0   4  16   -0.18    0.41
   0  -6   0  124.70    3.67
   0   6   0  123.09    3.56
   0  -6   1   15.33    0.71
   0   6   1   14.24    0.62
   0  -6   2    2.60    0.36
   0  -6  -2    2.58    0.28
   0   6   2    1.37    0.20
   0   6   2    2.56    0.30
   0  -6   3    0.16    0.19
   0  -6  -3    0.87    0.18
   0   6   3    0.16    0.07
   0   6   3    0.28    0.18
   0  -6   4    5.93    0.55
   0  -6  -4    4.58    0.30
   0   6   4    5.33    0.50
   0  -6  -5   14.99    0.56
   0  -6   5   14.21    0.75
   0  -6   5   14.05    0.77
   0   6   5   13.82    0.76
   0  -6   6    2.45    0.38
   0  -6  -6    2.36    0.21
   0  -6   6    2.18    0.38
   0   6   6    2.56    0.43
   0  -6   7    4.15    0.54
   0  -6   7    4.92    0.57
   0   6   7    5.09    0.60
   0  -6   8    1.85    0.39
   0  -6   8    2.19    0.42
   0   6   8    1.89    0.42
   0  -6   9    0.37    0.26
   0  -6   9    0.55    0.29
   0   6   9    0.55    0.31
   0  -6  10    0.51    0.36
   0  -6  10    1.12    0.35
   0   6  10    0.64    0.37
   0  -6  11    0.03    0.28
   0   6  11    0.32    0.33
   0  -6  12    1.60    0.50
   0   6  12    1.09    0.45
   0  -6  13   -0.16    0.31
   0   6  13    0.45    0.40
   0  -6  14    0.33    0.43
   0   6  14    0.18    0.34
   0  -6  15   -0.24    0.36
   0   6  15    0.24    0.43
   0  -6  16   -0.37    0.35
   0   6  16    0.20    0.43
   0  -8   0    0.98    0.26
   0   8   0    1.13    0.22
   0  -8   1   37.59    1.41
   0   8   1   34.57    1.28
   0  -8  -2    4.79    0.44
   0  -8   2    4.41    0.50
   0   8   2    4.04    0.38
   0   8   2    4.14    0.43
   0  -8   3    0.53    0.26
   0  -8  -3    0.82    0.22
   0   8   3    0.80    0.24
   0   8   3    0.90    0.20
   0  -8  -4    0.60    0.20
   0  -8   4    0.29    0.25
   0   8   4    0.29    0.20
   0   8   4    0.21    0.12
   0  -8   5    4.77    0.58
   0  -8  -5    6.14    0.38
   0   8   5    5.99    0.59
   0  -8   6    0.62    0.29
   0  -8   6    0.51    0.23
   0   8   6    0.18    0.13
   0   8   6   -0.04    0.22
   0  -8   7    7.89    0.62
   0  -8   7    8.53    0.80
   0   8   7    7.46    0.77
   0  -8   8    3.74    0.57
   0  -8   8    4.02    0.59
   0   8   8    3.64    0.60
   0  -8   9    0.37    0.28
   0  -8   9    0.13    0.25
   0   8   9    0.32    0.30
   0  -8  10    0.20    0.31
   0  -8  10   -0.12    0.24
   0   8  10   -0.24    0.23
   0  -8  11    3.55    0.57
   0  -8  11    2.23    0.56
   0   8  11    2.75    0.59
   0  -8  12    0.16    0.32
   0   8  12    0.24    0.34
   0  -8  13    0.06    0.36
   0   8  13    0.37    0.41
   0  -8  14   -0.13    0.33
   0   8  14    0.18    0.39
   0  -8  15   -0.46    0.35
   0   8  15    0.20    0.42
   0 -10   0  149.44    4.57
   0  10   0  148.62    4.41
   0 -10  -1    0.09    0.21
   0 -10   1   -0.10    0.20
   0  10   1   -0.14    0.08
   0  10   1    0.24    0.17
   0 -10   2    6.04    0.65
   0 -10  -2    5.20    0.52
   0  10   2    5.01    0.52
   0  10   2    5.15    0.48
   0 -10  -3   12.09    0.68
   0 -10   3   11.48    0.79
   0  10   3   12.57    0.73
   0  10   3   12.62    0.71
   0 -10  -4   19.99    0.88
   0 -10   4   20.61    1.10
   0  10   4   21.17    1.04
   0  10   4   19.58    0.96
   0 -10   5    1.83    0.43
   0 -10  -5    2.30    0.33
   0  10   5    2.14    0.41
   0  10   5    2.35    0.37
   0 -10   6    0.59    0.35
   0  10   6    0.47    0.29
   0  10   6    0.41    0.18
   0 -10   7    5.93    0.73
   0 -10   7    5.94    0.68
   0  10   7    5.25    0.68
   0 -10   8    0.97    0.35
   0 -10   8    0.68    0.38
   0  10   8    0.33    0.33
   0  10   8    0.03    0.14
   0 -10   9    6.65    0.81
   0 -10   9    6.55    0.79
   0  10   9    5.13    0.74
   0  10   9    4.41    0.62
   0 -10  10    1.45    0.47
   0 -10  10    1.80    0.46
   0  10  10    1.32    0.46
   0 -10  11   -0.02    0.25
   0 -10  11    0.30    0.36
   0  10  11    0.31    0.39
   0 -10  12    0.11    0.33
   0 -10  12    0.20    0.31
   0  10  12    0.25    0.39
   0 -10  13    1.03    0.52
   0  10  13    1.52    0.59
   0 -10  14    0.20    0.43
   0  10  14    0.13    0.39
   0 -10  15    0.02    0.45
   0  10  15    0.13    0.47
   0 -12   0    1.32    0.37
   0  12   0    1.04    0.28
   0  12   0    0.14    0.31
   0 -12   1    2.57    0.48
   0 -12  -1    1.93    0.42
   0  12   1    1.87    0.37
   0 -12  -2    0.46    0.18
   0 -12   2    1.62    0.42
   0  12   2    1.99    0.35
   0  12   2    1.14    0.31
   0 -12  -3    2.32    0.41
   0 -12   3    3.22    0.55
   0  12   3    2.73    0.43
   0  12   3    2.22    0.39
   0 -12  -4    6.22    0.59
   0 -12   4    6.04    0.73
   0  12   4    5.61    0.64
   0  12   4    5.06    0.56
   0 -12   5    6.58    0.82
   0  12   5    7.92    0.81
   0  12   5    6.35    0.64
   0 -12   6    5.24    0.75
   0  12   6    3.65    0.51
   0  12   6    5.12    0.68
   0 -12   7    1.94    0.44
   0 -12   7    2.28    0.54
   0  12   7    2.14    0.51
   0  12   7    1.53    0.38
   0 -12   8    3.78    0.66
   0 -12   8    4.58    0.68
   0  12   8    5.13    0.75
   0  12   8    4.46    0.57
   0 -12   9    0.20    0.29
   0 -12   9    0.31    0.35
   0  12   9   -0.21    0.29
   0  12   9   -0.09    0.11
   0 -12  10    0.35    0.33
   0 -12  10    0.16    0.32
   0  12  10   -0.01    0.15
   0  12  10   -0.34    0.29
   0 -12  11    2.69    0.58
   0 -12  11    3.27    0.64
   0  12  11    3.74    0.71
   0 -12  12    0.28    0.33
   0 -12  12    0.12    0.37
   0  12  12    2.22    0.68
   0 -12  13    0.14    0.39
   0  12  13    0.25    0.44
   0 -12  14    0.45    0.49
   0  12  14    0.37    0.47
   0 -14   0    4.45    0.62
   0  14   0    3.57    0.51
   0  14   0    2.67    0.56
   0 -14   1    2.54    0.54
   0 -14  -1    3.24    0.54
   0  14   1    3.01    0.47
   0 -14   2    3.72    0.63
   0  14   2    3.43    0.52
   0  14   2    2.52    0.46
   0 -14  -3    0.10    0.27
   0 -14   3    0.31    0.31
   0  14   3   -0.37    0.25
   0  14   3   -0.03    0.21
   0 -14  -4    7.90    0.73
   0 -14   4    6.87    0.84
   0  14   4    6.76    0.68
   0  14   4    6.30    0.74
   0 -14   5    5.42    0.78
   0  14   5    5.82    0.64
   0  14   5    5.93    0.74
   0 -14   6    1.94    0.57
   0  14   6    1.84    0.51
   0  14   6    2.05    0.43
   0 -14   7    3.82    0.67
   0  14   7    3.71    0.57
   0  14   7    4.60    0.71
   0 -14   8    4.75    0.75
   0 -14   8    4.87    0.72
   0  14   8    4.56    0.75
   0 -14   9    1.52    0.47
   0 -14   9    1.43    0.52
   0  14   9    1.02    0.42
   0 -14  10    0.95    0.44
   0 -14  10    1.61    0.51
   0  14  10    0.96    0.44
   0 -14  11    0.28    0.33
   0 -14  11    0.07    0.35
   0  14  11    0.63    0.43
   0 -14  12    1.65    0.55
   0 -14  12    0.63    0.40
   0  14  12    1.32    0.55
   0 -14  13   -0.09    0.39
   0  14  13    0.57    0.52
   0 -14  14   -0.17    0.43
   0  14  14   -0.06    0.40
   0 -16   0   -0.06    0.30
   0  16   0    0.31    0.45
   0 -16   1    1.09    0.46
   0 -16  -1    2.54    0.54
   0  16   1    1.48    0.41
   0 -16  -2   -0.09    0.31
   0 -16   2    0.37    0.40
   0  16   2    0.28    0.31
   0  16   2    0.02    0.39
   0 -16   3   11.98    0.96
   0 -16  -3   11.36    0.85
   0  16   3   10.95    0.86
   0  16   3   12.68    0.89
   0 -16   4    0.72    0.43
   0  16   4    0.40    0.36
   0  16   4    0.10    0.28
   0 -16   5    0.10    0.34
   0  16   5    0.00    0.31
   0  16   5    0.33    0.32
   0 -16   6    1.28    0.48
   0  16   6    1.12    0.43
   0 -16   7    0.46    0.39
   0  16   7    0.22    0.35
   0 -16   8    0.99    0.45
   0 -16   8    0.23    0.32
   0  16   8    0.67    0.44
   0 -16   9    0.36    0.39
   0 -16   9    0.80    0.43
   0  16   9    0.70    0.44
   0 -16  10    1.33    0.50
   0 -16  10    1.11    0.48
   0  16  10    0.68    0.49
   0 -16  11    0.64    0.40
   0 -16  11    0.69    0.46
   0  16  11    0.25    0.42
   0 -16  12    0.37    0.44
   0 -16  12    0.16    0.31
   0  16  12    0.06    0.38
   0 -16  13    0.13    0.44
   0  16  13    0.32    0.50
   0 -18   0    5.97    0.82
   0 -18   1    0.52    0.41
   0 -18  -1    0.50    0.38
   0  18   1   -0.28    0.23
   0  18   1   -0.16    0.25
   0 -18   2    4.55    0.75
   0 -18  -2    3.56    0.64
   0  18   2    3.40    0.59
   0  18   2    3.62    0.67
   0 -18  -3    0.28    0.32
   0 -18   3    0.53    0.39
   0  18   3   -0.09    0.26
   0 -18   4    0.74    0.44
   0  18   4    1.25    0.43
   0 -18   5    0.39    0.41
   0  18   5    0.50    0.35
   0 -18   6    1.01    0.48
   0  18   6    1.54    0.51
   0 -18   7   -0.52    0.22
   0  18   7   -0.20    0.31
   0 -18   8    0.59    0.44
   0  18   8    1.05    0.50
   0 -18   9    0.44    0.40
   0 -18   9    1.47    0.53
   0  18   9    0.47    0.43
   0 -18  10    0.62    0.39
   0 -18  10    0.20    0.40
   0  18  10    0.16    0.44
   0  18  11   -0.43    0.36
   0  18  12    0.69    0.53
   0 -20   0   -0.03    0.34
   0 -20  -1    0.08    0.38
   0 -20   1    0.09    0.31
   0 -20   2    0.10    0.37
   0 -20  -2   -0.27    0.30
   0  20   2   -0.33    0.25
   0 -20   3    1.26    0.50
   0  20   3    2.01    0.52
   0 -20   4    0.14    0.40
   0  20   4    0.37    0.36
   0 -20   5    0.86    0.47
   0  20   5    1.61    0.49
   0 -20   6    0.08    0.35
   0  20   6    0.18    0.36
   0 -20   7    0.85    0.47
   0  20   7    0.68    0.44
   0 -20   8    0.66    0.47
   0  20   8    0.27    0.41
   0  20   9    0.01    0.38
   0  20  10   -0.22    0.39
   0 -22   0    0.03    0.38
   0 -22   1    0.11    0.39
   0 -22  -1    0.94    0.48
   0 -22   2    0.53    0.42
   0 -22   3    0.05    0.36
   0  22   3   -0.14    0.28
   0 -22   4    2.04    0.61
   0  22   4    3.07    0.66
   0 -22   5    1.86    0.61
   0  22   5    0.50    0.43
   0 -22   6    1.29    0.58
   0  22   6    1.18    0.55
   0  22   7    0.66    0.45
   0  22   8    0.82    0.52
   0 -24   0    0.28    0.44
   0 -24   1    0.36    0.43
   0 -24   2    0.55    0.48
   0 -24   3    1.12    0.50
   1  -1  16    0.12    0.48
   1   1  16    0.12    0.42
   1  -1  15    0.65    0.47
   1   1  15    0.08    0.41
   1  -1  14   -0.40    0.33
   1   1  14    0.11    0.39
   1  -1  13   -0.06    0.31
   1   1  13    0.25    0.36
   1  -1  12    2.95    0.62
   1   1  12    2.42    0.56
   1  -1  11    0.62    0.36
   1   1  11    0.76    0.39
   1  -1  10    4.26    0.66
   1   1  10    3.07    0.57
   1  -1   9   14.90    0.96
   1   1   9   13.81    0.93
   1  -1   8    2.99    0.48
   1  -1   8    3.24    0.38
   1   1   8    3.39    0.52
   1  -1   7   -0.17    0.15
   1  -1   7   -0.12    0.14
   1   1   7   -0.01    0.10
   1   1   7   -0.08    0.17
   1  -1   6    4.40    0.49
   1  -1   6    4.80    0.39
   1   1   6    3.98    0.26
   1   1   6    3.64    0.46
   1  -1   5    6.30    0.46
   1  -1   5    6.36    0.37
   1   1   5    5.66    0.44
   1   1   5    6.31    0.30
   1  -1   4   13.98    0.58
   1  -1   4   12.97    0.64
   1   1   4   13.98    0.67
   1   1   4   14.36    0.49
   1  -1   3   72.78    2.17
   1  -1   3   75.07    2.24
   1   1   3   71.90    2.06
   1   1   3   73.84    2.23
   1  -1   2    6.87    0.32
   1  -1   2    7.06    0.35
   1   1   2    6.77    0.35
   1   1   2    6.67    0.23
   1  -1   1   83.26    2.39
  -1  -1   1   57.20    1.74
  -1   1   1   63.22    1.72
  -1  -1   2   28.57    0.90
  -1   1   2   28.56    0.91
  -1   1   2   27.58    0.86
  -1  -1   3   62.04    1.82
  -1  -1   3   59.95    1.82
  -1   1   3   60.09    1.84
  -1   1   3   58.56    1.76
  -1  -1   4   13.59    0.61
  -1  -1   4   13.33    0.57
  -1   1   4   13.23    0.51
  -1   1   4   13.99    0.63
  -1  -1   5   17.91    0.78
  -1  -1   5   16.93    0.69
  -1   1   5   16.34    0.77
  -1   1   5   16.23    0.63
  -1  -1   6    0.72    0.23
  -1  -1   6    0.42    0.15
  -1   1   6    0.52    0.21
  -1   1   6    0.63    0.14
  -1  -1   7    0.54    0.24
  -1   1   7    0.52    0.23
  -1   1   7    0.39    0.14
  -1  -1   8    4.08    0.41
  -1  -1   8    4.31    0.53
  -1   1   8    3.28    0.34
  -1   1   8    3.23    0.49
  -1  -1   9    4.16    0.44
  -1  -1   9    4.11    0.58
  -1   1   9    3.33    0.53
  -1  -1  10    6.70    0.76
  -1   1  10    7.17    0.80
  -1  -1  11    9.15    0.95
  -1   1  11   10.19    1.00
  -1  -1  12    7.40    0.90
  -1   1  12    6.51    0.86
  -1  -1  13    1.00    0.46
  -1   1  13    0.13    0.36
  -1  -1  14    0.67    0.41
  -1   1  14    0.03    0.37
  -1  -1  15   -0.19    0.39
  -1   1  15    0.41    0.44
  -1  -1  16    0.10    0.44
  -1   1  16    0.71    0.52
   1  -3  16   -0.03    0.44
   1   3  16   -0.33    0.35
   1  -3  15    0.13    0.40
   1   3  15    0.62    0.47
   1  -3  14   -0.29    0.35
   1   3  14   -0.28    0.29
   1  -3  13    0.88    0.47
   1   3  13    0.91    0.43
   1  -3  12    0.16    0.31
   1   3  12    0.08    0.33
   1  -3  11    0.06    0.28
   1   3  11    0.73    0.37
   1  -3  10    1.77    0.47
   1   3  10    1.63    0.44
   1  -3   9    0.31    0.22
   1  -3   9    0.03    0.22
   1   3   9    0.26    0.28
   1  -3   8    3.80    0.54
   1  -3   8    3.70    0.44
   1   3   8    4.04    0.57
   1  -3   7    3.75    0.44
   1  -3   7    4.56    0.55
   1   3   7    5.47    0.60
   1  -3   6    0.56    0.23
   1  -3   6    0.48    0.21
   1   3   6    0.57    0.24
   1  -3   5    0.23    0.18
   1  -3   5    0.17    0.16
   1   3   5    0.28    0.18
   1  -3   4    8.10    0.50
   1  -3   4    7.94    0.48
   1  -3   3   49.09    1.60
   1   3   3   48.74    1.60
  -1  -3  -2  150.73    4.14
   1  -3   2  149.89    4.33
   1   3   2  150.18    4.23
   1  -3   1    2.52    0.25
  -1  -3  -1    2.25    0.15
   1   3   1    2.18    0.20
   1   3   1    2.47    0.21
   1  -3   0    1.54    0.19
   1   3   0    1.62    0.16
  -1   3   0    1.20    0.15
  -1  -3   1   13.29    0.52
  -1   3   1   12.67    0.50
   1   3  -1   13.38    0.54
  -1  -3   2  174.51    4.98
  -1   3   2  175.96    4.89
  -1   3   2  175.09    4.89
  -1  -3   3   56.32    1.80
  -1   3   3   57.56    1.68
  -1   3   3   56.86    1.79
  -1  -3   4   69.47    2.14
  -1  -3   4   68.54    2.16
  -1   3   4   70.22    2.01
  -1   3   4   66.56    2.16
  -1  -3   5   23.03    0.94
  -1  -3   5   22.46    0.92
  -1   3   5   22.76    0.97
  -1   3   5   22.26    0.76
  -1  -3   6    3.90    0.44
  -1  -3   6    3.88    0.41
  -1   3   6    3.76    0.24
  -1   3   6    3.51    0.44
  -1  -3   7    8.04    0.54
  -1  -3   7    7.71    0.58
  -1   3   7    8.27    0.40
  -1   3   7    8.41    0.61
  -1  -3   8    9.74    0.69
  -1  -3   8   10.89    0.64
  -1   3   8    9.46    0.46
  -1   3   8   10.18    0.72
  -1  -3   9    0.20    0.25
  -1  -3   9    0.04    0.17
  -1   3   9   -0.14    0.20
  -1  -3  10   13.43    0.92
  -1  -3  10   13.80    0.78
  -1   3  10   11.34    0.87
  -1  -3  11    3.37    0.60
  -1   3  11    3.64    0.63
  -1  -3  12    0.75    0.40
  -1   3  12    1.76    0.51
  -1  -3  13    0.38    0.39
  -1   3  13    0.11    0.32
  -1  -3  14    0.68    0.42
  -1   3  14    1.50    0.53
  -1  -3  15    0.59    0.44
  -1   3  15    0.21    0.41
  -1  -3  16    0.30    0.46
  -1   3  16    0.14    0.46
   1  -5  16    1.02    0.54
   1   5  16    0.69    0.50
   1  -5  15    0.51    0.46
   1   5  15    0.23    0.39
   1  -5  14    0.12    0.33
   1   5  14   -0.16    0.34
   1  -5  13    1.38    0.48
   1   5  13    2.13    0.56
   1  -5  12    0.02    0.34
   1   5  12    0.81    0.40
   1  -5  11    1.08    0.43
   1   5  11    2.33    0.56
   1  -5  10   -0.14    0.21
   1  -5  10   -0.02    0.25
   1   5  10   -0.04    0.28
   1  -5   9    4.94    0.58
   1  -5   9    4.49    0.62
   1   5   9    4.07    0.61
   1  -5   8    6.92    0.72
   1  -5   8    7.17    0.68
   1   5   8    6.18    0.71
   1  -5   7    3.05    0.49
   1  -5   7    4.21    0.50
   1   5   7    3.36    0.50
   1  -5   6    3.41    0.45
   1  -5   6    2.96    0.41
   1   5   6    5.15    0.55
   1  -5   5   31.33    1.29
   1  -5   5   32.19    1.27
   1   5   5   32.62    1.30
  -1  -5  -4    9.24    0.33
   1  -5   4    9.39    0.59
   1   5   4    9.13    0.56
   1  -5   3    6.49    0.49
  -1  -5  -3    6.09    0.30
   1   5   3    6.61    0.43
   1   5   3    8.05    0.48
  -1  -5  -2   19.50    0.69
   1  -5   2   20.48    0.85
   1   5   2   19.58    0.79
   1   5   2   18.14    0.75
   1  -5   1   35.77    1.26
  -1  -5  -1   35.86    1.16
   1   5   1   35.26    1.21
   1   5   1   34.73    1.16
   1  -5   0    6.69    0.44
   1   5   0    6.84    0.34
   1   5   0    6.66    0.42
  -1   5   0    6.52    0.38
  -1   5   0    6.88    0.42
  -1  -5   1    7.46    0.47
   1  -5  -1    6.13    0.43
  -1   5   1   10.30    0.43
  -1   5   1    8.65    0.44
   1   5  -1    9.24    0.54
  -1  -5   2    2.38    0.31
   1  -5  -2    3.01    0.29
  -1   5   2    2.50    0.23
  -1   5   2    2.62    0.30
  -1  -5   3   23.89    0.98
   1  -5  -3   24.99    0.87
  -1   5   3   25.30    0.89
  -1   5   3   23.03    0.94
  -1  -5   4   10.87    0.60
  -1  -5   4   11.32    0.56
  -1   5   4   10.73    0.47
  -1   5   4    9.79    0.58
  -1  -5   5   21.56    0.96
  -1  -5   5   22.19    0.93
  -1   5   5   21.86    0.76
  -1  -5   6    6.61    0.51
  -1  -5   6    7.10    0.53
  -1   5   6    7.82    0.36
  -1   5   6    7.05    0.56
  -1  -5   7    1.38    0.32
  -1  -5   7    1.56    0.33
  -1   5   7    1.67    0.20
  -1   5   7    1.39    0.33
  -1  -5   8    1.09    0.33
  -1  -5   8    1.21    0.32
  -1   5   8    0.59    0.30
  -1  -5   9   -0.03    0.21
  -1  -5   9    0.27    0.25
  -1   5   9    0.58    0.29
  -1  -5  10    1.73    0.39
  -1  -5  10    1.14    0.40
  -1   5  10    1.38    0.42
  -1  -5  11    4.90    0.61
  -1  -5  11    5.01    0.71
  -1   5  11    5.27    0.77
  -1  -5  12    0.01    0.32
  -1   5  12    0.16    0.33
  -1  -5  13    0.41    0.38
  -1   5  13   -0.11    0.30
  -1  -5  14    0.49    0.41
  -1   5  14    0.57    0.41
  -1  -5  15    0.09    0.37
  -1   5  15   -0.26    0.39
  -1  -5  16   -0.11    0.43
  -1   5  16   -0.06    0.45
   1  -7  15   -0.15    0.40
   1   7  15    0.71    0.46
   1  -7  14    0.38    0.42
   1   7  14    0.27    0.41
   1  -7  13    0.08    0.36
   1   7  13    0.01    0.33
   1  -7  12    3.09    0.65
   1   7  12    2.42    0.58
   1  -7  11    0.64    0.40
   1   7  11    1.21    0.45
   1  -7  10    0.37    0.29
   1  -7  10    0.26    0.33
   1   7  10    0.58    0.36
   1  -7   9    0.52    0.31
   1  -7   9   -0.08    0.24
   1   7   9    0.38    0.32
   1  -7   8    4.59    0.63
   1  -7   8    7.73    0.75
   1   7   8    5.38    0.68
   1  -7   7    0.15    0.27
   1  -7   7    0.43    0.25
   1   7   7    0.09    0.22
   1  -7   6    0.11    0.22
   1  -7   6    0.02    0.19
   1   7   6    0.02    0.19
   1  -7   5   16.23    0.88
  -1  -7  -5   14.20    0.54
   1   7   5   15.06    0.82
   1   7   5   16.03    0.85
  -1  -7  -4    0.07    0.13
   1  -7   4    0.20    0.24
   1   7   4    0.09    0.16
   1   7   4    0.35    0.19
   1  -7   3    8.63    0.61
  -1  -7  -3    8.15    0.42
   1   7   3    8.39    0.52
   1   7   3    7.97    0.52
   1  -7   2    3.56    0.44
  -1  -7  -2    3.54    0.34
   1   7   2    3.96    0.39
   1   7   2    3.12    0.34
  -1  -7  -1    8.61    0.48
   1  -7   1    8.49    0.57
   1   7   1    7.68    0.46
   1   7   1    7.73    0.49
  -1  -7   0   36.64    1.31
   1  -7   0   36.47    1.34
   1   7   0   36.00    1.22
  -1   7   0   35.89    1.30
   1   7   0   36.08    1.31
  -1   7   0   35.99    1.27
   1  -7  -1    0.22    0.18
  -1  -7   1    0.13    0.19
   1   7  -1    0.19    0.23
  -1   7   1    0.56    0.19
  -1   7   1    0.43    0.16
   1  -7  -2   15.24    0.73
  -1  -7   2   18.15    0.83
  -1   7   2   17.28    0.77
  -1   7   2   18.68    0.73
   1  -7  -3   10.57    0.55
  -1  -7   3   10.82    0.65
  -1   7   3   10.61    0.53
  -1   7   3    9.78    0.60
  -1  -7   4   19.74    0.94
   1  -7  -4   18.70    0.78
  -1   7   4   20.39    0.83
  -1   7   4   18.81    0.91
  -1  -7   5    3.09    0.39
  -1  -7   5    2.65    0.42
   1  -7  -5    3.03    0.31
  -1   7   5    2.62    0.41
  -1   7   5    2.25    0.32
   1  -7  -6    3.55    0.32
  -1  -7   6    2.88    0.44
  -1  -7   6    3.30    0.43
  -1   7   6    3.32    0.48
  -1  -7   7    2.25    0.39
  -1  -7   7    1.94    0.39
  -1   7   7    2.85    0.48
  -1  -7   8    1.78    0.39
  -1  -7   8    2.32    0.45
  -1   7   8    2.27    0.44
  -1  -7   9    3.03    0.51
  -1  -7   9    2.14    0.46
  -1   7   9    1.81    0.48
  -1  -7  10    2.04    0.48
  -1  -7  10    2.25    0.45
  -1   7  10    1.81    0.47
  -1  -7  11    0.23    0.31
  -1  -7  11    0.03    0.24
  -1   7  11   -0.06    0.28
  -1  -7  12    0.04    0.31
  -1   7  12    0.50    0.37
  -1  -7  13    0.32    0.37
  -1   7  13    0.01    0.33
  -1  -7  14    1.11    0.52
  -1   7  14    0.24    0.41
  -1  -7  15   -0.07    0.37
  -1   7  15    1.21    0.52
  -1  -7  16   -0.27    0.42
  -1   7  16    0.22    0.42
   1  -9  15   -0.32    0.39
   1   9  15    0.06    0.45
   1  -9  14   -0.01    0.40
   1   9  14   -0.51    0.33
   1  -9  13    1.24    0.54
   1   9  13    1.64    0.56
   1  -9  12   -0.16    0.31
   1   9  12   -0.03    0.35
   1  -9  11    0.71    0.41
   1  -9  11    0.96    0.38
   1   9  11    0.27    0.36
   1  -9  10   -0.08    0.25
   1  -9  10    0.06    0.28
   1   9  10    0.11    0.33
   1  -9   9   11.34    0.89
   1  -9   9   11.23    0.87
   1   9   9   12.84    1.15
   1  -9   8    1.20    0.39
   1  -9   8    1.07    0.37
   1   9   8    1.29    0.41
   1  -9   7    4.47    0.63
   1  -9   7    4.57    0.63
   1   9   7    5.92    0.71
   1   9   7    4.32    0.56
   1  -9   6    0.02    0.29
   1   9   6    0.20    0.22
   1   9   6    0.83    0.32
   1  -9   5   10.11    0.75
  -1  -9  -5   10.68    0.50
   1   9   5   10.67    0.69
   1   9   5   10.11    0.71
  -1  -9  -4    0.00    0.15
   1  -9   4    0.00    0.22
   1   9   4    0.07    0.20
   1   9   4    0.14    0.17
  -1  -9  -3   13.74    0.66
   1  -9   3   14.90    0.85
   1   9   3   12.45    0.73
   1   9   3   15.00    0.77
   1  -9   2    0.89    0.30
  -1  -9  -2    1.05    0.25
   1   9   2    0.87    0.24
   1   9   2    0.74    0.22
   1  -9   1  105.78    3.39
   1   9   1  105.32    3.31
   1   9   1  106.47    3.20
   1  -9   0   27.48    1.17
  -1  -9   0   26.09    1.13
  -1   9   0   27.82    1.15
   1   9   0   26.89    1.06
   1   9   0   27.43    1.15
  -1   9   0   29.18    1.12
   1  -9  -1   40.62    1.53
  -1  -9   1   40.61    1.55
   1   9  -1   39.83    1.57
  -1   9   1   40.73    1.47
  -1   9   1   41.07    1.49
  -1  -9   2   59.83    2.11
  -1   9   2   59.26    1.97
  -1   9   2   59.12    2.02
   1  -9  -3   34.71    1.35
  -1  -9   3   35.39    1.48
  -1   9   3   38.03    1.44
  -1   9   3   37.49    1.35
   1  -9  -4    1.28    0.28
  -1  -9   4    0.94    0.30
  -1   9   4    1.02    0.30
  -1   9   4    0.94    0.23
  -1  -9   5    8.15    0.64
   1  -9  -5    7.33    0.50
  -1   9   5    8.33    0.74
  -1   9   5    7.35    0.53
  -1  -9   6   12.26    0.75
  -1  -9   6   11.15    0.79
   1  -9  -6   13.29    0.64
  -1   9   6   12.78    0.74
  -1   9   6   12.42    0.81
  -1  -9   7    1.47    0.42
  -1  -9   7    1.97    0.40
  -1   9   7    1.29    0.37
  -1   9   7    1.33    0.33
  -1  -9   8    0.22    0.23
  -1  -9   8    0.50    0.32
  -1   9   8   -0.13    0.25
  -1  -9   9    0.10    0.26
  -1  -9   9   -0.10    0.25
  -1   9   9    0.59    0.38
  -1  -9  10    0.96    0.37
  -1  -9  10    0.04    0.24
  -1   9  10    0.83    0.39
  -1  -9  11    3.93    0.69
  -1  -9  11    3.28    0.58
  -1   9  11    1.87    0.56
  -1  -9  12    0.20    0.27
  -1  -9  12   -0.22    0.27
  -1   9  12    0.48    0.41
  -1  -9  13    0.37    0.38
  -1   9  13    0.66    0.48
  -1  -9  14   -0.18    0.36
  -1   9  14   -0.04    0.40
  -1  -9  15    0.42    0.50
  -1   9  15   -0.12    0.45
   1 -11  14    0.05    0.43
   1  11  14    0.23    0.47
   1 -11  13   -0.50    0.31
   1  11  13   -0.27    0.39
   1 -11  12    0.96    0.50
   1  11  12    1.02    0.44
   1  11  12    1.17    0.51
   1 -11  11   -0.14    0.25
   1 -11  11   -0.11    0.31
   1  11  11   -0.08    0.24
   1  11  11    0.09    0.33
   1 -11  10    1.24    0.43
   1 -11  10    0.65    0.38
   1  11  10    0.48    0.40
   1  11  10    0.83    0.33
   1 -11   9    0.20    0.31
   1 -11   9    0.14    0.31
   1  11   9    0.66    0.31
   1  11   9    1.21    0.44
   1 -11   8    3.28    0.59
   1 -11   8    2.27    0.52
   1  11   8    1.78    0.42
   1  11   8    2.03    0.51
   1 -11   7    0.11    0.27
   1 -11   7    0.41    0.36
   1  11   7   -0.07    0.21
   1  11   7   -0.07    0.25
   1 -11   6    3.47    0.59
   1  11   6    2.06    0.48
   1  11   6    2.72    0.45
   1 -11   5    0.92    0.39
   1  11   5    1.33    0.37
   1  11   5    0.88    0.29
   1 -11   4    1.29    0.41
  -1 -11  -4    1.76    0.32
   1  11   4    0.66    0.26
   1  11   4    1.68    0.38
  -1 -11  -3    8.36    0.56
   1 -11   3    7.84    0.81
   1  11   3    8.76    0.63
  -1 -11  -2    3.90    0.47
   1 -11   2    3.18    0.54
   1  11   2    3.54    0.46
   1  11   2    2.89    0.43
   1 -11   1    0.39    0.32
  -1 -11  -1   -0.10    0.14
   1  11   1    0.44    0.24
   1  11   1    0.59    0.23
   1 -11   0    0.58    0.29
  -1 -11   0    0.36    0.24
   1  11   0    0.32    0.20
  -1  11   0    0.18    0.18
   1  11   0    0.13    0.27
  -1  11   0    0.52    0.24
   1 -11  -1    2.91    0.45
  -1 -11   1    3.84    0.53
  -1  11   1    3.55    0.46
   1  11  -1    2.92    0.49
  -1  11   1    3.38    0.45
  -1 -11   2    8.45    0.77
  -1  11   2    8.16    0.59
  -1  11   2    7.51    0.56
   1 -11  -3    1.00    0.31
  -1 -11   3    0.56    0.32
  -1  11   3    0.60    0.27
  -1  11   3    0.87    0.27
  -1 -11   4    0.25    0.29
   1 -11  -4    0.02    0.23
  -1  11   4    0.25    0.23
  -1  11   4    0.28    0.20
   1 -11  -5    3.16    0.42
  -1 -11   5    3.17    0.54
  -1  11   5    3.52    0.53
  -1  11   5    3.03    0.42
  -1 -11   6    9.58    0.92
  -1  11   6    8.36    0.64
  -1  11   6    8.29    0.85
  -1 -11   7    0.32    0.26
  -1 -11   7    0.66    0.36
  -1  11   7    0.06    0.22
  -1  11   7    0.73    0.34
  -1 -11   8    1.10    0.44
  -1 -11   8    1.30    0.38
  -1  11   8    0.49    0.27
  -1  11   8    1.14    0.45
  -1 -11   9    3.62    0.60
  -1 -11   9    2.30    0.52
  -1  11   9    2.33    0.43
  -1  11   9    4.80    0.75
  -1 -11  10    4.70    0.72
  -1 -11  10    3.70    0.65
  -1  11  10    3.83    0.70
  -1  11  10    3.93    0.57
  -1 -11  11    0.48    0.36
  -1 -11  11    0.18    0.27
  -1  11  11    0.40    0.39
  -1 -11  12    0.25    0.37
  -1 -11  12    0.01    0.26
  -1  11  12   -0.06    0.32
  -1 -11  13    0.33    0.40
  -1  11  13    0.15    0.39
  -1 -11  14    0.86    0.51
  -1  11  14    0.16    0.45
  -1 -11  15    0.60    0.53
  -1  11  15    0.45    0.50
   1 -13  14    1.00    0.55
   1  13  14   -0.27    0.44
   1 -13  13   -0.56    0.36
   1  13  13   -0.31    0.38
   1 -13  12    0.41    0.36
   1 -13  12    0.41    0.42
   1  13  12    0.64    0.45
   1 -13  11    0.17    0.31
   1 -13  11   -0.21    0.33
   1  13  11    0.11    0.39
   1 -13  10    0.16    0.36
   1 -13  10    0.49    0.37
   1  13  10    0.14    0.36
   1  13  10   -0.42    0.22
   1 -13   9    0.78    0.40
   1 -13   9    0.31    0.34
   1  13   9    0.30    0.30
   1  13   9   -0.33    0.30
   1 -13   8    2.98    0.63
   1 -13   8    1.76    0.51
   1  13   8    1.06    0.37
   1  13   8    3.54    0.66
   1 -13   7    0.20    0.34
   1  13   7    0.21    0.22
   1  13   7    0.10    0.31
   1 -13   6    1.68    0.50
   1  13   6    1.54    0.44
   1 -13   5   22.40    1.31
   1  13   5   23.69    1.24
   1 -13   4    0.43    0.36
  -1 -13  -4    0.59    0.28
   1  13   4    0.90    0.34
   1  13   4   -0.13    0.14
  -1 -13  -3    3.77    0.51
   1 -13   3    3.23    0.59
   1  13   3    2.50    0.46
  -1 -13  -2   -0.09    0.25
   1 -13   2   -0.14    0.28
   1  13   2   -0.10    0.20
   1  13   2    0.49    0.29
   1 -13   1    8.56    0.86
  -1 -13  -1    7.78    0.76
   1  13   1    9.13    0.80
   1  13   1    8.16    0.61
   1 -13   0    7.63    0.78
  -1 -13   0    7.34    0.74
   1  13   0    6.27    0.70
  -1  13   0    6.46    0.66
   1  13   0    6.52    0.63
   1 -13  -1    1.03    0.36
  -1 -13   1    0.67    0.31
   1  13  -1    0.68    0.40
  -1  13   1    0.38    0.35
  -1  13   1    0.93    0.30
  -1 -13   2    0.22    0.31
   1 -13  -2    0.54    0.32
  -1  13   2    0.52    0.32
  -1  13   2    0.43    0.27
   1 -13  -3   26.72    1.23
  -1 -13   3   25.49    1.33
  -1  13   3   27.05    1.27
  -1  13   3   24.48    1.18
   1 -13  -4    3.32    0.50
  -1 -13   4    2.83    0.55
  -1  13   4    2.37    0.42
  -1  13   4    1.62    0.41
  -1 -13   5    0.02    0.29
   1 -13  -5   -0.05    0.23
  -1  13   5   -0.24    0.26
  -1  13   5    0.10    0.23
  -1 -13   6    1.64    0.48
  -1  13   6    1.78    0.40
  -1  13   6    2.30    0.50
  -1 -13   7   45.75    2.04
  -1  13   7   45.16    1.84
  -1  13   7   42.73    1.96
  -1 -13   8    0.35    0.31
  -1 -13   8    0.35    0.36
  -1  13   8    0.28    0.35
  -1 -13   9    0.71    0.38
  -1 -13   9    1.58    0.46
  -1  13   9    0.75    0.44
  -1 -13  10    0.68    0.39
  -1 -13  10    0.46    0.33
  -1  13  10    0.16    0.38
  -1 -13  11    2.29    0.56
  -1 -13  11    1.63    0.50
  -1  13  11    0.68    0.47
  -1 -13  12    0.37    0.34
  -1 -13  12    0.11    0.36
  -1  13  12   -0.33    0.35
  -1 -13  13    0.36    0.34
  -1 -13  13    0.43    0.44
  -1  13  13   -0.27    0.37
  -1 -13  14    0.90    0.54
  -1  13  14    0.23    0.46
   1 -15  13    0.05    0.44
   1  15  13    0.53    0.54
   1 -15  12    1.28    0.47
   1 -15  12   -0.08    0.38
   1  15  12    0.44    0.50
   1 -15  11    0.97    0.46
   1 -15  11    0.27    0.40
   1  15  11    0.65    0.44
   1 -15  10    0.22    0.39
   1 -15  10   -0.01    0.33
   1  15  10    0.36    0.41
   1 -15   9    0.43    0.38
   1 -15   9    0.31    0.39
   1  15   9    0.21    0.36
   1 -15   8    0.27    0.32
   1 -15   8   -0.27    0.30
   1  15   8   -0.10    0.16
   1  15   8    0.02    0.36
   1 -15   7    0.18    0.39
   1  15   7   -0.22    0.15
   1  15   7    0.25    0.35
   1 -15   6   -0.05    0.30
   1  15   6   -0.30    0.29
   1  15   6   -0.13    0.13
   1 -15   5   14.31    1.06
   1  15   5   11.28    1.06
   1 -15   4    7.13    0.89
   1  15   4    7.97    0.84
   1 -15   3    3.78    0.67
  -1 -15  -3    2.46    0.48
   1  15   3    2.65    0.50
  -1 -15  -2    0.33    0.26
   1 -15   2    1.02    0.43
   1  15   2    0.45    0.30
   1  15   2    0.49    0.35
  -1 -15  -1    0.98    0.39
   1 -15   1    1.36    0.47
   1  15   1    0.93    0.44
   1  15   1    1.55    0.37
   1 -15   0    0.52    0.36
  -1 -15   0    0.18    0.33
   1  15   0    0.41    0.25
   1  15   0    0.00    0.39
  -1 -15   1    0.40    0.34
   1 -15  -1    0.04    0.34
  -1  15   1    0.12    0.25
  -1  15   1    0.28    0.40
   1  15  -1   -0.32    0.41
  -1 -15   2   -0.34    0.24
   1 -15  -2   -0.07    0.30
  -1  15   2    0.42    0.30
  -1  15   2   -0.49    0.32
   1 -15  -3    0.00    0.17
  -1 -15   3    0.28    0.34
  -1  15   3    0.32    0.32
  -1  15   3    0.32    0.29
   1 -15  -4    4.65    0.62
  -1 -15   4    3.53    0.65
  -1  15   4    3.89    0.56
  -1  15   4    4.63    0.66
  -1 -15   5    3.02    0.60
  -1  15   5    2.05    0.51
  -1  15   5    3.06    0.50
  -1 -15   6    0.45    0.35
  -1  15   6    0.13    0.32
  -1 -15   7    0.14    0.36
  -1  15   7    0.69    0.43
  -1 -15   8    0.04    0.32
  -1 -15   8    0.23    0.34
  -1  15   8    0.08    0.32
  -1 -15   9    1.03    0.44
  -1 -15   9    1.00    0.40
  -1  15   9    0.45    0.43
  -1 -15  10    0.19    0.34
  -1 -15  10    0.96    0.44
  -1  15  10    0.26    0.40
  -1 -15  11    0.26    0.40
  -1 -15  11   -0.04    0.31
  -1  15  11    0.29    0.42
  -1 -15  12    0.51    0.41
  -1 -15  12    1.04    0.41
  -1  15  12    0.46    0.44
  -1 -15  13   -0.36    0.24
  -1 -15  13   -0.43    0.34
  -1  15  13   -0.03    0.37
   1 -17  12   -0.23    0.37
   1  17  12    0.35    0.50
   1 -17  11    0.68    0.41
   1 -17  11    1.47    0.54
   1  17  11    0.34    0.50
   1 -17  10    0.15    0.39
   1 -17  10    0.49    0.39
   1  17  10   -0.21    0.38
   1 -17   9    0.55    0.42
   1 -17   9    0.48    0.42
   1  17   9   -0.17    0.33
   1 -17   8    0.33    0.37
   1  17   8   -0.07    0.35
   1 -17   7    0.25    0.39
   1  17   7    0.28    0.37
   1 -17   6   -0.47    0.24
   1  17   6    0.86    0.43
   1 -17   5    0.31    0.40
   1  17   5    1.07    0.42
   1  17   5   -0.11    0.25
   1 -17   4    0.08    0.38
   1  17   4    0.29    0.30
   1  17   4   -0.08    0.19
   1 -17   3    0.04    0.34
  -1 -17  -3    0.25    0.31
   1  17   3   -0.21    0.16
   1  17   3    0.01    0.25
  -1 -17  -2    0.21    0.14
   1 -17   2   -0.16    0.33
   1  17   2   -0.63    0.25
   1  17   2    0.37    0.31
   1 -17   1    0.53    0.38
  -1 -17  -1    0.75    0.39
   1  17   1    0.48    0.31
   1  17   1   -0.14    0.41
  -1 -17   0    1.90    0.51
   1 -17   0    1.44    0.49
   1  17   0    2.29    0.66
   1 -17  -1    1.61    0.47
  -1 -17   1    1.61    0.50
  -1  17   1    1.48    0.53
  -1  17   1    1.03    0.37
   1 -17  -2   -0.18    0.31
  -1 -17   2    0.02    0.35
  -1  17   2   -0.31    0.22
  -1  17   2   -0.31    0.41
  -1 -17   3    1.19    0.50
   1 -17  -3   -0.01    0.15
  -1  17   3    0.54    0.35
  -1 -17   4    1.82    0.53
  -1  17   4    1.96    0.49
  -1 -17   5    0.50    0.39
  -1  17   5    0.81    0.40
  -1 -17   6   -0.21    0.34
  -1  17   6    0.44    0.39
  -1 -17   7    3.13    0.67
  -1  17   7    3.05    0.63
  -1 -17   8    0.75    0.38
  -1 -17   8    1.08    0.47
  -1  17   8    0.93    0.48
  -1 -17   9    0.01    0.32
  -1 -17   9    0.78    0.45
  -1  17   9    0.09    0.38
  -1 -17  10    0.17    0.34
  -1 -17  10    0.07    0.32
  -1  17  10    0.16    0.36
  -1 -17  11    0.12    0.34
  -1  17  11    0.81    0.50
  -1  17  12   -0.37    0.40
   1 -19  11    0.01    0.41
   1  19  11    0.19    0.48
   1 -19  10    0.16    0.41
   1  19  10   -0.09    0.41
   1 -19   9    0.48    0.44
   1 -19   9    0.41    0.47
   1  19   9    0.46    0.47
   1 -19   8    0.71    0.45
   1  19   8    0.95    0.48
   1 -19   7    0.40    0.40
   1  19   7   -0.19    0.31
   1 -19   6    0.94    0.47
   1  19   6    1.16    0.47
   1 -19   5    1.21    0.50
   1  19   5   -0.06    0.32
   1 -19   4    1.55    0.55
   1  19   4    1.34    0.46
   1 -19   3    0.27    0.40
   1  19   3   -0.08    0.22
   1  19   3    0.37    0.34
   1 -19   2    0.07    0.35
  -1 -19  -2    0.10    0.16
   1  19   2    0.20    0.30
   1  19   2   -0.22    0.21
  -1 -19  -1    0.27    0.31
   1 -19   1   -0.11    0.35
   1  19   1    0.28    0.28
   1  19   1   -0.11    0.43
  -1 -19   0    0.46    0.38
   1 -19   0   -0.10    0.34
   1  19   0    0.02    0.46
  -1 -19   1    0.04    0.35
   1 -19  -1    0.17    0.33
   1 -19  -2    0.95    0.42
  -1 -19   2   -0.43    0.26
  -1  19   2    0.93    0.38
  -1 -19   3   -0.03    0.34
   1 -19  -3   -0.02    0.20
  -1  19   3   -0.02    0.28
  -1 -19   4    0.42    0.37
  -1  19   4    1.30    0.46
  -1 -19   5    0.00    0.35
  -1  19   5    0.39    0.35
  -1 -19   6    1.80    0.57
  -1  19   6    1.30    0.49
  -1 -19   7    0.80    0.46
  -1  19   7    0.39    0.40
  -1 -19   8    0.54    0.41
  -1  19   8   -0.09    0.37
  -1 -19   9    0.30    0.40
  -1  19   9    0.36    0.44
  -1 -19  10    0.32    0.39
  -1  19  10   -0.22    0.34
  -1  19  11   -0.31    0.38
   1  21   9    0.42    0.47
   1  21   8   -0.05    0.40
   1 -21   7    0.04    0.34
   1  21   7    0.61    0.43
   1 -21   6    0.09    0.41
   1  21   6    0.80    0.43
   1 -21   5    1.61    0.55
   1  21   5    0.91    0.44
   1 -21   4    1.21    0.54
   1  21   4    1.25    0.49
   1 -21   3   -0.11    0.36
   1 -21   2    0.49    0.46
   1 -21   1    0.13    0.38
  -1 -21  -1    0.69    0.40
  -1 -21   0    0.91    0.46
   1 -21   0    0.42    0.42
  -1 -21   1   -0.18    0.32
   1 -21  -1    0.63    0.41
   1 -21  -2    0.18    0.35
  -1 -21   2    0.46    0.39
  -1  21   2   -0.01    0.30
  -1 -21   3    0.33    0.38
  -1  21   3    0.61    0.40
  -1 -21   4    0.46    0.38
  -1  21   4    0.54    0.41
  -1 -21   5    1.10    0.49
  -1  21   5    0.82    0.43
  -1 -21   6    0.98    0.44
  -1  21   6    0.65    0.46
  -1 -21   7    1.25    0.53
  -1  21   7    0.49    0.41
  -1  21   8    0.34    0.41
  -1  21   9   -0.03    0.43
  -1  21  10    1.06    0.58
   1 -23   4    2.65    0.73
   1 -23   3    0.01    0.41
   1 -23   2    1.19    0.54
   1 -23   1    0.45    0.44
  -1 -23   0    0.40    0.43
   1 -23   0    1.95    0.59
  -1 -23   1    0.15    0.36
   1 -23  -1    0.06    0.41
  -1 -23   2    0.17    0.40
  -1 -23   3    1.80    0.56
  -1  23   3    0.95    0.47
  -1 -23   4    0.33    0.41
  -1  23   4    0.69    0.43
  -1 -23   5    0.76    0.49
  -1  23   5    0.20    0.40
  -1  23   6   -0.06    0.38
  -1  23   7    1.67    0.61
   1 -25   1    0.44    0.47
   1 -25   0    1.33    0.55
  -1 -25   1    0.73    0.46
  -1 -25   2    0.06    0.37
   2   0  16   -0.03    0.45
   2   0  15   -0.07    0.40
   2   0  14    2.64    0.66
   2   0  13   -0.33    0.31
   2   0  12    1.43    0.51
   2   0  11    0.06    0.27
   2   0  10   21.36    1.25
   2   0   9   -0.38    0.19
   2   0   8   19.02    1.07
   2   0   7   -0.04    0.19
   2   0   7   -0.01    0.13
   2   0   6    2.89    0.29
   2   0   6    2.72    0.41
   2   0   5   -0.11    0.11
   2   0   5    0.06    0.15
   2   0   4  106.01    3.19
   2   0   4  103.59    3.02
   2   0   3    0.25    0.12
   2   0   3   -0.12    0.10
   2   0   2    2.38    0.21
   2   0   2    2.11    0.24
   2   0   1   -0.09    0.05
  -2   0  -1    0.08    0.05
  -2   0   0   -0.01    0.01
  -2   0   1   -0.10    0.05
  -2   0   2  185.76    5.20
  -2   0   3   -0.20    0.07
  -2   0   3   -0.21    0.09
  -2   0   4   14.19    0.63
  -2   0   4   14.48    0.58
  -2   0   5   -0.03    0.09
  -2   0   5    0.00    0.12
  -2   0   6    3.17    0.31
  -2   0   6    2.11    0.33
  -2   0   7    0.22    0.18
  -2   0   7   -0.01    0.10
  -2   0   8    0.13    0.13
  -2   0   8    0.19    0.21
  -2   0   9    0.17    0.15
  -2   0   9    0.08    0.25
  -2   0  10   13.78    0.94
  -2   0  11   -0.04    0.27
  -2   0  12    2.79    0.61
  -2   0  13   -0.17    0.31
  -2   0  14    2.69    0.66
  -2   0  15    0.05    0.38
  -2   0  16   -0.40    0.38
  -2   0  17    0.56    0.52
   2  -2  15   -0.29    0.36
   2   2  15   -0.37    0.32
   2  -2  14    0.11    0.38
   2   2  14    0.08    0.36
   2  -2  13    1.84    0.55
   2   2  13    2.63    0.60
   2  -2  12    0.49    0.38
   2   2  12    0.49    0.38
   2  -2  11    0.26    0.34
   2   2  11    0.03    0.28
   2  -2  10    0.98    0.41
   2   2  10    0.19    0.32
   2  -2   9   20.34    1.17
   2   2   9   19.64    1.15
   2  -2   8    1.33    0.28
   2  -2   8    0.62    0.31
   2   2   8    0.69    0.29
   2  -2   7   10.58    0.58
   2  -2   7   10.06    0.71
   2   2   7    9.46    0.68
   2  -2   6    0.36    0.19
   2  -2   6    0.26    0.19
   2  -2   5   33.73    1.18
   2  -2   5   30.37    1.27
   2   2   5   32.31    0.96
   2   2   5   32.26    1.28
   2  -2   4    4.82    0.36
   2  -2   4    4.70    0.45
   2   2   4    4.48    0.18
   2   2   4    4.93    0.39
   2  -2   3    4.22    0.39
   2  -2   3    3.36    0.33
   2   2   3    3.68    0.37
  -2  -2  -2  249.34    6.90
   2  -2   2  255.30    7.09
   2   2   2  252.49    6.96
   2  -2   1   12.63    0.51
  -2  -2  -1   12.50    0.42
  -2  -2   0    4.34    0.22
   2   2   0    4.71    0.26
  -2   2   0    5.08    0.26
  -2  -2   1  264.53    7.28
   2   2  -1  260.61    7.29
  -2   2   1  262.82    7.15
  -2   2   1  261.21    7.28
  -2  -2   2   83.58    2.44
  -2   2   2   82.80    2.40
  -2   2   2   81.64    2.39
  -2  -2   3    1.17    0.20
  -2  -2   3    1.27    0.16
  -2   2   3    1.93    0.25
  -2   2   3    1.72    0.18
  -2  -2   4   41.85    1.39
  -2   2   4   41.68    1.40
  -2   2   4   40.91    1.31
  -2  -2   5    0.55    0.17
  -2  -2   5    0.61    0.18
  -2   2   5    0.67    0.14
  -2   2   5    0.53    0.18
  -2  -2   6    1.17    0.26
  -2  -2   6    1.67    0.26
  -2   2   6    1.18    0.19
  -2   2   6    1.28    0.28
  -2  -2   7    1.96    0.30
  -2  -2   7    2.61    0.39
  -2   2   7    2.41    0.27
  -2   2   7    2.19    0.37
  -2  -2   8    5.39    0.51
  -2  -2   8    5.38    0.59
  -2   2   8    6.15    0.65
  -2   2   8    5.46    0.37
  -2  -2   9    0.16    0.23
  -2  -2   9   -0.06    0.15
  -2   2   9    0.35    0.26
  -2   2   9    0.09    0.13
  -2  -2  10    1.23    0.38
  -2  -2  10    1.36    0.30
  -2   2  10    1.31    0.41
  -2  -2  11    0.67    0.35
  -2   2  11    0.99    0.43
  -2  -2  12    0.83    0.39
  -2   2  12    0.22    0.30
  -2  -2  13    1.85    0.53
  -2   2  13    0.93    0.41
  -2  -2  14    0.47    0.40
  -2   2  14    0.00    0.34
  -2  -2  15   -0.21    0.36
  -2   2  15    0.16    0.42
  -2  -2  16   -0.20    0.39
  -2   2  16    0.36    0.42
  -2  -2  17   -0.01    0.42
  -2   2  17   -0.06    0.45
   2  -4  15    0.49    0.45
   2   4  15   -0.11    0.31
   2  -4  14    0.20    0.39
   2   4  14    0.51    0.43
   2  -4  13    1.26    0.52
   2   4  13    0.73    0.44
   2  -4  12    1.63    0.52
   2   4  12    1.92    0.53
   2  -4  11    0.50    0.37
   2   4  11    0.39    0.33
   2  -4  10    8.02    0.90
   2   4  10    8.26    0.92
   2  -4   9    1.61    0.41
   2  -4   9    1.80    0.38
   2   4   9    1.81    0.45
   2  -4   8    0.23    0.24
   2  -4   8    0.13    0.21
   2   4   8    0.10    0.22
   2  -4   7    1.76    0.36
   2  -4   7    2.33    0.43
   2   4   7    2.45    0.43
   2  -4   6   48.39    1.85
   2  -4   6   48.96    1.74
   2   4   6   49.54    1.84
   2  -4   5    2.27    0.36
   2  -4   5    3.18    0.40
   2   4   5    3.07    0.41
   2  -4   4   49.57    1.71
   2  -4   4   47.30    1.67
   2   4   4   49.37    1.70
   2  -4   3    6.45    0.47
   2   4   3    6.65    0.43
  -2  -4  -2    0.63    0.11
   2  -4   2    0.82    0.24
   2   4   2    1.01    0.20
   2   4   2    0.77    0.19
   2  -4   1    1.58    0.28
  -2  -4  -1    1.24    0.17
   2   4   1    1.17    0.19
   2   4   1    1.53    0.20
   2  -4   0   53.82    1.76
   2   4   0   57.14    1.76
   2  -4  -1   23.22    0.86
  -2  -4   1   23.46    0.85
   2   4  -1   23.45    0.87
  -2   4   1   22.35    0.83
  -2  -4   2   57.23    1.79
  -2   4   2   54.32    1.74
  -2   4   2   55.63    1.73
   2   4  -2   55.84    1.84
  -2  -4   3   18.67    0.71
  -2  -4   3   19.83    0.81
  -2   4   3   19.58    0.73
  -2   4   3   19.73    0.80
  -2  -4   4    5.24    0.39
  -2   4   4    5.23    0.41
  -2   4   4    5.12    0.31
  -2  -4   5    1.38    0.26
  -2  -4   5    0.75    0.19
  -2   4   5    1.03    0.24
  -2   4   5    1.23    0.18
  -2  -4   6   28.34    1.15
  -2  -4   6   30.39    1.20
  -2   4   6   28.67    1.22
  -2   4   6   28.50    1.00
  -2  -4   7    0.10    0.15
  -2  -4   7    0.32    0.20
  -2   4   7    0.08    0.19
  -2   4   7    0.07    0.12
  -2  -4   8    4.71    0.53
  -2  -4   8    5.62    0.60
  -2   4   8    3.60    0.52
  -2   4   8    5.22    0.34
  -2  -4   9    0.59    0.26
  -2  -4   9    0.57    0.28
  -2   4   9    1.09    0.36
  -2  -4  10    1.27    0.39
  -2  -4  10    1.07    0.31
  -2   4  10    0.88    0.36
  -2  -4  11    3.22    0.58
  -2  -4  11    4.41    0.55
  -2   4  11    3.22    0.61
  -2  -4  12   -0.17    0.25
  -2   4  12    0.23    0.35
  -2  -4  13    0.24    0.34
  -2   4  13    0.40    0.37
  -2  -4  14    0.16    0.38
  -2   4  14    0.58    0.43
  -2  -4  15    0.46    0.40
  -2   4  15    0.24    0.42
  -2  -4  16   -0.08    0.39
  -2   4  16   -0.42    0.30
  -2  -4  17    0.05    0.48
  -2   4  17   -0.21    0.48
   2  -6  15    0.35    0.45
   2   6  15    0.01    0.40
   2  -6  14   -0.32    0.36
   2   6  14    0.23    0.41
   2  -6  13    0.95    0.50
   2   6  13    1.53    0.55
   2  -6  12    0.08    0.30
   2   6  12   -0.02    0.31
   2  -6  11    0.02    0.32
   2   6  11    0.47    0.35
   2  -6  10    7.62    0.89
   2   6  10    7.76    0.89
   2  -6   9    2.78    0.49
   2  -6   9    2.68    0.52
   2   6   9    2.68    0.54
   2  -6   8    6.82    0.69
   2  -6   8    6.00    0.74
   2   6   8    6.88    0.74
   2  -6   7    6.78    0.71
   2  -6   7    6.02    0.64
   2   6   7    6.34    0.68
   2  -6   6    1.34    0.35
   2  -6   6    0.94    0.30
   2   6   6    0.90    0.29
   2  -6   5   19.43    0.97
   2  -6   5   20.51    0.98
   2   6   5   20.62    0.98
  -2  -6  -4    9.98    0.36
   2  -6   4   10.63    0.67
   2   6   4    9.94    0.61
  -2  -6  -3    0.84    0.14
   2  -6   3    1.09    0.27
   2   6   3    0.90    0.22
   2   6   3    0.95    0.24
  -2  -6  -2    3.42    0.26
   2  -6   2    2.70    0.38
   2   6   2    3.96    0.36
   2   6   2    3.14    0.35
   2  -6   1   55.20    1.88
  -2  -6  -1   54.64    1.72
   2   6   1   54.11    1.71
   2   6   1   56.24    1.84
   2  -6   0   13.89    0.72
  -2   6   0   14.74    0.67
   2   6   0   14.62    0.58
   2   6   0   15.96    0.70
  -2  -6   1   20.29    0.83
   2  -6  -1   19.81    0.85
  -2   6   1   20.35    0.76
   2   6  -1   20.49    0.88
  -2   6   1   18.73    0.80
   2   6  -1   19.08    0.71
  -2  -6   2   43.61    1.54
   2   6  -2   43.33    1.60
  -2   6   2   44.14    1.50
  -2   6   2   45.20    1.39
   2  -6  -3   28.17    1.06
  -2  -6   3   29.51    1.15
  -2   6   3   27.73    1.12
  -2   6   3   30.57    1.00
  -2  -6   4   22.25    1.00
  -2   6   4   23.03    0.86
  -2   6   4   23.29    0.99
  -2   6   4   22.59    0.87
  -2  -6   5    0.40    0.21
  -2   6   5    0.57    0.17
  -2   6   5    0.41    0.20
  -2  -6   6   18.84    0.88
  -2  -6   6   18.62    0.93
  -2   6   6   18.63    0.95
  -2   6   6   18.91    0.75
  -2  -6   7   -0.06    0.15
  -2  -6   7    0.21    0.20
  -2   6   7    0.26    0.15
  -2   6   7    0.10    0.21
  -2  -6   8    3.80    0.51
  -2  -6   8    4.38    0.54
  -2   6   8    3.15    0.51
  -2  -6   9    0.01    0.22
  -2  -6   9    0.00    0.19
  -2   6   9    0.37    0.26
  -2  -6  10    0.22    0.26
  -2  -6  10   -0.07    0.21
  -2   6  10   -0.49    0.22
  -2  -6  11    0.51    0.27
  -2  -6  11    0.07    0.30
  -2   6  11    0.70    0.38
  -2  -6  12    0.18    0.31
  -2   6  12    0.18    0.32
  -2  -6  13    0.69    0.42
  -2   6  13    0.59    0.42
  -2  -6  14    0.11    0.38
  -2   6  14   -0.03    0.38
  -2  -6  15   -0.14    0.40
  -2   6  15    0.22    0.45
  -2  -6  16    0.02    0.41
  -2   6  16    0.37    0.50
   2  -8  15   -0.01    0.43
   2   8  15    0.80    0.53
   2  -8  14   -0.05    0.39
   2   8  14   -0.04    0.36
   2  -8  13    1.54    0.55
   2   8  13    0.82    0.51
   2  -8  12    2.40    0.60
   2   8  12    2.10    0.59
   2  -8  11    2.23    0.58
   2   8  11    2.74    0.59
   2  -8  10   -0.04    0.27
   2  -8  10   -0.24    0.25
   2   8  10    0.29    0.34
   2  -8   9   23.52    1.24
   2  -8   9   24.29    1.36
   2   8   9   23.33    1.33
   2  -8   8    0.57    0.34
   2  -8   8    0.77    0.34
   2   8   8    0.68    0.36
   2  -8   7    0.33    0.31
   2  -8   7    0.36    0.27
   2   8   7    0.74    0.30
   2  -8   6    7.71    0.78
   2  -8   6    6.08    0.67
   2   8   6    6.87    0.69
   2   8   6    5.50    0.61
   2  -8   5   14.34    0.87
   2   8   5   14.01    0.83
   2   8   5   12.92    0.80
  -2  -8  -4   30.59    1.00
   2  -8   4   28.90    1.32
   2   8   4   29.44    1.22
   2   8   4   28.50    1.25
   2  -8   3    2.29    0.41
  -2  -8  -3    2.76    0.29
   2   8   3    2.99    0.38
   2   8   3    2.23    0.35
  -2  -8  -2    5.48    0.39
   2  -8   2    5.77    0.59
   2   8   2    5.81    0.43
   2   8   2    5.84    0.47
   2  -8   1   41.44    1.59
  -2  -8  -1   41.77    1.46
   2   8   1   42.70    1.43
   2   8   1   42.08    1.54
  -2  -8   0    3.50    0.40
   2  -8   0    4.08    0.47
  -2   8   0    3.86    0.41
   2   8   0    4.40    0.37
   2   8   0    3.50    0.40
   2  -8  -1   17.22    0.86
  -2  -8   1   17.01    0.82
   2   8  -1   18.46    0.73
   2   8  -1   17.72    0.89
  -2   8   1   18.54    0.80
  -2   8   1   17.08    0.81
  -2  -8   2   12.68    0.70
   2  -8  -2   12.91    0.71
  -2   8   2   13.39    0.61
   2   8  -2   13.00    0.81
  -2   8   2   12.15    0.67
  -2  -8   3    0.29    0.21
   2  -8  -3    0.87    0.25
  -2   8   3    0.50    0.16
  -2   8   3    0.12    0.18
   2  -8  -4    0.10    0.18
  -2  -8   4    0.00    0.17
  -2   8   4   -0.04    0.12
  -2   8   4   -0.08    0.18
   2  -8  -5    3.11    0.36
  -2  -8   5    2.87    0.46
  -2   8   5    2.49    0.40
  -2   8   5    2.77    0.32
  -2  -8   6    0.16    0.22
  -2  -8   6    0.13    0.15
   2  -8  -6    0.26    0.19
  -2   8   6    0.02    0.16
  -2   8   6    0.22    0.22
  -2  -8   7    5.99    0.67
   2  -8  -7    5.85    0.42
  -2  -8   7    6.57    0.63
  -2   8   7    6.07    0.68
  -2  -8   8    0.01    0.19
  -2  -8   8    0.08    0.25
  -2   8   8    0.02    0.26
  -2  -8   9    0.77    0.33
  -2  -8   9    0.65    0.28
  -2   8   9    0.83    0.37
  -2  -8  10    5.73    0.72
  -2  -8  10    5.90    0.74
  -2   8  10    6.26    0.82
  -2  -8  11    2.22    0.48
  -2  -8  11    0.74    0.36
  -2   8  11    1.36    0.45
  -2  -8  12   -0.01    0.32
  -2  -8  12   -0.10    0.22
  -2   8  12    0.32    0.34
  -2  -8  13   -0.35    0.32
  -2   8  13    0.35    0.41
  -2  -8  14    0.62    0.44
  -2   8  14    0.54    0.44
  -2  -8  15    0.16    0.40
  -2   8  15    0.13    0.43
  -2  -8  16   -0.23    0.40
  -2   8  16    0.84    0.52
   2 -10  14   -0.21    0.42
   2  10  14    0.14    0.46
   2 -10  13    0.39    0.46
   2  10  13    1.12    0.52
   2 -10  12    0.58    0.42
   2  10  12    1.34    0.53
   2 -10  11    1.40    0.47
   2 -10  11    1.23    0.43
   2  10  11    0.39    0.38
   2 -10  10    6.69    0.82
   2 -10  10    5.37    0.81
   2  10  10    5.28    0.73
   2  10  10    5.10    0.77
   2 -10   9    4.00    0.65
   2 -10   9    3.91    0.67
   2  10   9    3.58    0.66
   2  10   9    3.57    0.60
   2 -10   8    9.85    0.98
   2 -10   8    7.75    0.88
   2  10   8    8.54    0.86
   2  10   8    9.16    0.95
   2 -10   7    4.68    0.69
   2 -10   7    6.09    0.73
   2  10   7    5.29    0.69
   2  10   7    5.23    0.65
   2 -10   6    0.08    0.28
   2  10   6    0.01    0.23
   2  10   6    0.11    0.20
   2 -10   5    1.30    0.40
   2  10   5    1.69    0.37
   2  10   5    1.70    0.40
  -2 -10  -4    2.79    0.32
   2 -10   4    3.32    0.54
   2  10   4    1.69    0.37
   2  10   4    2.03    0.37
   2 -10   3   20.90    1.13
  -2 -10  -3   21.53    0.91
   2  10   3   22.99    1.09
   2  10   3   22.70    1.03
  -2 -10  -2    6.28    0.54
   2 -10   2    5.50    0.63
   2  10   2    5.54    0.53
   2  10   2    4.01    0.49
   2 -10   1   61.44    2.20
  -2 -10  -1   60.80    2.05
   2  10   1   59.80    1.99
   2  10   1   58.08    2.12
  -2 -10   0    3.14    0.42
   2 -10   0    3.49    0.50
   2  10   0    3.64    0.39
  -2  10   0    2.55    0.39
   2  10   0    3.40    0.45
  -2 -10   1    7.15    0.57
   2 -10  -1    6.40    0.65
   2  10  -1    6.91    0.65
  -2  10   1    7.42    0.61
  -2  10   1    7.02    0.51
   2 -10  -2    6.51    0.64
  -2 -10   2    6.58    0.65
   2  10  -2    5.94    0.65
  -2  10   2    7.12    0.54
  -2  10   2    7.32    0.53
  -2 -10   3   13.80    0.83
  -2  10   3   14.35    0.71
  -2  10   3   13.70    0.81
   2 -10  -4    2.57    0.41
  -2 -10   4    1.87    0.39
  -2  10   4    2.20    0.32
  -2  10   4    2.56    0.43
   2 -10  -5    3.52    0.45
  -2 -10   5    2.68    0.47
  -2  10   5    3.53    0.40
  -2  10   5    3.70    0.54
  -2 -10   6    0.10    0.25
   2 -10  -6    0.14    0.22
  -2  10   6    0.10    0.17
  -2  10   6   -0.03    0.25
  -2 -10   7    1.60    0.42
  -2 -10   7    1.89    0.40
  -2  10   7    2.35    0.47
  -2  10   7    1.34    0.30
  -2 -10   8    1.32    0.41
  -2 -10   8    2.05    0.43
  -2  10   8    1.54    0.35
  -2  10   8    1.98    0.49
  -2 -10   9    1.58    0.45
  -2 -10   9    0.62    0.33
  -2  10   9    1.45    0.37
  -2  10   9    1.34    0.46
  -2 -10  10    0.81    0.37
  -2 -10  10    1.56    0.45
  -2  10  10    0.59    0.37
  -2 -10  11    1.49    0.45
  -2 -10  11    1.32    0.45
  -2  10  11    1.82    0.50
  -2 -10  12    0.16    0.28
  -2 -10  12    0.54    0.38
  -2  10  12    1.05    0.46
  -2 -10  13    0.38    0.39
  -2  10  13    0.32    0.41
  -2 -10  14   -0.72    0.30
  -2  10  14    0.62    0.47
  -2 -10  15    0.13    0.44
  -2  10  15    1.06    0.55
   2 -12  14    0.38    0.49
   2  12  14    0.75    0.56
   2 -12  13   -0.29    0.37
   2  12  13    0.00    0.38
   2 -12  12    0.28    0.41
   2  12  12    0.56    0.38
   2  12  12    0.85    0.50
   2 -12  11    0.52    0.41
   2 -12  11    1.34    0.46
   2  12  11    1.09    0.42
   2  12  11    0.23    0.38
   2 -12  10    3.62    0.71
   2 -12  10    5.05    0.79
   2  12  10    2.86    0.56
   2  12  10    3.68    0.69
   2 -12   9   12.55    1.17
   2 -12   9    8.49    0.96
   2  12   9    8.56    0.90
   2  12   9   10.07    1.05
   2 -12   8    0.16    0.33
   2 -12   8    0.72    0.40
   2  12   8    0.08    0.32
   2  12   8    0.36    0.30
   2 -12   7    2.69    0.62
   2  12   7    3.29    0.61
   2  12   7    3.20    0.53
   2 -12   6    1.85    0.51
   2  12   6    2.93    0.54
   2  12   6    2.09    0.43
   2 -12   5    2.10    0.53
   2  12   5    3.15    0.53
   2  12   5    3.99    0.55
   2 -12   4    0.80    0.40
   2  12   4    0.70    0.33
   2  12   4    0.59    0.28
  -2 -12  -3    4.32    0.49
   2 -12   3    3.41    0.60
   2  12   3    4.40    0.54
   2  12   3    4.10    0.54
  -2 -12  -2    3.55    0.46
   2 -12   2    2.97    0.56
   2  12   2    3.98    0.50
   2  12   2    3.38    0.50
   2 -12   1    1.23    0.39
   2  12   1    1.33    0.37
   2  12   1    1.44    0.31
   2 -12   0    0.93    0.36
  -2 -12   0    1.10    0.34
   2  12   0    1.24    0.37
   2  12   0    1.28    0.28
  -2 -12   1   14.91    0.87
   2 -12  -1   12.33    0.84
  -2  12   1   12.05    0.80
  -2  12   1   12.79    0.79
   2  12  -1   14.00    0.93
   2 -12  -2    3.17    0.49
  -2 -12   2    3.23    0.53
   2  12  -2    3.71    0.60
  -2  12   2    3.06    0.47
  -2  12   2    2.77    0.44
  -2 -12   3    5.65    0.68
  -2  12   3    5.63    0.54
  -2  12   3    4.40    0.56
   2 -12  -4    0.82    0.33
  -2 -12   4    0.75    0.34
  -2  12   4    0.83    0.28
  -2  12   4    0.70    0.29
   2 -12  -5    1.84    0.41
  -2 -12   5    2.76    0.54
  -2  12   5    2.54    0.39
  -2  12   5    2.78    0.52
   2 -12  -6    8.64    0.65
  -2 -12   6    8.87    0.91
  -2  12   6    9.11    0.65
  -2  12   6    9.79    0.93
  -2 -12   7    1.58    0.45
  -2 -12   7    0.42    0.25
  -2  12   7    1.76    0.49
  -2  12   7    1.55    0.34
  -2 -12   8    0.67    0.37
  -2 -12   8    1.33    0.40
  -2  12   8    0.56    0.39
  -2 -12   9    0.59    0.36
  -2 -12   9    0.00    0.28
  -2  12   9    0.14    0.32
  -2 -12  10    3.87    0.66
  -2 -12  10    2.99    0.59
  -2  12  10    3.09    0.68
  -2 -12  11   -0.11    0.27
  -2 -12  11    0.31    0.31
  -2  12  11    0.11    0.37
  -2 -12  12    0.30    0.36
  -2 -12  12    0.24    0.28
  -2  12  12   -0.05    0.36
  -2 -12  13    0.35    0.38
  -2 -12  13    0.45    0.31
  -2  12  13   -0.33    0.33
  -2 -12  14    1.14    0.52
  -2  12  14    0.29    0.49
  -2 -12  15    0.40    0.49
  -2  12  15    0.34    0.49
   2 -14  13    0.50    0.49
   2  14  13    0.44    0.50
   2 -14  12    0.61    0.45
   2 -14  12    0.79    0.42
   2  14  12   -0.03    0.41
   2 -14  11    0.75    0.48
   2 -14  11    1.32    0.49
   2  14  11    0.55    0.42
   2 -14  10    0.46    0.37
   2 -14  10    0.22    0.36
   2  14  10   -0.07    0.28
   2  14  10   -0.16    0.30
   2 -14   9    1.98    0.54
   2 -14   9    1.54    0.50
   2  14   9    0.74    0.45
   2  14   9    1.43    0.44
   2 -14   8   -0.08    0.28
   2 -14   8    0.50    0.42
   2  14   8    0.18    0.26
   2  14   8    0.03    0.34
   2 -14   7    0.93    0.43
   2  14   7    0.58    0.37
   2  14   7    0.83    0.37
   2 -14   6    0.77    0.42
   2  14   6    0.91    0.43
   2  14   6    1.30    0.41
   2 -14   5    9.59    1.03
   2  14   5    9.43    0.88
   2  14   5    8.05    0.86
   2 -14   4    1.43    0.51
   2  14   4    1.96    0.45
   2  14   4    1.29    0.39
   2 -14   3    1.44    0.52
  -2 -14  -3    0.86    0.31
   2  14   3    0.67    0.31
   2  14   3    1.24    0.36
  -2 -14  -2    5.31    0.62
   2 -14   2    3.88    0.66
   2  14   2    3.85    0.58
   2  14   2    4.26    0.56
   2 -14   1    0.32    0.37
  -2 -14  -1   -0.04    0.13
   2  14   1    0.31    0.24
   2  14   1    0.70    0.35
   2 -14   0    1.37    0.45
  -2 -14   0    0.48    0.30
   2  14   0    1.60    0.35
   2  14   0    1.10    0.42
  -2 -14   1    0.16    0.29
   2 -14  -1    0.36    0.33
   2  14  -1    0.48    0.41
  -2  14   1    0.07    0.22
   2 -14  -2    4.01    0.62
  -2 -14   2    5.42    0.72
  -2  14   2    4.76    0.62
  -2  14   2    5.65    0.67
   2 -14  -3    3.08    0.55
  -2 -14   3    6.84    0.78
  -2  14   3    7.02    0.67
  -2  14   3    5.76    0.68
   2 -14  -4   -0.01    0.30
  -2 -14   4    0.04    0.28
  -2  14   4    0.28    0.28
  -2  14   4    0.01    0.23
  -2 -14   5    3.79    0.65
   2 -14  -5    5.38    0.63
  -2  14   5    2.96    0.57
  -2 -14   6    2.40    0.54
  -2  14   6    1.83    0.49
  -2 -14   7    1.16    0.47
  -2  14   7    2.65    0.61
  -2 -14   8    0.59    0.33
  -2 -14   8    1.49    0.50
  -2  14   8    1.20    0.50
  -2 -14   9    0.14    0.29
  -2 -14   9   -0.24    0.23
  -2  14   9   -0.56    0.29
  -2 -14  10    0.03    0.29
  -2 -14  10    0.19    0.31
  -2  14  10    0.17    0.32
  -2 -14  11    0.57    0.36
  -2 -14  11    0.75    0.40
  -2  14  11    0.73    0.45
  -2 -14  12    1.25    0.47
  -2 -14  12    1.60    0.53
  -2  14  12    0.93    0.54
  -2 -14  13   -0.05    0.36
  -2 -14  13   -0.10    0.29
  -2  14  13    0.05    0.37
  -2  14  14    0.46    0.46
   2 -16  12   -0.12    0.42
   2 -16  12   -0.15    0.32
   2  16  12    0.16    0.47
   2 -16  11    0.16    0.41
   2 -16  11    1.28    0.45
   2  16  11    0.50    0.46
   2 -16  10    0.17    0.35
   2 -16  10    0.20    0.39
   2  16  10    0.69    0.47
   2 -16   9    0.00    0.36
   2 -16   9    0.03    0.36
   2  16   9    0.13    0.39
   2 -16   8    0.18    0.36
   2 -16   8    0.12    0.37
   2  16   8   -0.01    0.28
   2  16   8   -0.21    0.32
   2 -16   7    0.49    0.42
   2  16   7    0.46    0.36
   2  16   7    0.58    0.34
   2 -16   6   -0.03    0.33
   2  16   6    0.33    0.35
   2  16   6    0.78    0.38
   2 -16   5    0.51    0.41
   2  16   5    0.95    0.38
   2  16   5   -0.09    0.28
   2 -16   4   -0.02    0.34
   2  16   4    0.19    0.33
   2  16   4    0.47    0.33
   2 -16   3    3.65    0.68
   2  16   3    3.33    0.56
   2  16   3    2.68    0.55
  -2 -16  -2    0.16    0.30
   2 -16   2    0.23    0.36
   2  16   2    0.03    0.25
   2  16   2   -0.08    0.33
   2 -16   1    7.94    0.93
  -2 -16  -1    7.74    0.83
   2  16   1    8.72    0.89
   2  16   1    6.88    0.72
   2 -16   0    0.87    0.47
  -2 -16   0    0.92    0.41
   2  16   0    0.59    0.30
   2  16   0    1.06    0.50
  -2 -16   1   -0.20    0.28
   2 -16  -1   -0.21    0.29
   2  16  -1   -0.30    0.43
  -2  16   1    0.06    0.26
  -2 -16   2    3.91    0.67
   2 -16  -2    2.24    0.53
  -2  16   2    3.26    0.57
  -2  16   2    2.45    0.56
   2 -16  -3    1.36    0.47
  -2 -16   3    1.50    0.49
  -2  16   3    1.81    0.48
  -2 -16   4   -0.25    0.27
   2 -16  -4    0.16    0.34
  -2  16   4   -0.03    0.27
  -2 -16   5    0.45    0.40
  -2  16   5    0.41    0.33
  -2 -16   6    7.84    0.98
  -2  16   6    7.24    0.90
  -2 -16   7   -0.05    0.28
  -2  16   7    0.53    0.36
  -2 -16   8    0.13    0.23
  -2 -16   8    0.86    0.42
  -2  16   8   -0.28    0.32
  -2 -16   9    1.21    0.44
  -2 -16   9    1.93    0.55
  -2  16   9    2.60    0.65
  -2 -16  10    0.89    0.45
  -2  16  10    1.33    0.55
  -2 -16  11    0.70    0.39
  -2  16  11    1.16    0.52
  -2 -16  12    1.19    0.47
  -2  16  12    0.45    0.50
  -2  16  13    0.84    0.59
   2 -18  11    0.24    0.46
   2  18  11    0.17    0.45
   2 -18  10   -0.03    0.42
   2 -18  10    0.41    0.42
   2  18  10   -0.40    0.33
   2 -18   9    0.48    0.47
   2 -18   9    0.02    0.36
   2  18   9    0.72    0.50
   2 -18   8    0.65    0.44
   2  18   8   -0.16    0.34
   2 -18   7   -0.12    0.36
   2  18   7   -0.08    0.36
   2 -18   6    3.75    0.76
   2  18   6    2.28    0.58
   2 -18   5    0.77    0.45
   2  18   5    0.58    0.41
   2  18   5    0.57    0.37
   2 -18   4    0.13    0.37
   2  18   4    0.01    0.35
   2  18   4   -0.12    0.29
   2 -18   3    1.92    0.59
   2  18   3    0.98    0.47
   2  18   3    1.18    0.40
   2 -18   2    5.17    0.82
  -2 -18  -2    6.95    0.78
   2  18   2    6.61    0.84
   2  18   2    5.79    0.73
  -2 -18  -1   -0.05    0.31
   2 -18   1    0.41    0.41
   2  18   1   -0.57    0.36
   2  18   1    0.00    0.28
   2 -18   0    1.08    0.46
  -2 -18   0    0.57    0.38
   2  18   0    0.62    0.49
  -2 -18   1   -0.20    0.27
   2 -18  -1   -0.12    0.31
   2  18  -1    0.53    0.53
  -2 -18   2    0.15    0.31
   2 -18  -2    0.05    0.35
  -2  18   2   -0.14    0.25
  -2 -18   3    0.64    0.42
   2 -18  -3    0.47    0.40
  -2  18   3    0.23    0.29
  -2 -18   4   -0.15    0.31
   2 -18  -4    0.57    0.38
  -2  18   4   -0.40    0.24
  -2 -18   5   -0.18    0.29
  -2  18   5    0.12    0.30
  -2 -18   6    2.00    0.55
  -2  18   6    1.15    0.49
  -2 -18   7    0.27    0.34
  -2  18   7    0.14    0.36
  -2 -18   8    0.00    0.33
  -2  18   8    0.02    0.33
  -2 -18   9    0.22    0.35
  -2  18   9   -0.05    0.35
  -2 -18  10    0.68    0.46
  -2  18  10    1.10    0.51
  -2 -18  11    0.76    0.43
  -2  18  11    1.08    0.56
  -2  18  12   -0.25    0.42
   2 -20   9    0.43    0.50
   2  20   9    0.83    0.50
   2 -20   8   -0.13    0.32
   2  20   8    0.36    0.44
   2 -20   7    1.07    0.52
   2  20   7    0.43    0.45
   2 -20   6    0.22    0.40
   2  20   6   -0.28    0.34
   2 -20   5    0.99    0.52
   2 -20   4    0.77    0.49
   2 -20   3    0.22    0.41
   2  20   3   -0.33    0.38
   2 -20   2    0.18    0.42
   2  20   2   -0.24    0.41
  -2 -20  -1    1.60    0.50
   2 -20   1    2.09    0.59
   2  20   1    2.44    0.67
   2 -20   0   -0.37    0.28
  -2 -20   0    0.18    0.33
   2  20   0   -0.10    0.51
   2 -20  -1    0.18    0.41
  -2 -20   1    0.87    0.41
   2 -20  -2   -0.16    0.34
  -2 -20   2    0.15    0.33
  -2  20   2    0.25    0.32
   2 -20  -3   -0.36    0.34
  -2 -20   3    0.60    0.42
  -2  20   3    0.10    0.31
  -2 -20   4   -0.15    0.30
  -2  20   4   -0.41    0.26
  -2 -20   5    2.27    0.65
  -2  20   5    2.91    0.64
  -2 -20   6    0.64    0.45
  -2  20   6    0.97    0.46
  -2 -20   7    0.18    0.35
  -2  20   7    0.44    0.41
  -2 -20   8    0.02    0.29
  -2  20   8   -0.09    0.32
  -2 -20   9    1.19    0.50
  -2  20   9    1.08    0.57
  -2  20  10   -0.41    0.37
  -2  20  11   -0.21    0.42
   2 -22   5    0.22    0.45
   2 -22   4    0.27    0.44
   2 -22   3    0.04    0.38
   2 -22   2    2.20    0.65
   2 -22   1    0.75    0.47
  -2 -22   0    1.74    0.54
   2 -22   0    1.36    0.53
   2 -22  -1    0.19    0.42
  -2 -22   1    0.78    0.43
  -2 -22   2    1.97    0.60
   2 -22  -2    1.04    0.53
  -2 -22   3   -0.15    0.35
  -2  22   3   -0.12    0.30
  -2 -22   4    0.17    0.40
  -2  22   4    0.38    0.39
  -2 -22   5    0.43    0.37
  -2  22   5    0.23    0.38
  -2 -22   6    2.21    0.63
  -2  22   6    1.60    0.55
  -2  22   7    0.37    0.45
  -2  22   8    0.63    0.45
  -2  22   9    0.20    0.45
   2 -24   2    0.10    0.39
   2 -24   1    0.30    0.47
   2 -24   0    0.29    0.41
   2 -24  -1    0.35    0.45
  -2 -24   1   -0.19    0.31
  -2 -24   2    0.68    0.45
  -2 -24   3    0.34    0.42
  -2 -24   4    0.61    0.46
  -2  24   4   -0.08    0.39
  -2  24   5    1.78    0.62
  -2  24   6    1.35    0.58
   3  -1  15    0.16    0.44
   3   1  15    0.36    0.41
   3  -1  14    0.59    0.44
   3   1  14    1.22    0.49
   3  -1  13    2.29    0.60
   3   1  13    0.90    0.48
   3  -1  12   -0.08    0.28
   3   1  12    0.15    0.31
   3  -1  11    0.11    0.30
   3   1  11    0.40    0.34
   3  -1  10    8.70    0.93
   3   1  10    8.72    0.93
   3  -1   9    8.41    0.87
   3   1   9    8.76    0.89
   3  -1   8   -0.10    0.22
   3   1   8    0.06    0.23
   3  -1   7    7.73    0.75
   3  -1   7    7.69    0.47
   3   1   7    6.63    0.69
   3  -1   6    3.39    0.47
   3  -1   6    4.68    0.36
   3   1   6    4.31    0.28
   3   1   6    3.12    0.46
   3  -1   5    0.02    0.15
   3  -1   5   -0.10    0.14
   3   1   5   -0.07    0.14
   3   1   5    0.30    0.12
   3  -1   4    1.84    0.30
   3  -1   4    1.77    0.25
   3   1   4    1.44    0.27
   3   1   4    1.57    0.19
   3  -1   3   90.94    2.82
   3  -1   3   94.73    2.77
   3   1   3   92.40    2.82
   3   1   3   93.84    2.67
  -3  -1  -2  972.95   27.18
   3  -1   2  980.30   27.41
   3  -1   2  984.72   27.11
   3   1   2 1000.00   27.02
  -3  -1  -1    1.93    0.15
   3   1   1    1.69    0.20
   3   1   0    6.01    0.32
  -3   1   0    6.67    0.33
  -3  -1   1    0.01    0.06
   3   1  -1    0.06    0.06
  -3   1   1    0.07    0.07
  -3  -1   2  361.27   10.02
   3   1  -2  358.32    9.99
  -3   1   2  363.10   10.01
  -3  -1   3   -0.12    0.08
  -3  -1   3   -0.01    0.10
  -3   1   3   -0.05    0.08
  -3   1   3    0.02    0.11
  -3  -1   4    6.25    0.38
  -3   1   4    6.72    0.40
  -3   1   4    5.87    0.35
  -3  -1   5   23.40    0.89
  -3  -1   5   20.68    0.86
  -3   1   5   21.45    0.83
  -3   1   5   22.35    0.90
  -3  -1   6    4.58    0.45
  -3  -1   6    3.73    0.38
  -3   1   6    3.41    0.34
  -3   1   6    3.86    0.43
  -3  -1   7   18.30    0.89
  -3  -1   7   19.12    0.84
  -3   1   7   18.40    0.79
  -3   1   7   18.78    0.92
  -3  -1   8   -0.16    0.13
  -3  -1   8   -0.07    0.11
  -3   1   8   -0.11    0.16
  -3   1   8    0.15    0.13
  -3  -1   9    1.49    0.29
  -3  -1   9    2.10    0.42
  -3   1   9    1.96    0.42
  -3   1   9    2.00    0.30
  -3  -1  10    4.07    0.60
  -3  -1  10    3.35    0.44
  -3   1  10    4.82    0.64
  -3  -1  11    1.11    0.38
  -3   1  11    0.49    0.36
  -3  -1  12    0.79    0.40
  -3   1  12    1.70    0.47
  -3  -1  13    0.25    0.37
  -3   1  13    0.68    0.41
  -3  -1  14    0.79    0.43
  -3   1  14    0.15    0.36
  -3  -1  15    0.41    0.42
  -3   1  15    0.14    0.41
  -3  -1  16   -0.15    0.39
  -3   1  16   -0.29    0.33
  -3  -1  17    0.52    0.52
  -3   1  17    0.36    0.52
   3  -3  15   -0.06    0.42
   3   3  15   -0.35    0.35
   3  -3  14    0.58    0.44
   3   3  14    0.84    0.47
   3  -3  13    0.79    0.45
   3   3  13    0.34    0.36
   3  -3  12    0.03    0.35
   3   3  12    0.08    0.33
   3  -3  11    0.38    0.32
   3   3  11   -0.07    0.28
   3  -3  10    8.58    0.95
   3   3  10    6.45    0.82
   3  -3   9    1.09    0.41
   3   3   9    1.06    0.38
   3  -3   8    0.10    0.20
   3  -3   8   -0.09    0.21
   3   3   8    0.11    0.25
   3  -3   7    4.86    0.51
   3  -3   7    5.24    0.61
   3   3   7    5.27    0.63
   3  -3   6   66.60    2.38
   3  -3   6   68.38    2.23
   3   3   6   65.87    2.34
   3  -3   5    0.57    0.22
   3  -3   5    0.17    0.20
   3   3   5    0.35    0.19
   3  -3   4   13.42    0.67
   3  -3   4   14.31    0.74
   3   3   4   13.52    0.69
   3  -3   3   17.98    0.77
  -3  -3  -3   16.84    0.52
   3   3   3   16.70    0.74
  -3  -3  -2   34.86    1.05
   3  -3   2   33.96    1.25
   3   3   2   36.10    1.19
  -3  -3  -1   35.46    1.09
   3  -3   1   33.69    1.21
   3   3   1   35.08    1.22
   3   3   1   35.37    1.11
  -3  -3   0   17.78    0.64
  -3   3   0   17.22    0.71
   3   3   0   18.67    0.72
  -3  -3   1    2.21    0.24
   3   3  -1    2.19    0.24
  -3   3   1    1.69    0.21
  -3   3   1    2.31    0.26
  -3  -3   2   50.42    1.63
   3   3  -2   52.13    1.66
  -3   3   2   50.93    1.61
  -3   3   2   50.92    1.60
  -3  -3   3    1.83    0.18
  -3  -3   3    1.64    0.25
  -3   3   3    1.71    0.22
  -3   3   3    1.86    0.25
  -3  -3   4   13.38    0.64
  -3  -3   4   13.16    0.56
  -3   3   4   13.50    0.57
  -3   3   4   13.77    0.64
  -3  -3   5   20.33    0.87
  -3   3   5   21.61    0.80
  -3   3   5   19.76    0.89
  -3  -3   6   74.47    2.44
  -3  -3   6   75.85    2.40
  -3   3   6   77.00    2.32
  -3   3   6   73.05    2.46
  -3  -3   7    9.95    0.60
  -3  -3   7   10.42    0.63
  -3   3   7   10.26    0.53
  -3   3   7    9.81    0.65
  -3  -3   8   17.93    0.92
  -3  -3   8   17.54    0.87
  -3   3   8   17.27    0.76
  -3   3   8   17.57    0.96
  -3  -3   9   10.49    0.74
  -3  -3   9    9.93    0.66
  -3   3   9    9.81    0.75
  -3   3   9   11.22    0.57
  -3  -3  10    0.60    0.31
  -3  -3  10    1.04    0.28
  -3   3  10    0.49    0.30
  -3  -3  11   -0.10    0.18
  -3  -3  11    0.32    0.28
  -3   3  11   -0.09    0.28
  -3  -3  12    1.66    0.48
  -3   3  12    1.99    0.53
  -3  -3  13    2.96    0.63
  -3   3  13    3.07    0.65
  -3  -3  14    1.64    0.51
  -3   3  14    2.42    0.61
  -3  -3  15    0.22    0.41
  -3   3  15   -0.18    0.36
  -3  -3  16    0.28    0.45
  -3   3  16   -0.59    0.34
  -3  -3  17   -0.02    0.38
  -3   3  17    0.15    0.46
   3  -5  15    0.31    0.49
   3   5  15   -0.38    0.34
   3  -5  14    0.50    0.46
   3   5  14   -0.11    0.32
   3  -5  13   -0.14    0.31
   3   5  13    0.58    0.41
   3  -5  12   -0.02    0.34
   3   5  12   -0.49    0.24
   3  -5  11    2.69    0.62
   3   5  11    4.05    0.69
   3  -5  10    0.80    0.36
   3   5  10    0.36    0.34
   3  -5   9    3.43    0.51
   3  -5   9    3.17    0.58
   3   5   9    4.16    0.65
   3  -5   8    0.08    0.23
   3  -5   8   -0.28    0.24
   3   5   8    0.01    0.25
   3  -5   7    2.72    0.47
   3  -5   7    2.58    0.44
   3   5   7    2.29    0.45
   3  -5   6   18.08    0.93
   3  -5   6   19.00    1.00
   3   5   6   18.48    0.98
   3  -5   5   14.19    0.81
   3  -5   5   14.06    0.78
   3   5   5   14.03    0.78
   3  -5   4   17.63    0.88
   3   5   4   18.25    0.86
  -3  -5  -3    3.32    0.18
   3  -5   3    4.07    0.46
   3   5   3    2.96    0.38
   3   5   3    3.47    0.38
   3  -5   2   39.54    1.45
  -3  -5  -2   39.14    1.21
   3   5   2   37.96    1.40
   3   5   2   38.86    1.31
   3  -5   1   56.81    1.91
  -3  -5  -1   56.85    1.74
   3   5   1   56.46    1.88
   3   5   1   56.69    1.73
  -3  -5   0    6.45    0.38
   3  -5   0    7.74    0.48
   3   5   0    7.44    0.34
   3   5   0    7.17    0.45
  -3  -5   1   58.88    1.81
   3  -5  -1   54.55    1.83
   3   5  -1   56.25    1.83
  -3   5   1   53.44    1.78
  -3  -5   2    1.26    0.24
   3   5  -2    1.42    0.28
  -3   5   2    1.14    0.23
  -3   5   2    1.48    0.25
  -3  -5   3    1.46    0.26
  -3   5   3    1.78    0.26
  -3   5   3    1.64    0.28
  -3  -5   4    7.45    0.50
  -3  -5   4    7.46    0.40
  -3   5   4    8.02    0.43
  -3   5   4    7.32    0.49
  -3  -5   5    1.74    0.26
  -3  -5   5    1.80    0.32
  -3   5   5    1.47    0.31
  -3   5   5    1.84    0.26
  -3  -5   6   13.54    0.76
  -3   5   6   14.04    0.77
  -3   5   6   13.47    0.63
  -3  -5   7    5.34    0.54
  -3  -5   7    5.61    0.58
  -3   5   7    5.51    0.38
  -3   5   7    5.79    0.60
  -3  -5   8   12.10    0.74
  -3  -5   8   12.31    0.75
  -3   5   8   11.70    0.59
  -3   5   8   10.13    0.75
  -3  -5   9   -0.10    0.16
  -3  -5   9    0.38    0.25
  -3   5   9    0.50    0.29
  -3  -5  10    0.32    0.23
  -3  -5  10    0.10    0.24
  -3   5  10   -0.21    0.25
  -3  -5  11    2.59    0.53
  -3  -5  11    2.84    0.48
  -3   5  11    1.92    0.52
  -3  -5  12    1.51    0.44
  -3  -5  12    2.11    0.43
  -3   5  12    1.64    0.50
  -3  -5  13   -0.07    0.29
  -3   5  13   -0.39    0.28
  -3  -5  14    0.75    0.44
  -3   5  14    1.01    0.49
  -3  -5  15    0.86    0.50
  -3   5  15    0.27    0.42
  -3  -5  16   -0.38    0.37
  -3   5  16   -0.03    0.38
  -3  -5  17    0.03    0.47
  -3   5  17    0.30    0.50
   3  -7  15    0.26    0.52
   3   7  15    0.54    0.49
   3  -7  14    0.02    0.43
   3   7  14   -0.04    0.39
   3  -7  13   -0.31    0.35
   3   7  13    0.13    0.37
   3  -7  12   -0.12    0.30
   3   7  12    0.05    0.35
   3  -7  11    0.06    0.30
   3   7  11    0.24    0.34
   3  -7  10    5.52    0.78
   3   7  10    4.34    0.71
   3  -7   9    0.29    0.33
   3  -7   9    0.88    0.37
   3   7   9    0.32    0.34
   3  -7   8    1.84    0.48
   3  -7   8    1.39    0.41
   3   7   8    2.13    0.48
   3  -7   7    8.57    0.81
   3  -7   7    9.02    0.86
   3   7   7    8.34    0.81
   3  -7   6    4.51    0.59
   3  -7   6    3.86    0.54
   3   7   6    5.53    0.61
   3  -7   5    3.73    0.52
   3   7   5    4.33    0.51
   3   7   5    3.20    0.47
   3  -7   4    1.09    0.33
  -3  -7  -4    0.40    0.10
   3   7   4    0.58    0.22
   3   7   4    0.45    0.21
   3  -7   3    9.78    0.66
  -3  -7  -3   10.04    0.44
   3   7   3    9.58    0.58
   3   7   3    9.25    0.62
   3  -7   2   32.83    1.36
  -3  -7  -2   34.00    1.14
   3   7   2   34.38    1.21
   3   7   2   32.72    1.32
   3  -7   1    5.89    0.57
  -3  -7  -1    5.34    0.36
   3   7   1    5.43    0.43
   3   7   1    5.55    0.37
   3  -7   0   11.76    0.67
   3   7   0    9.98    0.47
   3   7   0   10.38    0.60
   3  -7  -1   12.23    0.67
  -3  -7   1   11.45    0.60
   3   7  -1   10.62    0.63
   3   7  -1   11.32    0.48
  -3   7   1   11.60    0.62
  -3  -7   2   23.07    0.98
   3  -7  -2   23.29    0.98
  -3   7   2   22.64    0.97
  -3   7   2   22.33    0.83
   3   7  -2   22.55    1.03
  -3  -7   3   18.45    0.88
  -3   7   3   19.41    0.71
   3   7  -3   18.02    0.98
  -3   7   3   19.87    0.89
  -3  -7   4   10.66    0.66
  -3   7   4   12.16    0.53
  -3   7   4   12.25    0.68
  -3   7   4   10.87    0.60
  -3  -7   5   14.89    0.82
  -3  -7   5   15.25    0.71
  -3   7   5   14.71    0.81
  -3   7   5   14.75    0.70
  -3   7   5   15.75    0.68
  -3  -7   6    5.29    0.59
  -3  -7   6    4.13    0.44
  -3   7   6    4.59    0.55
  -3   7   6    5.07    0.45
  -3  -7   7    0.42    0.24
  -3  -7   7   -0.04    0.11
  -3   7   7   -0.15    0.13
  -3   7   7   -0.06    0.23
  -3  -7   8    0.15    0.20
  -3  -7   8   -0.02    0.18
  -3   7   8    0.49    0.27
  -3  -7   9    2.14    0.44
  -3  -7   9    1.11    0.34
  -3   7   9    1.20    0.39
  -3  -7  10    1.51    0.40
  -3  -7  10    1.77    0.42
  -3   7  10    0.82    0.39
  -3  -7  11    1.88    0.43
  -3  -7  11    1.59    0.45
  -3   7  11    1.33    0.49
  -3  -7  12    1.84    0.41
  -3  -7  12    2.36    0.56
  -3   7  12    1.67    0.54
  -3  -7  13   -0.05    0.31
  -3   7  13    0.36    0.36
  -3  -7  14    0.75    0.44
  -3   7  14    0.62    0.43
  -3  -7  15    0.27    0.43
  -3   7  15    0.57    0.46
  -3  -7  16   -0.05    0.43
  -3   7  16    0.13    0.49
   3  -9  14   -0.24    0.38
   3   9  14   -0.05    0.35
   3  -9  13    0.39    0.47
   3   9  13    1.28    0.53
   3  -9  12   -0.01    0.35
   3   9  12    0.29    0.35
   3  -9  11    1.06    0.44
   3   9  11    0.86    0.44
   3  -9  10    1.05    0.46
   3  -9  10   -0.02    0.29
   3   9  10    0.62    0.36
   3  -9   9    0.93    0.40
   3  -9   9    0.69    0.39
   3   9   9    0.76    0.38
   3  -9   8    0.05    0.32
   3  -9   8    0.00    0.29
   3   9   8    0.32    0.28
   3   9   8    0.02    0.24
   3  -9   7    1.34    0.43
   3  -9   7    2.01    0.46
   3   9   7    1.08    0.37
   3   9   7    1.29    0.38
   3  -9   6    2.88    0.53
   3   9   6    3.76    0.54
   3   9   6    2.50    0.45
   3  -9   5    0.83    0.37
   3   9   5    0.90    0.31
   3   9   5    0.83    0.28
  -3  -9  -4   13.10    0.56
   3  -9   4   13.45    0.89
   3   9   4   12.62    0.76
   3   9   4   13.64    0.83
   3  -9   3   -0.02    0.25
  -3  -9  -3    0.43    0.17
   3   9   3    0.17    0.18
   3   9   3    0.04    0.19
   3  -9   2    0.84    0.32
  -3  -9  -2    0.74    0.21
   3   9   2    0.28    0.19
   3   9   2    0.44    0.23
  -3  -9  -1    6.61    0.46
   3  -9   1    8.06    0.74
   3   9   1    5.94    0.57
   3   9   1    6.86    0.45
   3  -9   0   42.10    1.66
   3   9   0   42.20    1.42
   3   9   0   42.10    1.61
  -3  -9   1   59.67    2.07
   3  -9  -1   60.56    2.15
   3   9  -1   60.59    1.89
   3   9  -1   59.34    2.13
  -3   9   1   61.30    2.08
  -3  -9   2   45.40    1.70
   3  -9  -2   43.92    1.69
   3   9  -2   46.57    1.77
  -3   9   2   45.26    1.66
  -3   9   2   45.12    1.54
  -3  -9   3    0.38    0.25
   3  -9  -3    0.12    0.21
  -3   9   3    0.67    0.20
   3   9  -3    0.74    0.36
  -3   9   3    0.22    0.20
   3  -9  -4   -0.20    0.17
  -3  -9   4    0.15    0.21
  -3   9   4   -0.16    0.19
  -3   9   4    0.16    0.16
  -3  -9   5    1.70    0.36
   3  -9  -5    1.42    0.32
  -3   9   5    1.79    0.27
  -3   9   5    2.43    0.43
  -3  -9   6    2.85    0.48
   3  -9  -6    2.65    0.38
  -3  -9   6    2.41    0.38
  -3   9   6    2.82    0.34
  -3   9   6    2.15    0.42
  -3  -9   7    2.09    0.36
   3  -9  -7    4.24    0.45
  -3  -9   7    3.39    0.54
  -3   9   7    3.99    0.58
  -3   9   7    3.65    0.42
  -3  -9   8    3.38    0.56
  -3  -9   8    1.32    0.33
  -3   9   8    2.37    0.48
  -3  -9   9    2.29    0.46
  -3  -9   9    2.75    0.52
  -3   9   9    2.99    0.57
  -3  -9  10    0.19    0.28
  -3  -9  10   -0.23    0.23
  -3   9  10   -0.01    0.26
  -3  -9  11    0.16    0.30
  -3  -9  11    0.33    0.29
  -3   9  11    0.66    0.38
  -3  -9  12   -0.07    0.29
  -3  -9  12    0.12    0.24
  -3   9  12   -0.18    0.28
  -3  -9  13    1.93    0.48
  -3  -9  13    1.73    0.55
  -3   9  13    1.94    0.59
  -3  -9  14    0.05    0.36
  -3   9  14    0.27    0.42
  -3  -9  15   -0.12    0.38
  -3   9  15   -0.56    0.31
  -3  -9  16   -0.09    0.39
  -3   9  16    0.08    0.44
   3 -11  14    0.23    0.49
   3  11  14    0.18    0.47
   3  11  14    0.68    0.45
   3 -11  13   -0.06    0.42
   3  11  13    0.19    0.33
   3  11  13    0.29    0.40
   3 -11  12    0.77    0.47
   3  11  12    0.71    0.40
   3  11  12    0.23    0.43
   3 -11  11    1.50    0.53
   3  11  11    0.86    0.41
   3  11  11    0.70    0.47
   3 -11  10    1.28    0.53
   3 -11  10    2.55    0.56
   3  11  10    2.29    0.54
   3  11  10    3.09    0.65
   3 -11   9   -0.05    0.32
   3 -11   9    0.17    0.34
   3  11   9    0.21    0.28
   3  11   9    0.14    0.33
   3 -11   8   -0.14    0.31
   3 -11   8    0.18    0.28
   3  11   8    0.31    0.34
   3  11   8    0.29    0.31
   3 -11   7    3.00    0.58
   3 -11   7    1.94    0.53
   3  11   7    2.22    0.50
   3  11   7    1.79    0.40
   3 -11   6   10.45    1.03
   3  11   6   11.09    0.82
   3  11   6    8.66    0.85
   3 -11   5    0.95    0.41
   3  11   5    1.20    0.36
   3  11   5    1.56    0.40
   3 -11   4    1.18    0.42
   3  11   4    1.36    0.36
   3  11   4    1.68    0.37
   3 -11   3    3.89    0.61
  -3 -11  -3    3.81    0.41
   3  11   3    3.36    0.48
   3  11   3    4.05    0.51
   3 -11   2   30.78    1.45
  -3 -11  -2   29.65    1.21
   3  11   2   31.04    1.38
   3  11   2   30.42    1.24
  -3 -11  -1    0.04    0.18
   3 -11   1    0.19    0.31
   3  11   1    0.03    0.22
   3  11   1    0.27    0.18
  -3 -11   0    0.82    0.28
   3 -11   0    0.53    0.31
   3  11   0    0.41    0.27
   3  11   0    0.94    0.24
  -3 -11   1    0.62    0.27
   3 -11  -1    1.11    0.36
   3  11  -1    0.79    0.34
   3  11  -1    0.75    0.22
  -3  11   1    0.52    0.24
  -3 -11   2   16.81    0.95
   3 -11  -2   18.76    1.00
   3  11  -2   17.04    1.03
  -3  11   2   19.32    0.96
  -3  11   2   18.40    0.91
  -3 -11   3    5.45    0.63
   3 -11  -3    5.17    0.62
  -3  11   3    4.71    0.57
  -3  11   3    5.25    0.49
   3 -11  -4    2.74    0.44
  -3 -11   4    3.58    0.54
  -3  11   4    2.38    0.44
  -3  11   4    2.19    0.33
   3 -11  -5    0.19    0.28
  -3 -11   5    0.53    0.31
  -3  11   5    0.30    0.21
  -3  11   5    0.57    0.29
  -3 -11   6    0.10    0.25
   3 -11  -6   -0.14    0.24
  -3  11   6    0.33    0.29
  -3  11   6    0.19    0.20
  -3 -11   7   -0.18    0.19
  -3 -11   7    0.63    0.33
  -3  11   7    0.07    0.27
  -3 -11   8    5.10    0.71
  -3  11   8    6.08    0.77
  -3 -11   9    0.30    0.28
  -3 -11   9    1.06    0.40
  -3  11   9    0.69    0.38
  -3 -11  10   -0.24    0.22
  -3 -11  10    0.23    0.27
  -3  11  10    0.16    0.32
  -3 -11  11    1.76    0.49
  -3 -11  11    1.35    0.45
  -3  11  11    3.58    0.69
  -3 -11  12    0.83    0.42
  -3 -11  12    1.06    0.37
  -3  11  12   -0.08    0.36
  -3 -11  13    0.75    0.38
  -3 -11  13   -0.17    0.32
  -3  11  13    0.44    0.39
  -3 -11  14   -0.16    0.35
  -3  11  14   -0.04    0.34
  -3 -11  15    0.17    0.44
  -3  11  15   -0.34    0.37
   3 -13  13   -0.06    0.45
   3  13  13    0.49    0.47
   3 -13  12    0.02    0.32
   3  13  12    0.16    0.33
   3  13  12    0.02    0.40
   3 -13  11    0.54    0.38
   3 -13  11    0.52    0.44
   3  13  11    0.31    0.40
   3  13  11    0.81    0.38
   3 -13  10    0.14    0.34
   3 -13  10   -0.04    0.32
   3  13  10   -0.30    0.25
   3  13  10    0.03    0.39
   3 -13   9    1.02    0.43
   3 -13   9    0.58    0.39
   3  13   9   -0.20    0.26
   3  13   9    0.33    0.39
   3 -13   8    0.27    0.32
   3 -13   8    0.22    0.38
   3  13   8   -0.03    0.26
   3  13   8   -0.13    0.30
   3 -13   7    5.17    0.78
   3  13   7    6.56    0.82
   3  13   7    4.85    0.68
   3 -13   6    1.94    0.54
   3  13   6    0.95    0.38
   3  13   6    1.36    0.41
   3 -13   5    2.77    0.63
   3  13   5    3.71    0.59
   3  13   5    2.89    0.52
   3 -13   4    8.25    0.94
   3  13   4    5.63    0.65
   3  13   4    4.39    0.60
   3 -13   3    8.59    0.93
  -3 -13  -3    8.62    0.59
   3  13   3    8.42    0.66
   3  13   3    8.29    0.80
  -3 -13  -2    0.87    0.30
   3 -13   2    1.36    0.43
   3  13   2    0.77    0.34
   3  13   2    0.82    0.30
   3 -13   1    4.87    0.70
  -3 -13  -1    5.41    0.60
   3  13   1    3.95    0.57
   3  13   1    4.70    0.52
   3 -13   0    1.20    0.42
  -3 -13   0    1.86    0.40
   3  13   0    2.08    0.35
   3  13   0    1.80    0.45
  -3 -13   1    3.83    0.56
   3 -13  -1    3.40    0.56
   3  13  -1    3.89    0.61
  -3  13   1    3.97    0.56
   3 -13  -2    3.44    0.56
  -3 -13   2    4.93    0.64
  -3  13   2    3.80    0.53
   3  13  -2    3.88    0.63
  -3  13   2    3.69    0.54
   3 -13  -3    2.84    0.54
  -3 -13   3    2.79    0.51
  -3  13   3    2.91    0.45
  -3  13   3    3.11    0.53
   3 -13  -4    0.29    0.20
  -3 -13   4    1.16    0.39
  -3  13   4    1.77    0.36
  -3  13   4    0.83    0.36
   3 -13  -5    2.57    0.49
  -3 -13   5    2.03    0.49
  -3  13   5    3.00    0.55
  -3 -13   6    0.09    0.30
   3 -13  -6    0.28    0.30
  -3  13   6   -0.10    0.28
  -3 -13   7    0.12    0.27
  -3 -13   7    0.06    0.21
  -3  13   7    0.45    0.35
  -3 -13   8    1.39    0.45
  -3 -13   8    1.95    0.41
  -3  13   8    2.22    0.56
  -3 -13   9   12.00    1.15
  -3  13   9   12.02    1.19
  -3 -13  10    0.83    0.38
  -3 -13  10    1.06    0.40
  -3  13  10    0.16    0.35
  -3 -13  11    0.17    0.30
  -3 -13  11    0.02    0.28
  -3  13  11    0.20    0.37
  -3 -13  12    0.10    0.32
  -3 -13  12    0.36    0.35
  -3  13  12    0.30    0.39
  -3 -13  13    2.10    0.58
  -3 -13  13    1.86    0.53
  -3  13  13    2.18    0.66
  -3 -13  14    1.80    0.49
  -3  13  14   -0.04    0.46
  -3  13  15    0.48    0.55
   3 -15  12    1.56    0.61
   3  15  12    1.53    0.60
   3 -15  11    0.56    0.42
   3 -15  11    0.05    0.41
   3  15  11   -0.10    0.38
   3 -15  10    0.43    0.33
   3 -15  10    0.37    0.40
   3  15  10    0.40    0.35
   3  15  10   -0.02    0.36
   3 -15   9   -0.11    0.31
   3 -15   9    0.25    0.37
   3  15   9   -0.04    0.29
   3  15   9   -0.38    0.30
   3 -15   8    1.41    0.50
   3 -15   8    2.52    0.63
   3  15   8    1.39    0.45
   3  15   8    1.49    0.50
   3 -15   7    0.17    0.38
   3  15   7    3.82    0.70
   3  15   7   -0.34    0.27
   3 -15   6    1.08    0.48
   3  15   6    1.78    0.48
   3  15   6    1.67    0.51
   3 -15   5    3.89    0.71
   3  15   5    3.35    0.60
   3  15   5    3.99    0.63
   3 -15   4    0.13    0.37
   3  15   4    0.29    0.33
   3  15   4    0.49    0.35
   3 -15   3    2.21    0.59
   3  15   3    2.75    0.52
   3  15   3    2.32    0.50
   3 -15   2    8.79    0.99
  -3 -15  -2    8.02    0.76
   3  15   2    8.94    0.82
   3  15   2    8.40    0.86
   3 -15   1    7.67    0.93
   3  15   1    6.45    0.67
   3  15   1    6.19    0.75
   3 -15   0    0.14    0.38
  -3 -15   0   -0.21    0.22
   3  15   0    0.53    0.41
   3  15   0   -0.03    0.21
  -3 -15   1    3.67    0.58
   3 -15  -1    2.80    0.57
  -3  15   1    2.22    0.49
   3  15  -1    2.51    0.58
  -3 -15   2    0.31    0.30
   3 -15  -2    0.66    0.39
  -3  15   2    0.34    0.30
   3  15  -2    0.21    0.45
  -3 -15   3    0.23    0.33
   3 -15  -3    0.74    0.41
  -3  15   3    0.56    0.31
  -3 -15   4    1.23    0.47
  -3  15   4    2.22    0.51
   3 -15  -5    6.37    0.74
  -3 -15   5    4.77    0.74
  -3  15   5    5.85    0.75
  -3 -15   6    0.31    0.36
  -3  15   6    0.71    0.39
  -3 -15   7    4.45    0.72
  -3  15   7    4.05    0.69
  -3 -15   8    9.42    1.04
  -3  15   8    9.00    1.03
  -3 -15   9    0.08    0.29
  -3  15   9   -0.32    0.27
  -3 -15  10    1.87    0.55
  -3  15  10    1.14    0.51
  -3 -15  11    2.11    0.58
  -3  15  11    1.12    0.55
  -3 -15  12    1.24    0.51
  -3  15  12    0.58    0.47
  -3 -15  13    0.79    0.43
  -3  15  13    1.10    0.53
  -3  15  14   -0.53    0.39
   3 -17  11    0.35    0.48
   3  17  11    1.09    0.57
   3 -17  10    0.55    0.41
   3 -17  10    0.10    0.43
   3  17  10    0.00    0.40
   3 -17   9   -0.03    0.37
   3 -17   9    0.66    0.45
   3  17   9    0.17    0.40
   3 -17   8    0.26    0.41
   3  17   8    0.46    0.43
   3  17   8   -0.32    0.29
   3 -17   7   -0.03    0.31
   3  17   7    0.05    0.36
   3  17   7    0.36    0.34
   3 -17   6   -0.08    0.35
   3  17   6    0.74    0.39
   3  17   6    0.34    0.38
   3 -17   5    0.01    0.42
   3  17   5   -0.22    0.30
   3  17   5    0.35    0.35
   3 -17   4    1.39    0.52
   3  17   4    1.12    0.45
   3  17   4    2.12    0.50
   3 -17   3    5.37    0.82
   3  17   3    3.91    0.61
   3  17   3    5.49    0.75
   3 -17   2    1.29    0.51
  -3 -17  -2    1.52    0.42
   3  17   2    1.09    0.39
   3  17   2    1.09    0.43
   3 -17   1    2.16    0.57
   3  17   1    2.21    0.58
   3  17   1    2.69    0.50
   3 -17   0   -0.21    0.36
  -3 -17   0   -0.26    0.24
   3  17   0    0.06    0.25
   3  17   0    0.39    0.46
   3 -17  -1    4.75    0.73
  -3 -17   1    5.91    0.77
   3  17  -1    4.10    0.78
   3 -17  -2    0.33    0.41
  -3 -17   2    0.38    0.36
  -3  17   2    0.31    0.32
   3  17  -2    1.10    0.57
  -3 -17   3    4.14    0.70
   3 -17  -3    3.72    0.67
  -3  17   3    3.33    0.61
   3 -17  -4   -0.08    0.24
  -3 -17   4    0.57    0.40
  -3  17   4    0.83    0.39
  -3 -17   5    1.70    0.51
  -3  17   5    1.78    0.50
  -3 -17   6    1.36    0.47
  -3  17   6    1.60    0.50
  -3 -17   7    0.26    0.32
  -3  17   7   -0.19    0.28
  -3 -17   8    0.13    0.31
  -3  17   8    0.78    0.42
  -3 -17   9    1.56    0.50
  -3  17   9    1.33    0.52
  -3 -17  10    0.66    0.38
  -3  17  10   -0.29    0.35
  -3 -17  11    0.35    0.34
  -3  17  11    0.57    0.47
  -3 -17  12    0.25    0.31
  -3  17  12   -0.14    0.39
  -3  17  13   -0.18    0.44
   3 -19  10    0.36    0.49
   3  19  10   -0.17    0.44
   3 -19   9    0.16    0.43
   3  19   9   -0.09    0.44
   3 -19   8   -0.08    0.35
   3  19   8   -0.13    0.40
   3 -19   7    1.02    0.54
   3 -19   6    0.84    0.48
   3 -19   5    0.71    0.45
   3  19   5    0.83    0.47
   3 -19   4   -0.12    0.35
   3  19   4    0.33    0.40
   3 -19   3    2.42    0.64
   3  19   3    2.70    0.61
   3 -19   2    0.44    0.41
   3  19   2    0.29    0.44
  -3 -19  -1    0.16    0.19
   3 -19   1    0.49    0.40
   3  19   1    1.92    0.59
  -3 -19   0    0.81    0.39
   3 -19   0    0.80    0.46
   3  19   0    0.43    0.50
  -3 -19   1    1.08    0.43
   3 -19  -1    1.02    0.47
   3  19  -1    0.75    0.58
  -3 -19   2    1.65    0.52
   3 -19  -2    1.55    0.53
  -3  19   2    2.13    0.53
   3 -19  -3   -0.15    0.33
  -3 -19   3   -0.27    0.29
  -3  19   3    0.30    0.33
   3 -19  -4    0.41    0.40
  -3 -19   4    1.56    0.49
  -3  19   4    1.05    0.46
  -3 -19   5    0.03    0.32
  -3  19   5   -0.22    0.26
  -3 -19   6    1.48    0.52
  -3  19   6    2.16    0.57
  -3 -19   7    0.30    0.34
  -3  19   7   -0.38    0.27
  -3 -19   8    0.16    0.32
  -3  19   8    1.24    0.52
  -3 -19   9    0.47    0.38
  -3  19   9    0.87    0.51
  -3 -19  10    0.20    0.38
  -3  19  10   -0.03    0.38
  -3  19  11   -0.08    0.39
  -3  19  12    0.15    0.48
   3 -21   6    0.18    0.37
   3 -21   5    0.78    0.49
   3 -21   4    0.15    0.41
   3 -21   3    1.60    0.60
   3  21   3    1.22    0.53
   3 -21   2    1.37    0.57
   3  21   2    1.05    0.57
   3 -21   1    0.13    0.41
   3  21   1    0.55    0.58
   3 -21   0   -0.11    0.37
  -3 -21   0    0.38    0.34
   3  21   0   -0.02    0.52
   3 -21  -1    0.32    0.43
  -3 -21   1    0.50    0.34
  -3 -21   2    1.38    0.48
   3 -21  -2    0.24    0.43
   3 -21  -3    1.18    0.51
  -3 -21   3    0.60    0.38
  -3  21   3    0.27    0.33
  -3 -21   4    0.64    0.43
  -3  21   4    0.25    0.36
  -3 -21   5    0.23    0.35
  -3  21   5    0.36    0.39
  -3 -21   6    0.23    0.36
  -3  21   6    0.34    0.38
  -3 -21   7   -0.06    0.39
  -3  21   7   -0.41    0.31
  -3 -21   8    0.01    0.34
  -3  21   8    1.70    0.62
  -3  21   9    0.68    0.50
  -3  21  10    0.69    0.50
   3 -23   3    0.56    0.53
   3 -23   2    0.56    0.46
   3 -23   1   -0.19    0.39
   3 -23   0    0.63    0.49
   3  23   0    0.26    0.63
  -3 -23   1    0.95    0.44
   3 -23  -1    0.09    0.42
  -3 -23   2    0.35    0.40
   3 -23  -2    0.95    0.55
  -3 -23   3    0.25    0.36
  -3 -23   4    0.11    0.37
  -3  23   4    0.47    0.42
  -3 -23   5   -0.01    0.36
  -3  23   5    0.20    0.39
  -3  23   6    1.58    0.54
  -3  23   7    1.55    0.58
  -3  23   8    0.29    0.45
   3 -25  -1    0.01    0.40
  -3 -25   2    0.71    0.45
   4   0  15   -0.33    0.28
   4   0  14    0.07    0.34
   4   0  13    0.74    0.44
   4   0  12   -0.11    0.29
   4   0  11   -0.18    0.22
   4   0  10    1.00    0.40
   4   0   9   -0.55    0.17
   4   0   8   11.28    0.82
   4   0   7   -0.01    0.23
   4   0   6    3.47    0.48
   4   0   6    4.27    0.38
   4   0   5   -0.14    0.15
   4   0   5   -0.07    0.13
   4   0   4    3.09    0.31
   4   0   4    2.44    0.34
   4   0   3   -0.27    0.11
   4   0   3    0.09    0.15
  -4   0  -2    2.04    0.23
   4   0   2    2.07    0.28
  -4   0  -1   -0.12    0.11
   4   0  -1   -0.10    0.07
  -4   0   1   -0.04    0.08
  -4   0   2  148.28    4.27
  -4   0   3    0.16    0.11
  -4   0   3   -0.09    0.08
  -4   0   4    0.02    0.10
  -4   0   4    0.03    0.05
  -4   0   5   -0.03    0.10
  -4   0   5   -0.01    0.13
  -4   0   6   81.14    2.54
  -4   0   6   78.88    2.53
  -4   0   7    0.11    0.13
  -4   0   7   -0.28    0.14
  -4   0   8   -0.05    0.11
  -4   0   8    0.22    0.18
  -4   0   9   -0.01    0.21
  -4   0   9    0.12    0.15
  -4   0  10    9.95    0.63
  -4   0  10    9.38    0.73
  -4   0  11    0.06    0.26
  -4   0  12    4.29    0.69
  -4   0  13    0.13    0.34
  -4   0  14    0.51    0.42
  -4   0  15   -0.27    0.33
  -4   0  16    0.18    0.44
  -4   0  17   -0.28    0.37
   4  -2  15    0.28    0.46
   4   2  15    0.70    0.45
   4  -2  14    0.51    0.39
   4   2  14    1.07    0.52
   4  -2  13    0.42    0.40
   4   2  13    0.11    0.38
   4  -2  12    1.01    0.46
   4   2  12    0.71    0.41
   4  -2  11    2.54    0.58
   4   2  11    1.26    0.46
   4  -2  10    0.64    0.34
   4   2  10    0.05    0.26
   4  -2   9    0.30    0.30
   4   2   9    0.10    0.29
   4  -2   8    0.49    0.26
   4   2   8    0.97    0.35
   4  -2   7   19.25    1.05
   4  -2   7   17.64    0.84
   4   2   7   16.99    0.99
   4  -2   6   -0.14    0.18
   4  -2   6    0.26    0.20
   4   2   6    0.21    0.21
   4  -2   5   44.50    1.69
   4  -2   5   42.37    1.51
   4   2   5   43.20    1.65
   4   2   5   43.55    1.32
   4  -2   4    4.70    0.49
   4  -2   4    4.80    0.44
   4   2   4    4.19    0.26
   4   2   4    4.86    0.49
   4  -2   3   11.11    0.62
  -4  -2  -3   12.02    0.45
   4  -2   3   12.34    0.61
   4   2   3   11.16    0.60
   4  -2   2   21.55    0.88
  -4  -2  -2   22.76    0.77
   4   2   2   23.02    0.87
  -4  -2  -1  101.52    2.91
  -4   2  -1   98.81    2.99
   4   2   1  101.46    2.89
  -4  -2   0    5.28    0.30
   4   2   0    6.05    0.36
  -4   2   0    4.91    0.33
  -4  -2   1   28.71    1.00
  -4   2   1   28.26    1.02
   4   2  -1   28.91    1.01
  -4   2   1   28.88    0.97
  -4   2   2   28.12    0.97
   4   2  -2   29.08    1.01
  -4   2   2   28.02    1.01
  -4  -2   3    1.45    0.22
  -4   2   3    1.77    0.24
  -4   2   3    1.40    0.22
   4   2  -3    1.15    0.27
  -4  -2   4    5.48    0.32
  -4  -2   4    5.47    0.38
  -4   2   4    5.48    0.39
  -4   2   4    5.07    0.34
  -4  -2   5    0.39    0.16
  -4  -2   5    0.27    0.14
  -4   2   5    0.34    0.14
  -4   2   5    0.58    0.18
  -4  -2   6    6.06    0.45
  -4   2   6    7.47    0.50
  -4   2   6    6.67    0.42
  -4  -2   7    4.90    0.50
  -4  -2   7    5.79    0.45
  -4   2   7    4.97    0.37
  -4   2   7    5.25    0.55
  -4  -2   8    1.13    0.28
  -4  -2   8    0.68    0.23
  -4   2   8    0.65    0.18
  -4   2   8    0.54    0.24
  -4  -2   9    6.24    0.60
  -4  -2   9    6.97    0.70
  -4   2   9    5.79    0.44
  -4   2   9    5.83    0.66
  -4  -2  10    0.44    0.31
  -4  -2  10    0.39    0.21
  -4   2  10    0.43    0.31
  -4   2  10    0.58    0.20
  -4  -2  11    1.41    0.42
  -4  -2  11    0.84    0.28
  -4   2  11    0.09    0.30
  -4  -2  12   -0.24    0.27
  -4   2  12    0.14    0.30
  -4  -2  13    0.17    0.31
  -4   2  13    0.36    0.35
  -4  -2  14   -0.04    0.38
  -4   2  14    0.25    0.38
  -4  -2  15    0.32    0.40
  -4   2  15    0.08    0.33
  -4  -2  16    0.26    0.41
  -4   2  16   -0.45    0.31
  -4  -2  17    0.46    0.50
  -4   2  17    0.23    0.45
   4  -4  15    0.17    0.43
   4   4  15   -0.14    0.43
   4  -4  14    0.46    0.44
   4   4  14   -0.55    0.26
   4  -4  13    0.28    0.40
   4   4  13    0.95    0.47
   4  -4  12    0.67    0.40
   4   4  12    1.00    0.43
   4  -4  11    0.21    0.35
   4   4  11    0.14    0.34
   4  -4  10    0.90    0.40
   4   4  10    1.20    0.44
   4  -4   9    0.27    0.28
   4   4   9    0.01    0.29
   4  -4   8    4.03    0.60
   4  -4   8    4.19    0.53
   4   4   8    3.57    0.56
   4  -4   7    0.00    0.24
   4  -4   7    0.06    0.21
   4   4   7    0.10    0.23
   4  -4   6   -0.03    0.22
   4  -4   6   -0.02    0.19
   4   4   6    0.06    0.22
   4  -4   5    3.59    0.49
   4  -4   5    3.76    0.46
   4   4   5    3.98    0.49
   4  -4   4    0.16    0.17
   4  -4   4    0.13    0.21
   4   4   4    0.04    0.17
   4  -4   3    1.09    0.27
  -4  -4  -3    0.90    0.11
   4   4   3    1.13    0.24
   4  -4   2    0.20    0.20
  -4  -4  -2    0.29    0.09
   4   4   2    0.22    0.15
   4   4   2    0.16    0.16
  -4  -4  -1    8.56    0.40
   4  -4   1    8.09    0.52
   4   4   1    8.31    0.50
   4   4   1    8.24    0.41
  -4  -4   0   20.98    0.80
  -4   4   0   21.67    0.89
   4   4   0   22.30    0.90
  -4  -4   1    0.57    0.16
  -4   4   1    1.04    0.22
  -4   4   1    0.61    0.17
   4   4  -1    0.56    0.18
  -4  -4   2    7.12    0.42
  -4   4   2    6.18    0.40
   4   4  -2    6.95    0.48
  -4   4   2    6.38    0.41
  -4  -4   3    4.92    0.38
   4   4  -3    4.78    0.47
  -4   4   3    4.70    0.35
  -4   4   3    4.83    0.36
  -4  -4   4    1.98    0.22
  -4  -4   4    1.83    0.29
  -4   4   4    2.23    0.28
  -4   4   4    1.71    0.28
  -4  -4   5   22.09    0.86
  -4  -4   5   21.56    0.96
  -4   4   5   23.15    0.98
  -4   4   5   23.35    0.91
  -4  -4   6   12.87    0.65
  -4  -4   6   12.53    0.71
  -4   4   6   13.03    0.74
  -4   4   6   13.34    0.63
  -4  -4   7   20.09    0.94
  -4   4   7   18.07    0.93
  -4   4   7   17.78    0.79
  -4  -4   8    0.32    0.21
  -4  -4   8    0.30    0.19
  -4   4   8    0.99    0.22
  -4   4   8    0.68    0.30
  -4  -4   9    1.40    0.34
  -4  -4   9    0.24    0.21
  -4   4   9    0.17    0.25
  -4   4   9    0.41    0.18
  -4  -4  10    2.95    0.45
  -4  -4  10    2.95    0.50
  -4   4  10    2.54    0.51
  -4  -4  11    0.95    0.29
  -4  -4  11    0.32    0.31
  -4   4  11    0.34    0.34
  -4  -4  12    0.75    0.36
  -4  -4  12    0.98    0.30
  -4   4  12    1.83    0.53
  -4  -4  13   -0.20    0.28
  -4   4  13    0.12    0.36
  -4  -4  14    1.00    0.47
  -4   4  14    0.63    0.45
  -4  -4  15    0.34    0.41
  -4   4  15    0.13    0.41
  -4  -4  16    0.30    0.48
  -4   4  16   -0.44    0.31
  -4  -4  17    0.35    0.47
  -4   4  17    0.33    0.49
   4  -6  14    0.28    0.43
   4   6  14    0.03    0.39
   4  -6  13   -0.53    0.30
   4   6  13    0.46    0.41
   4  -6  12    0.44    0.42
   4   6  12    0.26    0.34
   4  -6  11    1.00    0.46
   4   6  11    1.55    0.51
   4  -6  10   -0.11    0.24
   4   6  10    0.09    0.29
   4  -6   9    0.70    0.35
   4   6   9   -0.02    0.30
   4  -6   8    6.81    0.73
   4  -6   8    7.16    0.83
   4   6   8    5.46    0.71
   4  -6   7    0.30    0.30
   4  -6   7   -0.08    0.21
   4   6   7    0.11    0.25
   4  -6   6    0.78    0.33
   4  -6   6    0.86    0.30
   4   6   6    0.99    0.32
   4  -6   5    2.21    0.42
   4  -6   5    1.28    0.32
   4   6   5    0.98    0.29
   4  -6   4    1.20    0.34
   4   6   4    1.36    0.30
   4   6   4    1.12    0.30
  -4  -6  -3   -0.01    0.07
   4  -6   3   -0.16    0.20
   4   6   3   -0.09    0.14
   4   6   3    0.35    0.18
   4  -6   2    7.49    0.58
  -4  -6  -2    7.66    0.38
   4   6   2    7.91    0.46
   4   6   2    8.06    0.55
   4  -6   1    0.23    0.21
  -4  -6  -1    0.11    0.11
   4   6   1    0.26    0.14
   4   6   1    0.11    0.14
   4  -6   0    0.13    0.19
  -4  -6   0    0.23    0.13
   4   6   0    0.18    0.16
   4   6   0    0.27    0.12
  -4  -6   1    2.00    0.30
   4  -6  -1    1.89    0.33
  -4   6   1    1.88    0.29
   4   6  -1    1.86    0.30
  -4  -6   2    2.51    0.34
  -4   6   2    1.54    0.28
  -4   6   2    1.81    0.30
   4   6  -2    1.52    0.29
  -4  -6   3   -0.19    0.13
  -4   6   3    0.25    0.16
  -4   6   3    0.28    0.16
   4   6  -3    0.21    0.23
  -4  -6   4    3.85    0.44
  -4  -6   4    4.15    0.28
  -4   6   4    4.29    0.46
  -4   6   4    4.13    0.41
  -4  -6   5    0.12    0.17
  -4  -6   5    0.25    0.14
  -4   6   5    0.08    0.14
  -4   6   5    0.26    0.20
  -4  -6   6    4.26    0.42
  -4  -6   6    5.30    0.57
  -4   6   6    4.92    0.55
  -4   6   6    4.76    0.45
  -4  -6   7    4.13    0.46
  -4  -6   7    3.58    0.48
  -4   6   7    4.77    0.59
  -4   6   7    4.34    0.43
  -4  -6   8    1.20    0.34
  -4   6   8    0.68    0.32
  -4   6   8    0.78    0.22
  -4  -6   9    9.36    0.68
  -4  -6   9    8.16    0.64
  -4   6   9    7.83    0.82
  -4  -6  10   -0.11    0.20
  -4  -6  10    0.12    0.26
  -4   6  10    0.36    0.33
  -4  -6  11    2.81    0.47
  -4  -6  11    2.31    0.50
  -4   6  11    2.22    0.53
  -4  -6  12    2.22    0.51
  -4  -6  12    1.38    0.35
  -4   6  12    2.27    0.55
  -4  -6  13    1.38    0.47
  -4   6  13    0.91    0.46
  -4  -6  14   -0.39    0.24
  -4   6  14    0.23    0.40
  -4   6  15    0.93    0.48
  -4  -6  16   -0.33    0.39
  -4   6  16   -0.10    0.38
  -4  -6  17    0.41    0.53
  -4   6  17   -0.07    0.47
   4  -8  14   -0.08    0.42
   4   8  14    0.27    0.46
   4  -8  13    0.24    0.44
   4   8  13    0.50    0.43
   4  -8  12    0.07    0.34
   4   8  12    0.17    0.35
   4  -8  11   -0.37    0.26
   4   8  11   -0.03    0.31
   4  -8  10    0.15    0.36
   4   8  10    0.31    0.32
   4  -8   9    0.18    0.33
   4  -8   9    1.10    0.39
   4   8   9   -0.07    0.24
   4  -8   8   -0.01    0.30
   4  -8   8    0.43    0.32
   4   8   8   -0.04    0.25
   4  -8   7    2.12    0.49
   4  -8   7    2.52    0.50
   4   8   7    1.45    0.40
   4  -8   6    0.05    0.28
   4  -8   6    0.07    0.23
   4   8   6    0.13    0.23
   4   8   6    0.05    0.22
   4  -8   5   -0.32    0.23
   4   8   5    0.52    0.26
   4   8   5    0.40    0.23
   4  -8   4    6.87    0.72
   4   8   4    6.89    0.54
   4   8   4    7.82    0.62
  -4  -8  -3    7.25    0.39
   4  -8   3    7.44    0.74
   4   8   3    7.33    0.58
   4   8   3    7.22    0.53
   4  -8   2    2.90    0.48
  -4  -8  -2    2.79    0.31
   4   8   2    2.16    0.36
   4   8   2    3.12    0.38
  -4  -8  -1    2.08    0.29
   4  -8   1    1.94    0.39
   4   8   1    1.86    0.27
   4   8   1    1.65    0.31
  -4  -8   0   36.04    1.46
   4  -8   0   44.93    1.67
   4   8   0   44.74    1.37
   4   8   0   42.97    1.60
  -4  -8   1   46.14    1.63
   4  -8  -1   45.75    1.71
  -4   8   1   44.19    1.64
   4   8  -1   45.96    1.42
   4   8  -1   44.15    1.68
   4  -8  -2    8.06    0.58
  -4  -8   2    8.02    0.54
  -4   8   2    7.94    0.54
   4   8  -2    9.06    0.66
  -4  -8   3    3.18    0.42
   4  -8  -3    3.60    0.46
   4   8  -3    3.39    0.49
  -4   8   3    3.52    0.30
  -4   8   3    3.72    0.45
  -4  -8   4    2.98    0.43
  -4   8   4    3.78    0.48
  -4   8   4    3.38    0.28
  -4  -8   5    8.41    0.62
  -4  -8   5    8.04    0.48
  -4   8   5    8.02    0.55
  -4   8   5    9.70    0.67
  -4   8   5    8.68    0.45
  -4  -8   6    3.48    0.52
  -4  -8   6    3.27    0.39
  -4   8   6    3.64    0.43
  -4   8   6    3.68    0.51
  -4   8   6    3.12    0.32
  -4  -8   7    4.43    0.48
  -4  -8   7    5.34    0.64
  -4   8   7    5.28    0.50
  -4   8   7    4.34    0.59
  -4  -8   8    0.09    0.17
  -4  -8   8   -0.12    0.17
  -4   8   8   -0.09    0.19
  -4   8   8   -0.40    0.16
  -4  -8   9    2.56    0.49
  -4   8   9    1.78    0.45
  -4  -8  10    0.17    0.26
  -4  -8  10    0.52    0.29
  -4   8  10   -0.11    0.28
  -4  -8  11    0.44    0.28
  -4  -8  11    0.34    0.30
  -4   8  11    0.30    0.30
  -4  -8  12    0.35    0.34
  -4  -8  12    1.00    0.34
  -4   8  12    0.37    0.38
  -4  -8  13    0.62    0.31
  -4  -8  13    0.15    0.35
  -4   8  13    0.51    0.42
  -4  -8  14   -0.14    0.33
  -4   8  14   -0.37    0.32
  -4  -8  15   -0.42    0.32
  -4   8  15    0.26    0.43
  -4  -8  16    0.61    0.48
  -4   8  16    0.64    0.53
   4 -10  13    0.17    0.39
   4  10  13    0.07    0.38
   4  10  13   -0.36    0.33
   4 -10  12   -0.25    0.35
   4  10  12    0.42    0.42
   4  10  12    0.50    0.40
   4 -10  11    5.20    0.85
   4  10  11    5.93    0.86
   4  10  11    5.59    0.83
   4 -10  10    0.13    0.34
   4 -10  10    0.59    0.36
   4  10  10    0.68    0.36
   4  10  10   -0.07    0.33
   4 -10   9    4.50    0.71
   4 -10   9    3.37    0.66
   4  10   9    4.56    0.71
   4  10   9    3.61    0.64
   4 -10   8    4.54    0.69
   4 -10   8    3.58    0.67
   4  10   8    2.75    0.55
   4  10   8    3.43    0.60
   4 -10   7    4.95    0.73
   4 -10   7    4.40    0.68
   4  10   7    4.19    0.64
   4  10   7    4.36    0.65
   4 -10   6    0.39    0.33
   4  10   6    0.38    0.30
   4  10   6    0.01    0.25
   4 -10   5    0.39    0.37
   4  10   5    0.80    0.33
   4  10   5    0.30    0.29
   4 -10   4    0.03    0.30
   4  10   4    0.24    0.22
   4  10   4    0.36    0.26
   4 -10   3   19.99    1.13
  -4 -10  -3   19.47    0.83
   4  10   3   20.51    1.07
   4  10   3   19.83    0.96
  -4 -10  -2    0.09    0.15
   4 -10   2   -0.23    0.23
   4  10   2    0.12    0.17
   4  10   2   -0.11    0.18
  -4 -10  -1    3.72    0.43
   4 -10   1    2.37    0.47
   4  10   1    3.13    0.45
   4  10   1    3.62    0.40
   4 -10   0    1.40    0.39
   4  10   0    2.23    0.39
   4  10   0    2.22    0.30
   4 -10  -1   34.06    1.50
  -4 -10   1   37.10    1.43
   4  10  -1   34.36    1.22
   4  10  -1   35.15    1.49
  -4  10   1   35.60    1.44
   4 -10  -2    1.13    0.35
  -4 -10   2    1.56    0.33
   4  10  -2    1.77    0.41
  -4  10   2    0.88    0.28
   4 -10  -3    4.20    0.53
  -4 -10   3    3.11    0.47
  -4  10   3    3.89    0.51
   4  10  -3    3.55    0.56
  -4  10   3    4.34    0.40
  -4 -10   4    0.05    0.19
   4 -10  -4   -0.16    0.20
  -4  10   4   -0.30    0.17
  -4  10   4   -0.12    0.15
   4 -10  -5    5.04    0.56
  -4 -10   5    3.96    0.56
  -4  10   5    4.85    0.38
  -4  10   5    5.22    0.63
   4 -10  -6    1.83    0.38
  -4 -10   6    2.93    0.39
  -4 -10   6    1.87    0.43
  -4  10   6    2.55    0.32
  -4  10   6    2.38    0.47
  -4 -10   7   12.76    0.74
  -4 -10   7   12.96    0.89
   4 -10  -7   13.28    0.76
  -4  10   7   13.79    0.94
  -4 -10   8    2.55    0.43
  -4 -10   8    1.69    0.44
  -4  10   8    2.77    0.54
  -4 -10   9    3.54    0.50
  -4 -10   9    2.88    0.55
  -4  10   9    4.40    0.70
  -4 -10  10   -0.03    0.19
  -4 -10  10    0.54    0.32
  -4  10  10    1.49    0.49
  -4 -10  11    1.80    0.47
  -4 -10  11    2.19    0.50
  -4  10  11    0.57    0.40
  -4 -10  12    1.33    0.42
  -4 -10  12    1.62    0.48
  -4  10  12    2.25    0.59
  -4 -10  13    1.65    0.51
  -4 -10  13    2.12    0.49
  -4  10  13    0.80    0.47
  -4 -10  14    0.06    0.38
  -4  10  14   -0.32    0.27
  -4 -10  15    0.28    0.46
  -4  10  15    0.90    0.54
  -4 -10  16   -0.31    0.40
  -4  10  16    0.39    0.50
   4 -12  13   -0.42    0.41
   4  12  13    0.52    0.52
   4  12  13   -0.13    0.33
   4 -12  12    1.26    0.57
   4  12  12    1.25    0.58
   4  12  12    0.56    0.42
   4 -12  11    0.80    0.48
   4  12  11    0.30    0.43
   4  12  11    0.36    0.38
   4 -12  10    6.12    0.90
   4 -12  10    5.52    0.83
   4  12  10    7.30    0.97
   4  12  10    5.56    0.80
   4 -12   9   -0.18    0.30
   4 -12   9    0.21    0.34
   4  12   9   -0.16    0.25
   4  12   9    0.44    0.36
   4 -12   8    0.05    0.31
   4 -12   8    0.27    0.37
   4  12   8    0.35    0.32
   4  12   8   -0.24    0.24
   4 -12   7   11.56    1.13
   4  12   7   11.40    0.92
   4  12   7   11.79    0.90
   4 -12   6    1.67    0.51
   4  12   6    1.69    0.45
   4  12   6    2.61    0.51
   4 -12   5    9.37    0.98
   4  12   5    7.93    0.83
   4  12   5    7.96    0.80
   4 -12   4    3.08    0.61
   4  12   4    4.42    0.62
   4  12   4    4.89    0.60
   4 -12   3    4.28    0.70
  -4 -12  -3    3.64    0.43
   4  12   3    3.17    0.53
   4  12   3    3.45    0.49
  -4 -12  -2    0.56    0.24
   4 -12   2    0.64    0.39
   4  12   2    0.87    0.31
   4  12   2    0.66    0.28
  -4 -12  -1    9.48    0.64
   4 -12   1   11.35    1.02
   4  12   1    9.64    0.61
   4  12   1    9.03    0.73
  -4 -12   0   -0.01    0.09
   4 -12   0   -0.27    0.26
   4  12   0    0.10    0.25
   4  12   0   -0.02    0.16
  -4 -12   1    4.33    0.54
   4 -12  -1    4.05    0.61
   4  12  -1    3.72    0.41
  -4  12   1    3.28    0.51
   4  12  -1    4.31    0.61
  -4 -12   2    0.28    0.23
   4 -12  -2    0.65    0.34
   4  12  -2    0.82    0.41
  -4  12   2    0.67    0.28
   4 -12  -3    0.30    0.32
  -4 -12   3    0.29    0.26
  -4  12   3    0.09    0.22
  -4  12   3    0.21    0.26
   4  12  -3    0.27    0.41
  -4 -12   4    0.33    0.27
   4 -12  -4    0.52    0.33
  -4  12   4    0.82    0.33
   4 -12  -5   18.47    1.01
  -4 -12   5   18.34    1.08
  -4  12   5   17.74    1.07
  -4 -12   6   -0.31    0.20
   4 -12  -6    0.02    0.29
  -4  12   6   -0.10    0.26
  -4 -12   7    4.38    0.67
   4 -12  -7    5.83    0.65
  -4 -12   7    4.69    0.56
  -4  12   7    6.01    0.79
  -4 -12   8    7.11    0.70
  -4 -12   8    8.25    0.92
  -4  12   8    6.73    0.87
  -4 -12   9    0.92    0.38
  -4 -12   9    0.34    0.29
  -4  12   9    1.28    0.47
  -4 -12  10    0.70    0.28
  -4 -12  10    0.80    0.37
  -4  12  10    1.55    0.50
  -4 -12  11    0.02    0.25
  -4 -12  11   -0.15    0.24
  -4  12  11   -0.45    0.30
  -4 -12  12    0.85    0.38
  -4 -12  12    0.12    0.34
  -4  12  12    0.40    0.37
  -4 -12  13    1.04    0.38
  -4  12  13    0.50    0.42
  -4 -12  14    0.38    0.33
  -4  12  14    0.34    0.40
  -4  12  15    0.40    0.46
   4 -14  12    0.29    0.44
   4  14  12    0.73    0.50
   4  14  12   -0.35    0.31
   4 -14  11    1.41    0.59
   4 -14  11    0.56    0.40
   4  14  11    0.05    0.35
   4  14  11    0.39    0.41
   4 -14  10    0.26    0.40
   4 -14  10    0.08    0.35
   4  14  10    0.12    0.38
   4  14  10   -0.03    0.30
   4 -14   9    0.21    0.40
   4 -14   9    1.19    0.48
   4  14   9    0.06    0.37
   4  14   9    0.23    0.35
   4 -14   8    0.22    0.33
   4 -14   8   -0.07    0.34
   4  14   8    0.20    0.34
   4  14   8   -0.08    0.27
   4 -14   7    4.59    0.76
   4  14   7    5.93    0.79
   4  14   7    5.62    0.78
   4 -14   6    1.56    0.54
   4  14   6    1.03    0.41
   4  14   6    1.60    0.45
   4 -14   5   -0.11    0.32
   4  14   5    0.22    0.31
   4  14   5    0.29    0.30
   4 -14   4    8.00    0.97
   4  14   4    6.45    0.78
   4  14   4    7.83    0.81
   4 -14   3    9.08    1.01
   4  14   3   10.92    0.87
   4  14   3   10.25    0.76
   4 -14   2    3.16    0.61
  -4 -14  -2    2.40    0.43
   4  14   2    2.79    0.46
   4  14   2    1.84    0.47
  -4 -14  -1    1.14    0.34
   4 -14   1    1.89    0.52
   4  14   1    1.40    0.34
   4  14   1    1.85    0.44
  -4 -14   0   -0.20    0.20
   4 -14   0   -0.30    0.34
   4  14   0    0.44    0.36
   4  14   0    0.01    0.20
  -4 -14   1    9.38    0.85
   4 -14  -1    8.56    0.90
   4  14  -1    7.27    0.84
  -4 -14   2    6.46    0.73
   4 -14  -2    6.98    0.82
  -4  14   2    6.78    0.77
   4  14  -2    6.27    0.80
   4 -14  -3    5.73    0.73
  -4 -14   3    5.95    0.72
   4  14  -3    5.14    0.78
  -4  14   3    5.77    0.72
  -4 -14   4    0.42    0.30
   4 -14  -4    0.52    0.38
  -4  14   4    0.44    0.31
   4 -14  -5   29.38    1.42
  -4 -14   5   28.08    1.49
  -4  14   5   30.90    1.52
   4 -14  -6    0.72    0.38
  -4 -14   6    0.97    0.42
  -4  14   6    0.26    0.31
  -4 -14   7    6.16    0.82
  -4  14   7    7.29    0.89
  -4 -14   8    0.13    0.27
  -4  14   8    0.18    0.35
  -4 -14   9    5.91    0.83
  -4  14   9    4.83    0.82
  -4 -14  10    0.56    0.39
  -4  14  10    1.80    0.55
  -4 -14  11    0.18    0.30
  -4  14  11   -0.03    0.37
  -4 -14  12    1.39    0.48
  -4  14  12    2.09    0.65
  -4 -14  13    0.49    0.34
  -4  14  13    1.05    0.55
  -4 -14  14    0.70    0.36
  -4  14  14   -0.35    0.39
   4 -16  11    1.12    0.51
   4 -16  11    0.97    0.54
   4  16  11    0.11    0.44
   4 -16  10    0.15    0.41
   4 -16  10    0.37    0.40
   4  16  10    0.32    0.41
   4  16  10   -0.25    0.33
   4 -16   9    0.26    0.43
   4 -16   9    0.47    0.42
   4  16   9    0.18    0.39
   4  16   9    0.43    0.37
   4 -16   8   -0.03    0.39
   4 -16   8    0.47    0.38
   4  16   8    0.11    0.34
   4  16   8    0.50    0.42
   4 -16   7    0.72    0.45
   4  16   7   -0.10    0.32
   4  16   7    0.44    0.36
   4 -16   6    0.15    0.40
   4  16   6   -0.40    0.28
   4  16   6    0.50    0.35
   4 -16   5    1.16    0.49
   4  16   5    1.04    0.43
   4  16   5    1.21    0.44
   4 -16   4    0.75    0.46
   4  16   4    0.15    0.33
   4  16   4   -0.02    0.29
   4 -16   3    0.00    0.36
   4  16   3    0.68    0.37
   4  16   3    0.29    0.30
   4 -16   2    0.05    0.37
   4  16   2   -0.17    0.33
  -4 -16  -1    0.12    0.25
   4 -16   1    0.73    0.43
   4  16   1    0.21    0.37
  -4 -16   0    2.40    0.46
   4 -16   0    1.50    0.52
   4  16   0    1.71    0.54
   4 -16  -1    3.38    0.64
  -4 -16   1    3.29    0.57
   4  16  -1    3.39    0.65
   4 -16  -2    0.24    0.39
  -4 -16   2   -0.11    0.26
  -4  16   2   -0.16    0.25
   4  16  -2   -0.24    0.47
  -4 -16   3    0.91    0.37
   4 -16  -3    0.53    0.40
  -4  16   3    0.61    0.34
  -4 -16   4    0.36    0.31
   4 -16  -4    0.52    0.39
  -4  16   4   -0.13    0.27
  -4 -16   5    0.61    0.35
   4 -16  -5    0.07    0.22
  -4  16   5    0.81    0.38
  -4 -16   6    0.84    0.40
  -4  16   6    0.98    0.42
  -4 -16   7    0.05    0.30
  -4  16   7   -0.02    0.32
  -4 -16   8    0.18    0.31
  -4  16   8    1.47    0.54
  -4 -16   9    1.27    0.47
  -4  16   9    1.71    0.53
  -4 -16  10   -0.15    0.28
  -4  16  10    0.55    0.47
  -4 -16  11    0.23    0.35
  -4  16  11   -0.04    0.38
  -4 -16  12   -0.19    0.25
  -4  16  12    0.01    0.39
  -4  16  13    0.62    0.49
   4 -18  10    0.38    0.48
   4 -18   9    0.02    0.42
   4 -18   9    1.20    0.55
   4 -18   8   -0.14    0.36
   4  18   8    0.37    0.41
   4 -18   7    0.56    0.45
   4  18   7   -0.17    0.35
   4 -18   6    0.54    0.45
   4  18   6    0.72    0.42
   4 -18   5    0.62    0.47
   4  18   5    1.34    0.48
   4 -18   4    1.64    0.54
   4  18   4    1.33    0.49
   4 -18   3    0.59    0.41
   4  18   3    1.50    0.52
   4 -18   2    0.88    0.49
   4  18   2    0.66    0.39
   4 -18   1    0.47    0.46
  -4 -18  -1    0.46    0.31
   4  18   1    0.93    0.50
   4 -18   0    0.07    0.39
  -4 -18   0   -0.10    0.23
   4  18   0    0.10    0.40
  -4 -18   1    0.91    0.38
   4 -18  -1    1.02    0.48
   4  18  -1    0.69    0.54
  -4 -18   2    1.31    0.44
   4 -18  -2    1.10    0.48
   4  18  -2    0.78    0.59
  -4  18   2    1.41    0.46
   4 -18  -3    0.44    0.40
  -4 -18   3   -0.05    0.23
  -4  18   3   -0.02    0.28
   4 -18  -4   -0.32    0.33
  -4 -18   4   -0.13    0.25
  -4  18   4    0.05    0.31
   4 -18  -5    0.09    0.19
  -4 -18   5    0.45    0.37
  -4  18   5    0.02    0.32
  -4 -18   6    0.46    0.38
  -4  18   6    0.55    0.40
  -4 -18   7    0.60    0.38
  -4  18   7    0.60    0.44
  -4 -18   8    1.42    0.50
  -4  18   8    1.36    0.53
  -4 -18   9    0.33    0.36
  -4  18   9    0.26    0.38
  -4 -18  10    0.18    0.36
  -4  18  10   -0.45    0.37
  -4 -18  11   -0.54    0.22
  -4  18  11    0.04    0.41
  -4  18  12    0.26    0.48
   4 -20   9    0.39    0.51
   4 -20   7   -0.03    0.41
   4 -20   6   -0.21    0.40
   4 -20   5   -0.10    0.37
   4  20   5    0.00    0.38
   4 -20   4    0.01    0.41
   4  20   4    0.36    0.44
   4 -20   3    1.20    0.57
   4  20   3    0.78    0.50
   4 -20   2    0.48    0.45
   4  20   2    0.34    0.49
   4 -20   1    0.25    0.42
   4  20   1    0.43    0.50
   4 -20   0    0.39    0.45
  -4 -20   0    0.46    0.31
   4  20   0    0.11    0.48
   4 -20  -1    2.34    0.62
  -4 -20   1    3.16    0.60
   4  20  -1    2.14    0.72
   4 -20  -2    0.74    0.46
  -4 -20   2    0.05    0.28
   4 -20  -3    0.10    0.39
  -4 -20   3    0.34    0.36
  -4  20   3   -0.03    0.31
   4 -20  -4    0.05    0.40
  -4 -20   4   -0.20    0.28
  -4  20   4   -0.11    0.31
  -4 -20   5    1.24    0.49
  -4  20   5    2.05    0.60
  -4 -20   6    0.21    0.37
  -4  20   6   -0.35    0.30
  -4 -20   7    0.34    0.34
  -4  20   7   -0.10    0.36
  -4 -20   8   -0.19    0.29
  -4  20   8    0.28    0.38
  -4 -20   9    0.32    0.34
  -4  20   9    0.61    0.45
  -4  20  10   -0.16    0.40
  -4  20  11   -0.03    0.48
   4 -22   4    0.48    0.49
   4 -22   3    0.04    0.42
   4  22   3    0.06    0.49
   4 -22   2    0.39    0.45
   4  22   2   -0.72    0.44
   4 -22   1    0.41    0.46
   4  22   1   -1.00    0.42
   4 -22   0    0.51    0.47
   4  22   0    1.34    0.69
  -4 -22   1    0.28    0.35
   4 -22  -1    0.28    0.42
   4  22  -1   -0.74    0.51
  -4 -22   2    0.33    0.35
   4 -22  -2    0.62    0.49
   4 -22  -3   -0.16    0.41
  -4 -22   3    0.07    0.31
  -4 -22   4    1.34    0.47
  -4  22   4    1.18    0.50
  -4 -22   5    0.22    0.35
  -4  22   5   -0.09    0.32
  -4 -22   6   -0.02    0.36
  -4  22   6    0.25    0.39
  -4 -22   7    0.39    0.44
  -4  22   7    0.36    0.45
  -4  22   8    1.97    0.65
  -4  22   9    0.21    0.47
   4 -24   1    0.39    0.51
   4 -24   0    0.02    0.45
   4  24   0    0.29    0.69
   4 -24  -1    2.61    0.74
   4 -24  -2    0.49    0.50
  -4 -24   2    0.53    0.42
  -4 -24   3    0.40    0.44
  -4 -24   4    0.14    0.41
  -4  24   5    0.76    0.45
  -4  24   6    0.18    0.42
   5  -1  14    1.03    0.49
   5   1  14    0.98    0.49
   5  -1  13   -0.11    0.35
   5   1  13    0.56    0.41
   5  -1  12    2.40    0.63
   5   1  12    2.44    0.60
   5  -1  11    1.76    0.52
   5   1  11    0.77    0.41
   5  -1  10    0.34    0.33
   5   1  10    1.12    0.43
   5  -1   9   15.01    1.05
   5   1   9   14.64    1.02
   5  -1   8    1.15    0.38
   5   1   8    0.59    0.34
   5  -1   7   16.29    1.00
   5   1   7   17.25    1.00
   5  -1   6   13.39    0.82
   5  -1   6   12.43    0.66
   5   1   6   13.67    0.84
   5  -1   5   12.76    0.65
   5  -1   5   13.30    0.79
   5   1   5   13.36    0.78
   5   1   5   13.17    0.58
   5  -1   4   10.05    0.56
   5  -1   4   10.99    0.66
   5   1   4    9.96    0.50
   5   1   4   11.50    0.65
   5  -1   3   37.27    1.33
   5  -1   3   38.26    1.43
  -5  -1  -3   39.41    1.26
   5   1   3   39.36    1.41
  -5  -1  -2    3.97    0.28
   5  -1   2    4.77    0.37
  -5   1  -2    4.41    0.33
   5   1   2    4.38    0.34
  -5  -1  -1    0.35    0.13
   5   1   1    0.38    0.14
  -5   1   0  488.93   13.55
   5   1   0  487.29   13.56
   5  -1  -1    1.41    0.18
  -5  -1   1    1.52    0.22
  -5   1   1    1.69    0.23
   5   1  -1    1.68    0.21
  -5  -1   2   17.94    0.74
  -5   1   2   17.19    0.74
  -5   1   2   18.03    0.66
   5   1  -2   17.27    0.69
  -5  -1   3    4.87    0.34
  -5   1   3    4.15    0.33
   5   1  -3    4.04    0.36
  -5   1   3    4.36    0.29
  -5  -1   4    2.33    0.30
  -5  -1   4    3.02    0.28
  -5   1   4    1.82    0.26
  -5  -1   5    5.06    0.39
  -5  -1   5    5.03    0.35
  -5   1   5    4.69    0.43
  -5   1   5    4.03    0.41
  -5  -1   6    0.07    0.13
  -5  -1   6   -0.04    0.05
  -5   1   6    0.27    0.15
  -5   1   6   -0.01    0.15
  -5  -1   7    0.39    0.18
  -5  -1   7    0.46    0.21
  -5   1   7    0.13    0.19
  -5   1   7    0.11    0.13
  -5  -1   8    4.69    0.50
  -5  -1   8    5.27    0.55
  -5   1   8    6.08    0.60
  -5   1   8    5.60    0.52
  -5  -1   9    0.08    0.22
  -5  -1   9    0.26    0.19
  -5   1   9    0.18    0.24
  -5   1   9    0.28    0.17
  -5  -1  10    2.18    0.38
  -5  -1  10    1.12    0.37
  -5   1  10    0.81    0.32
  -5   1  10    1.63    0.32
  -5  -1  11    4.38    0.53
  -5  -1  11    3.90    0.63
  -5   1  11    4.15    0.63
  -5   1  11    4.01    0.49
  -5  -1  12   12.28    1.10
  -5   1  12   10.49    1.02
  -5  -1  13    0.01    0.31
  -5   1  13   -0.15    0.28
  -5  -1  14    0.61    0.42
  -5   1  14    0.42    0.38
  -5  -1  15   -0.17    0.32
  -5   1  15    0.35    0.42
  -5  -1  16   -0.37    0.31
  -5   1  16    0.24    0.43
  -5  -1  17    0.63    0.51
  -5   1  17    0.12    0.49
   5  -3  14    1.67    0.59
   5   3  14    1.45    0.58
   5  -3  13    0.55    0.44
   5   3  13    0.41    0.42
   5  -3  12   -0.27    0.27
   5   3  12   -0.41    0.27
   5  -3  11    3.62    0.69
   5   3  11    1.44    0.49
   5  -3  10    0.07    0.27
   5   3  10    0.37    0.30
   5  -3   9    0.10    0.25
   5   3   9    0.68    0.35
   5  -3   8   22.33    1.25
   5   3   8   22.57    1.24
   5  -3   7    2.65    0.42
   5  -3   7    2.53    0.48
   5   3   7    2.27    0.43
   5  -3   6    7.31    0.57
   5  -3   6    6.97    0.73
   5   3   6    6.72    0.67
   5  -3   5    0.06    0.18
   5  -3   5    0.48    0.25
   5   3   5    0.65    0.26
   5  -3   4    0.06    0.21
   5  -3   4    0.39    0.21
   5   3   4    0.33    0.13
   5   3   4    0.26    0.18
  -5  -3  -3    3.80    0.25
   5  -3   3    3.95    0.44
   5   3   3    4.49    0.44
  -5  -3  -2   99.22    2.84
   5  -3   2   96.01    3.02
   5   3   2   96.48    2.91
  -5  -3  -1    6.65    0.36
  -5   3  -1    6.33    0.43
   5   3   1    6.66    0.37
   5   3   1    6.45    0.46
  -5  -3   0   54.50    1.71
   5   3   0   53.57    1.79
   5   3   0   54.11    1.59
  -5   3   0   53.18    1.79
  -5  -3   1    8.59    0.47
   5   3  -1    9.14    0.51
  -5   3   1    9.24    0.50
  -5  -3   2   35.06    1.25
  -5   3   2   34.62    1.20
  -5   3   2   34.73    1.26
   5   3  -2   35.63    1.25
  -5  -3   3    0.30    0.14
   5   3  -3    0.42    0.21
  -5   3   3    0.37    0.16
  -5   3   3    0.73    0.19
  -5  -3   4    5.48    0.30
  -5  -3   4    5.64    0.41
  -5   3   4    5.50    0.40
  -5   3   4    5.73    0.40
  -5  -3   5    0.43    0.14
  -5  -3   5    0.18    0.15
  -5   3   5    0.42    0.18
  -5   3   5    0.66    0.19
  -5  -3   6    6.30    0.42
  -5  -3   6    6.40    0.48
  -5   3   6    6.89    0.50
  -5   3   6    6.19    0.43
  -5  -3   7    0.12    0.13
  -5  -3   7   -0.12    0.12
  -5   3   7   -0.04    0.13
  -5   3   7    0.33    0.21
  -5  -3   8    4.98    0.54
  -5   3   8    5.62    0.51
  -5   3   8    4.73    0.56
  -5  -3   9    2.62    0.41
  -5  -3   9    2.31    0.41
  -5   3   9    1.73    0.30
  -5   3   9    2.76    0.48
  -5  -3  10    1.71    0.36
  -5  -3  10    1.53    0.39
  -5   3  10    1.65    0.30
  -5   3  10    1.77    0.44
  -5  -3  11    1.75    0.42
  -5  -3  11    1.32    0.33
  -5   3  11    1.39    0.43
  -5  -3  12    0.15    0.30
  -5  -3  12    0.19    0.20
  -5   3  12   -0.23    0.32
  -5  -3  13    0.43    0.39
  -5   3  13    0.10    0.37
  -5  -3  14    0.55    0.42
  -5   3  14    0.60    0.40
  -5  -3  15    0.35    0.41
  -5   3  15    0.76    0.47
  -5  -3  16    0.85    0.48
  -5   3  16    0.71    0.51
  -5  -3  17   -0.11    0.48
  -5   3  17    0.41    0.50
   5  -5  14   -0.47    0.32
   5   5  14   -0.04    0.40
   5  -5  13    0.64    0.49
   5   5  13    1.23    0.54
   5  -5  12   -0.17    0.35
   5   5  12   -0.22    0.31
   5  -5  11    1.16    0.47
   5   5  11    0.66    0.38
   5  -5  10    0.24    0.33
   5   5  10    0.18    0.30
   5  -5   9    0.89    0.38
   5   5   9    1.92    0.49
   5  -5   8    4.10    0.63
   5  -5   8    3.85    0.55
   5   5   8    3.11    0.56
   5  -5   7    3.81    0.54
   5  -5   7    4.17    0.60
   5   5   7    4.60    0.61
   5  -5   6    0.17    0.22
   5  -5   6    0.18    0.26
   5   5   6    0.35    0.26
   5  -5   5    0.45    0.28
   5  -5   5    0.37    0.22
   5   5   5    0.44    0.24
   5  -5   4    0.19    0.24
  -5  -5  -4    0.10    0.07
   5   5   4    0.14    0.19
   5  -5   3   16.94    0.88
  -5  -5  -3   17.39    0.62
   5   5   3   17.53    0.81
   5   5   3   16.89    0.91
  -5  -5  -2    6.03    0.33
   5  -5   2    6.42    0.58
   5   5   2    5.50    0.39
   5   5   2    6.67    0.50
   5  -5   1    1.39    0.31
  -5  -5  -1    1.03    0.18
   5   5   1    0.79    0.18
   5   5   1    0.98    0.23
   5  -5   0    0.13    0.19
  -5  -5   0    0.33    0.13
   5   5   0    0.05    0.14
   5   5   0    0.34    0.12
  -5  -5   1    0.18    0.12
  -5   5   1    0.17    0.18
  -5   5   1   -0.07    0.10
   5   5  -1    0.10    0.16
  -5  -5   2    0.08    0.13
  -5   5   2    0.22    0.15
   5   5  -2   -0.02    0.15
  -5   5   2    0.20    0.16
  -5  -5   3    3.67    0.41
  -5   5   3    3.61    0.39
  -5   5   3    4.20    0.43
   5   5  -3    3.60    0.43
  -5  -5   4  102.11    2.86
  -5  -5   4   97.79    3.15
  -5   5   4  100.16    3.11
  -5   5   4  100.68    3.11
   5   5  -4  100.86    3.24
  -5  -5   5   12.95    0.56
  -5  -5   5   11.70    0.68
  -5   5   5   13.29    0.71
  -5   5   5   12.02    0.65
  -5  -5   6    0.47    0.18
  -5  -5   6    0.61    0.23
  -5   5   6    0.47    0.24
  -5   5   6    0.39    0.19
  -5  -5   7    0.42    0.20
  -5  -5   7    0.42    0.19
  -5   5   7    0.37    0.18
  -5   5   7    0.20    0.24
  -5  -5   8   12.82    0.79
  -5  -5   8   13.87    0.75
  -5   5   8   13.08    0.69
  -5   5   8   12.46    0.81
  -5  -5   9    1.54    0.34
  -5   5   9    1.42    0.41
  -5   5   9    1.17    0.26
  -5  -5  10   -0.08    0.22
  -5  -5  10    0.21    0.20
  -5   5  10   -0.33    0.23
  -5  -5  11    0.87    0.35
  -5  -5  11    1.27    0.35
  -5   5  11    0.67    0.36
  -5  -5  12    0.29    0.24
  -5  -5  12   -0.16    0.26
  -5   5  12    0.71    0.41
  -5  -5  13    0.49    0.39
  -5   5  13    0.79    0.40
  -5  -5  14    0.27    0.35
  -5   5  14   -0.15    0.29
  -5  -5  15   -0.30    0.34
  -5   5  15   -0.22    0.35
  -5  -5  16    0.55    0.49
  -5   5  16    0.83    0.49
  -5  -5  17   -0.38    0.39
  -5   5  17    0.71    0.52
   5  -7  14    0.95    0.59
   5   7  14    1.02    0.55
   5  -7  13    0.12    0.38
   5   7  13   -0.28    0.37
   5  -7  12   -0.39    0.33
   5   7  12   -0.24    0.31
   5  -7  11    0.16    0.34
   5   7  11    0.20    0.35
   5  -7  10    0.99    0.43
   5   7  10    0.96    0.40
   5  -7   9    0.04    0.25
   5   7   9    0.38    0.34
   5  -7   8    1.10    0.41
   5  -7   8    0.72    0.38
   5   7   8    1.41    0.42
   5  -7   7    0.94    0.37
   5  -7   7    0.72    0.36
   5   7   7    0.73    0.33
   5  -7   6    4.61    0.62
   5  -7   6    5.11    0.66
   5   7   6    4.91    0.61
   5  -7   5    1.54    0.41
   5   7   5    0.98    0.35
   5   7   5    0.99    0.30
   5  -7   4    0.43    0.31
   5   7   4    0.26    0.21
   5   7   4    0.71    0.25
   5  -7   3    0.01    0.22
  -5  -7  -3    0.07    0.08
   5   7   3   -0.08    0.16
   5   7   3   -0.15    0.14
   5  -7   2   22.88    1.11
  -5  -7  -2   22.12    0.85
   5   7   2   23.35    1.09
   5   7   2   22.94    0.93
   5  -7   1   15.19    0.85
  -5  -7  -1   15.03    0.68
   5   7   1   15.67    0.66
   5   7   1   14.79    0.81
  -5  -7   0    0.75    0.20
   5  -7   0    1.39    0.33
   5   7   0    1.22    0.19
   5   7   0    0.66    0.24
   5  -7  -1   33.18    1.35
  -5  -7   1   32.91    1.26
   5   7  -1   32.92    1.34
  -5   7   1   33.69    1.31
   5   7  -1   33.70    1.04
  -5  -7   2    0.54    0.19
  -5   7   2    0.30    0.19
   5   7  -2    0.28    0.20
  -5   7   2    0.42    0.20
  -5  -7   3    0.21    0.17
  -5   7   3    0.06    0.18
   5   7  -3    0.33    0.24
  -5   7   3    0.15    0.16
  -5  -7   4   10.98    0.49
  -5  -7   4   12.28    0.71
  -5   7   4   11.48    0.68
  -5   7   4   11.67    0.67
   5   7  -4   11.41    0.83
  -5  -7   5    0.43    0.21
  -5  -7   5    0.56    0.17
  -5   7   5    0.62    0.23
  -5   7   5    0.49    0.23
  -5  -7   6    0.38    0.22
  -5  -7   6    0.38    0.18
  -5   7   6    0.66    0.28
  -5   7   6    0.30    0.20
  -5  -7   7    1.47    0.29
  -5  -7   7    1.70    0.36
  -5   7   7    2.05    0.34
  -5   7   7    1.72    0.38
  -5  -7   8    2.39    0.39
  -5  -7   8    3.11    0.50
  -5   7   8    2.94    0.40
  -5   7   8    3.47    0.54
  -5  -7   9    0.62    0.28
  -5  -7   9    0.86    0.30
  -5   7   9    0.93    0.38
  -5   7   9    0.79    0.28
  -5  -7  10    0.08    0.18
  -5  -7  10    0.32    0.24
  -5   7  10    0.06    0.29
  -5  -7  11    0.66    0.32
  -5  -7  11    0.88    0.33
  -5   7  11    0.57    0.40
  -5  -7  12    2.74    0.53
  -5  -7  12    1.83    0.47
  -5   7  12    1.60    0.50
  -5  -7  13    0.15    0.22
  -5  -7  13   -0.37    0.25
  -5   7  13   -0.04    0.35
  -5  -7  14   -0.17    0.31
  -5   7  14    0.13    0.37
  -5  -7  15    0.54    0.44
  -5   7  15   -0.39    0.32
  -5  -7  16   -0.13    0.37
  -5   7  16    0.67    0.49
  -5  -7  17   -0.36    0.46
  -5   7  17    0.30    0.50
   5  -9  13    0.42    0.47
   5   9  13    0.46    0.43
   5  -9  12   -0.13    0.36
   5   9  12    0.23    0.39
   5  -9  11    1.68    0.54
   5   9  11    2.11    0.57
   5  -9  10   -0.09    0.29
   5   9  10    0.21    0.34
   5  -9   9    1.48    0.51
   5  -9   9    1.88    0.51
   5   9   9    1.75    0.49
   5   9   9    2.10    0.55
   5  -9   8   -0.27    0.24
   5  -9   8    0.02    0.33
   5   9   8   -0.35    0.21
   5   9   8    0.77    0.36
   5  -9   7    3.37    0.59
   5  -9   7    3.72    0.63
   5   9   7    3.57    0.58
   5   9   7    3.32    0.55
   5  -9   6    1.19    0.43
   5   9   6    0.33    0.29
   5   9   6    0.56    0.30
   5  -9   5    2.40    0.50
   5   9   5    2.21    0.41
   5   9   5    2.33    0.45
   5  -9   4    3.79    0.58
   5   9   4    3.26    0.51
   5   9   4    4.74    0.55
  -5  -9  -3   28.21    1.03
   5  -9   3   29.65    1.39
   5   9   3   26.30    1.30
   5   9   3   27.97    1.17
  -5  -9  -2   11.86    0.61
   5  -9   2   12.55    0.85
   5   9   2   14.05    0.70
   5   9   2   13.70    0.84
   5  -9   1   15.26    0.91
  -5  -9  -1   13.89    0.70
   5   9   1   14.14    0.84
   5   9   1   13.96    0.67
  -5  -9   0    4.66    0.48
   5  -9   0    3.75    0.54
   5   9   0    2.83    0.43
   5   9   0    3.59    0.34
   5  -9  -1    6.89    0.69
  -5  -9   1    6.51    0.51
   5   9  -1    5.90    0.61
   5   9  -1    6.24    0.36
  -5   9   1    7.26    0.65
  -5  -9   2    4.51    0.51
   5  -9  -2    4.89    0.56
   5   9  -2    3.33    0.48
  -5   9   2    5.45    0.57
  -5  -9   3    2.09    0.38
   5  -9  -3    2.02    0.40
  -5   9   3    2.36    0.40
   5   9  -3    1.57    0.41
   5  -9  -4    5.19    0.58
  -5  -9   4    5.46    0.61
   5   9  -4    4.50    0.61
  -5   9   4    4.81    0.35
  -5   9   4    6.54    0.65
  -5  -9   5    0.24    0.23
  -5  -9   5    0.36    0.17
  -5   9   5    0.28    0.22
  -5   9   5    0.20    0.22
  -5   9   5    0.56    0.16
  -5  -9   6   -0.07    0.16
  -5  -9   6    0.13    0.15
  -5   9   6    0.01    0.21
  -5   9   6    0.07    0.24
  -5  -9   7   -0.04    0.15
  -5  -9   7   -0.23    0.15
  -5   9   7   -0.35    0.21
  -5   9   7   -0.09    0.21
  -5  -9   8    5.18    0.54
  -5  -9   8    4.12    0.61
  -5   9   8    5.06    0.54
  -5   9   8    5.95    0.75
  -5  -9   9    2.41    0.42
  -5  -9   9    1.84    0.44
  -5   9   9    1.48    0.43
  -5  -9  10    0.43    0.27
  -5  -9  10    0.46    0.28
  -5   9  10    0.08    0.35
  -5  -9  11    2.23    0.51
  -5   9  11    1.61    0.49
  -5  -9  12    0.08    0.23
  -5  -9  12    0.80    0.36
  -5   9  12   -0.23    0.29
  -5  -9  13    0.50    0.38
  -5  -9  13   -0.06    0.21
  -5   9  13    0.25    0.34
  -5  -9  14    0.28    0.26
  -5  -9  14    0.30    0.38
  -5   9  14   -0.59    0.28
  -5  -9  15    0.06    0.41
  -5   9  15    0.30    0.47
  -5   9  16   -0.37    0.43
   5 -11  13   -0.11    0.40
   5  11  13    0.45    0.44
   5  11  13    0.55    0.49
   5 -11  12    0.76    0.49
   5  11  12    1.08    0.47
   5  11  12    1.04    0.56
   5 -11  11    1.01    0.50
   5  11  11    0.95    0.42
   5  11  11   -0.06    0.39
   5 -11  10    2.96    0.69
   5  11  10    1.75    0.56
   5  11  10    2.91    0.61
   5 -11   9    0.24    0.35
   5 -11   9    0.52    0.39
   5  11   9    0.10    0.30
   5  11   9    0.25    0.35
   5 -11   8    0.63    0.40
   5 -11   8    0.62    0.41
   5  11   8    0.46    0.32
   5  11   8    1.39    0.45
   5 -11   7    0.58    0.37
   5 -11   7    0.22    0.29
   5  11   7    0.39    0.31
   5  11   7    0.85    0.39
   5 -11   6    3.34    0.63
   5  11   6    3.28    0.58
   5  11   6    2.50    0.53
   5 -11   5   -0.32    0.32
   5  11   5    0.28    0.27
   5  11   5    0.09    0.23
   5 -11   4    2.58    0.56
   5  11   4    2.68    0.46
   5  11   4    2.78    0.51
   5 -11   3    0.47    0.38
   5  11   3    0.40    0.28
   5  11   3    0.32    0.26
   5 -11   2    2.36    0.51
  -5 -11  -2    2.95    0.38
   5  11   2    2.20    0.44
   5  11   2    1.99    0.37
  -5 -11  -1   14.69    0.78
   5 -11   1   14.07    0.98
   5  11   1   14.31    0.91
   5  11   1   14.84    0.74
   5 -11   0    9.92    0.91
  -5 -11   0    8.00    0.58
   5  11   0    9.45    0.53
   5  11   0    8.21    0.77
   5 -11  -1   11.08    0.82
  -5 -11   1   10.99    0.72
   5  11  -1   11.14    0.56
   5  11  -1   11.62    0.83
  -5 -11   2    0.16    0.22
   5 -11  -2    0.06    0.27
   5  11  -2    0.84    0.38
  -5  11   2    0.54    0.27
   5 -11  -3   -0.05    0.24
  -5 -11   3   -0.06    0.20
  -5  11   3    0.04    0.22
   5  11  -3    0.21    0.36
  -5 -11   4    9.00    0.69
   5 -11  -4    7.43    0.73
   5  11  -4    9.29    0.92
  -5  11   4    8.67    0.81
   5 -11  -5    0.30    0.24
  -5 -11   5    1.75    0.42
  -5  11   5    1.27    0.40
  -5 -11   6    0.99    0.35
   5 -11  -6    1.01    0.36
  -5 -11   6    1.40    0.29
  -5  11   6    0.86    0.37
  -5 -11   7   -0.21    0.20
  -5 -11   7    0.65    0.24
   5 -11  -7   -0.23    0.23
  -5  11   7    0.10    0.28
  -5 -11   8    2.98    0.45
  -5 -11   8    3.00    0.55
  -5  11   8    3.06    0.57
  -5 -11   9    0.78    0.36
  -5 -11   9    1.06    0.32
  -5  11   9    0.86    0.44
  -5 -11  10    1.10    0.41
  -5 -11  10    1.03    0.35
  -5  11  10    1.40    0.49
  -5 -11  11    0.54    0.32
  -5  11  11    0.73    0.42
  -5 -11  12    0.97    0.38
  -5  11  12    0.06    0.37
  -5 -11  13    0.00    0.20
  -5  11  13    0.03    0.38
  -5 -11  14    1.14    0.41
  -5  11  14    1.32    0.57
  -5  11  15    0.37    0.48
  -5  11  16    0.26    0.53
   5 -13  12    0.17    0.44
   5  13  12    0.25    0.45
   5  13  12    0.16    0.35
   5 -13  11    3.19    0.79
   5  13  11    2.76    0.62
   5  13  11    4.24    0.78
   5 -13  10    0.96    0.47
   5 -13  10    0.06    0.38
   5  13  10    0.69    0.44
   5  13  10    0.49    0.35
   5 -13   9   -0.01    0.35
   5 -13   9    0.29    0.36
   5  13   9    0.50    0.40
   5  13   9    0.13    0.33
   5 -13   8   -0.08    0.32
   5 -13   8   -0.06    0.33
   5  13   8    0.08    0.32
   5  13   8    0.39    0.31
   5 -13   7    3.43    0.70
   5  13   7    3.05    0.61
   5  13   7    2.30    0.53
   5 -13   6    0.34    0.38
   5  13   6    0.51    0.35
   5  13   6    0.38    0.36
   5 -13   5    7.56    0.94
   5  13   5    7.57    0.79
   5  13   5    6.28    0.79
   5 -13   4    0.03    0.40
   5  13   4   -0.18    0.25
   5  13   4    0.19    0.29
   5 -13   3    0.40    0.39
   5  13   3   -0.03    0.25
   5  13   3   -0.24    0.25
   5 -13   2    3.05    0.62
  -5 -13  -2    2.53    0.40
   5  13   2    2.14    0.48
   5  13   2    2.47    0.43
   5 -13   1   14.04    1.02
  -5 -13  -1   13.77    0.82
   5  13   1   15.64    1.02
   5  13   1   13.98    0.77
  -5 -13   0    0.01    0.10
   5 -13   0   -0.16    0.34
   5  13   0   -0.13    0.25
   5  13   0    0.01    0.19
  -5 -13   1    6.66    0.69
   5 -13  -1    5.72    0.76
   5  13  -1    4.12    0.64
  -5 -13   2    0.69    0.30
   5 -13  -2    0.67    0.39
   5  13  -2    0.95    0.46
  -5  13   2    1.67    0.41
   5 -13  -3   11.05    1.00
  -5 -13   3   11.51    0.82
   5  13  -3   11.33    1.07
  -5  13   3   11.57    0.85
   5 -13  -4    9.93    0.80
  -5 -13   4   10.10    0.81
  -5  13   4   10.41    0.96
   5 -13  -5    7.19    0.81
  -5 -13   5   10.21    0.80
  -5  13   5   11.50    0.84
  -5 -13   6    2.64    0.53
   5 -13  -6    1.83    0.48
  -5  13   6    1.68    0.50
   5 -13  -7    0.15    0.32
  -5 -13   7    0.21    0.29
  -5  13   7    0.26    0.37
  -5 -13   8    6.97    0.88
  -5  13   8    5.65    0.80
  -5 -13   9   -0.52    0.21
  -5  13   9    0.25    0.39
  -5 -13  10    4.11    0.70
  -5  13  10    4.34    0.76
  -5 -13  11    0.18    0.29
  -5  13  11    0.24    0.37
  -5 -13  12    0.50    0.35
  -5  13  12    0.87    0.46
  -5 -13  13    0.16    0.29
  -5  13  13    0.04    0.38
  -5 -13  14    0.69    0.37
  -5  13  14   -0.14    0.36
  -5  13  15   -0.10    0.44
   5 -15  11   -0.37    0.43
   5  15  11    0.26    0.38
   5  15  11    0.40    0.47
   5 -15  10    1.83    0.59
   5 -15  10    0.15    0.40
   5  15  10    0.78    0.47
   5  15  10    1.80    0.57
   5 -15   9    0.56    0.43
   5 -15   9    0.29    0.42
   5  15   9    0.43    0.42
   5  15   9   -0.59    0.24
   5 -15   8   -0.03    0.32
   5 -15   8    0.11    0.41
   5  15   8   -0.44    0.30
   5  15   8   -0.31    0.25
   5 -15   7    0.82    0.47
   5  15   7   -0.20    0.32
   5  15   7    0.13    0.34
   5 -15   6    0.44    0.41
   5  15   6    0.26    0.35
   5  15   6    0.62    0.38
   5 -15   5    0.04    0.38
   5  15   5    0.04    0.32
   5  15   5    0.12    0.30
   5 -15   4    1.69    0.57
   5  15   4    1.82    0.46
   5  15   4    2.28    0.52
   5 -15   3    2.51    0.62
   5  15   3    1.08    0.42
   5 -15   2    0.40    0.41
   5  15   2    1.22    0.45
  -5 -15  -1    3.53    0.53
   5 -15   1    4.00    0.73
   5  15   1    3.44    0.61
   5 -15   0   14.28    1.06
   5  15   0   15.18    1.09
   5 -15  -1   -0.54    0.28
  -5 -15   1    0.32    0.26
   5  15  -1   -0.34    0.30
  -5 -15   2    2.67    0.53
   5 -15  -2    2.50    0.57
   5  15  -2    1.75    0.55
  -5  15   2    2.61    0.54
  -5 -15   3    5.35    0.72
   5 -15  -3    4.62    0.71
  -5  15   3    4.02    0.64
   5  15  -3    3.64    0.74
  -5 -15   4   10.01    1.00
   5 -15  -4   11.12    1.04
  -5  15   4   10.97    1.04
  -5 -15   5    0.10    0.30
   5 -15  -5    0.80    0.41
  -5  15   5    0.12    0.31
  -5 -15   6   -0.32    0.22
   5 -15  -6   -0.03    0.33
  -5  15   6    0.13    0.33
  -5 -15   7    0.67    0.37
  -5  15   7    0.07    0.35
  -5 -15   8    0.93    0.43
  -5  15   8    0.48    0.40
  -5 -15   9    2.03    0.54
  -5  15   9    1.52    0.53
  -5 -15  10    0.14    0.33
  -5  15  10   -0.29    0.30
  -5 -15  11    0.42    0.36
  -5  15  11    0.15    0.37
  -5 -15  12    0.78    0.38
  -5  15  12    0.71    0.49
  -5 -15  13    0.49    0.34
  -5  15  13   -0.31    0.41
  -5  15  14    0.13    0.51
   5 -17  10   -0.34    0.36
   5  17  10    0.22    0.44
   5 -17   9   -0.02    0.38
   5 -17   9    0.94    0.49
   5  17   9   -0.05    0.37
   5 -17   8    1.09    0.54
   5 -17   8    1.34    0.56
   5  17   8    1.19    0.49
   5 -17   7    0.45    0.45
   5  17   7    0.54    0.40
   5 -17   6    0.75    0.48
   5  17   6    0.15    0.37
   5 -17   5    0.44    0.43
   5  17   5   -0.26    0.28
   5 -17   4    1.52    0.55
   5  17   4    1.39    0.50
   5 -17   3    1.04    0.51
   5  17   3    1.60    0.52
   5 -17   2    0.45    0.40
   5  17   2    0.09    0.35
  -5 -17  -1    3.90    0.58
   5 -17   1    3.59    0.72
   5  17   1    2.72    0.60
  -5 -17   0    0.14    0.19
   5 -17   0    0.28    0.39
   5  17   0    0.53    0.48
   5 -17  -1    0.55    0.44
  -5 -17   1    0.03    0.27
   5  17  -1   -0.34    0.37
   5 -17  -2    1.20    0.49
  -5 -17   2    0.29    0.32
   5  17  -2    0.36    0.50
   5 -17  -3    1.03    0.48
  -5 -17   3    1.02    0.40
   5  17  -3    0.89    0.60
  -5  17   3    1.09    0.43
   5 -17  -4    0.69    0.45
  -5 -17   4    0.47    0.36
  -5  17   4    0.13    0.29
  -5 -17   5    0.49    0.32
   5 -17  -5    0.19    0.36
  -5  17   5    0.42    0.39
  -5 -17   6    0.55    0.38
  -5  17   6   -0.29    0.28
  -5 -17   7    0.44    0.37
  -5  17   7    1.13    0.50
  -5 -17   8   -0.10    0.25
  -5  17   8   -0.18    0.30
  -5 -17   9    0.23    0.34
  -5  17   9   -0.19    0.34
  -5 -17  10    1.00    0.43
  -5  17  10    0.21    0.40
  -5 -17  11    1.04    0.43
  -5  17  11    0.19    0.43
  -5 -17  12    1.33    0.47
  -5  17  12    0.50    0.50
  -5  17  13    0.15    0.41
   5 -19   9    0.31    0.47
   5  19   8   -0.59    0.37
   5 -19   7    0.03    0.38
   5  19   7    0.47    0.44
   5 -19   6   -0.13    0.38
   5  19   6    0.00    0.37
   5 -19   5   -0.30    0.34
   5  19   5   -0.39    0.34
   5 -19   4    2.00    0.61
   5  19   4    2.08    0.59
   5 -19   3    0.64    0.45
   5  19   3   -0.49    0.31
   5 -19   2   -0.74    0.29
   5  19   2    0.22    0.40
   5 -19   1   -0.07    0.38
   5  19   1    0.05    0.45
   5 -19   0   -0.07    0.36
  -5 -19   0    0.06    0.26
   5  19   0    0.01    0.45
   5 -19  -1   -0.08    0.38
  -5 -19   1    0.25    0.30
   5  19  -1   -0.13    0.47
   5 -19  -2   -0.41    0.32
  -5 -19   2    0.07    0.31
   5  19  -2   -0.17    0.50
   5 -19  -3    2.10    0.61
  -5 -19   3    1.23    0.46
  -5  19   3    1.93    0.53
  -5 -19   4    2.02    0.53
   5 -19  -4    1.64    0.55
  -5  19   4    1.44    0.52
  -5 -19   5   -0.29    0.23
   5 -19  -5   -0.24    0.34
  -5  19   5    0.13    0.38
  -5 -19   6    0.05    0.27
  -5  19   6   -0.38    0.26
  -5 -19   7    1.02    0.45
  -5  19   7    0.92    0.46
  -5 -19   8    1.43    0.50
  -5  19   8    2.89    0.71
  -5 -19   9    0.05    0.30
  -5  19   9   -0.07    0.32
  -5 -19  10    0.06    0.31
  -5  19  10    0.12    0.40
  -5  19  11   -0.01    0.44
  -5  19  12   -0.33    0.40
   5 -21   5    0.70    0.50
   5  21   5   -0.15    0.45
   5 -21   4    0.44    0.44
   5  21   4    0.17    0.45
   5 -21   3    0.35    0.43
   5  21   3   -0.54    0.41
   5 -21   2    0.66    0.50
   5  21   2   -0.54    0.42
   5 -21   1   -0.03    0.42
   5  21   1   -0.17    0.48
   5 -21   0    0.76    0.47
   5  21   0    0.61    0.58
   5 -21  -1    0.34    0.41
  -5 -21   1    0.47    0.33
   5  21  -1   -0.87    0.44
   5 -21  -2    0.24    0.44
  -5 -21   2    0.96    0.43
   5  21  -2   -0.98    0.42
   5 -21  -3    1.87    0.59
  -5 -21   3    1.55    0.47
  -5 -21   4    0.07    0.31
   5 -21  -4   -0.09    0.36
  -5  21   4    0.12    0.31
  -5 -21   5    0.97    0.46
  -5  21   5    1.05    0.47
  -5 -21   6    0.22    0.38
  -5  21   6   -0.09    0.35
  -5 -21   7    1.75    0.60
  -5  21   7    1.30    0.55
  -5 -21   8    0.08    0.37
  -5  21   8    0.42    0.45
  -5  21   9    0.78    0.51
  -5  21  10    0.19    0.46
   5 -23   2    0.38    0.50
   5  23   2   -0.15    0.57
   5 -23   1    0.32    0.46
   5  23   1    0.12    0.61
   5 -23   0    0.93    0.56
   5  23   0    0.09    0.63
   5 -23  -1    1.18    0.54
   5  23  -1   -0.43    0.60
  -5 -23   2    0.25    0.33
   5 -23  -2    0.84    0.52
  -5 -23   3    0.85    0.45
   5 -23  -3    0.80    0.50
  -5 -23   4    2.45    0.66
  -5 -23   5    0.23    0.33
  -5  23   5   -0.22    0.32
  -5  23   6   -0.13    0.39
  -5  23   7    0.80    0.53
  -5  23   8    1.53    0.66
   6   0  14    0.05    0.42
   6   0  13   -0.07    0.27
   6   0  12    6.29    0.93
   6   0  11    0.04    0.31
   6   0  10    1.03    0.40
   6   0   9    0.07    0.26
   6   0   8   13.57    0.97
   6   0   7   -0.14    0.18
   6   0   5   -0.05    0.17
   6   0   5    0.09    0.19
   6   0   4  132.42    4.04
   6   0   4  129.84    3.88
  -6   0  -3   -0.02    0.14
   6   0   3    0.02    0.15
   6   0   3    0.28    0.17
  -6   0  -2   53.34    1.76
   6   0   2   55.09    1.82
  -6   0  -1    0.20    0.13
  -6   0   0  258.13    7.34
   6   0  -1    0.10    0.11
  -6   0   1    0.12    0.12
  -6   0   2    3.68    0.25
  -6   0   2    3.80    0.38
   6   0  -2    3.52    0.30
  -6   0   3    0.00    0.09
   6   0  -3    0.10    0.14
  -6   0   3    0.07    0.10
  -6   0   4   19.05    0.82
  -6   0   4   17.11    0.70
  -6   0   5   -0.10    0.09
  -6   0   5   -0.12    0.10
  -6   0   6    3.94    0.39
  -6   0   7   -0.16    0.09
  -6   0   7   -0.11    0.13
  -6   0   8    8.09    0.59
  -6   0   8    8.84    0.59
  -6   0   9    0.19    0.17
  -6   0   9   -0.01    0.21
  -6   0  10    5.77    0.67
  -6   0  10    5.01    0.56
  -6   0  11   -0.04    0.17
  -6   0  11    0.15    0.30
  -6   0  12    2.72    0.57
  -6   0  13   -0.31    0.26
  -6   0  14    0.17    0.35
  -6   0  15   -0.18    0.37
  -6   0  16   -0.29    0.37
  -6   0  17    0.54    0.53
   6  -2  14    0.11    0.44
   6   2  14   -0.18    0.37
   6  -2  13    0.17    0.38
   6   2  13    0.04    0.38
   6  -2  12    0.10    0.34
   6   2  12    0.35    0.37
   6  -2  11    2.59    0.62
   6   2  11    3.32    0.66
   6  -2  10   -0.08    0.24
   6   2  10    0.01    0.29
   6  -2   9    0.17    0.27
   6   2   9   -0.18    0.24
   6  -2   8    3.54    0.59
   6   2   8    3.34    0.59
   6  -2   7    0.10    0.22
   6   2   7   -0.07    0.23
   6  -2   6    0.16    0.24
   6  -2   6    0.11    0.25
   6   2   6    0.13    0.21
   6  -2   5    0.23    0.23
   6  -2   5    0.30    0.25
   6   2   5    0.17    0.20
   6  -2   4    0.32    0.21
   6  -2   4    0.25    0.20
   6   2   4    0.07    0.16
   6   2   4    0.15    0.15
   6  -2   3   45.92    1.71
  -6  -2  -3   47.94    1.52
   6  -2   3   48.43    1.67
   6   2   3   46.93    1.67
  -6  -2  -2    0.22    0.13
  -6   2  -2    0.07    0.10
   6   2   2    0.20    0.14
  -6  -2  -1    1.20    0.20
  -6   2  -1    1.19    0.24
   6   2   1    0.95    0.19
   6   2   1    1.19    0.25
   6   2   0   55.39    1.86
   6   2   0   56.97    1.70
  -6   2   0   56.48    1.86
  -6  -2   1    3.70    0.30
   6   2  -1    3.72    0.36
  -6   2   1    4.32    0.42
  -6  -2   2    1.48    0.24
   6  -2  -2    1.68    0.18
   6   2  -2    1.72    0.25
  -6   2   2    1.49    0.25
  -6  -2   3   28.24    1.12
   6   2  -3   29.48    1.09
  -6   2   3   28.93    1.12
  -6  -2   4   21.85    0.77
  -6  -2   4   22.71    0.97
   6   2  -4   23.31    0.98
  -6   2   4   23.15    0.96
  -6  -2   5    0.46    0.18
  -6  -2   5    0.59    0.16
  -6   2   5    0.62    0.19
  -6   2   5    0.41    0.17
  -6  -2   6    7.84    0.46
  -6  -2   6    7.80    0.54
  -6   2   6    7.38    0.51
  -6   2   6    7.85    0.52
  -6  -2   7   20.09    0.98
  -6  -2   7   20.56    0.91
  -6   2   7   23.20    0.98
  -6   2   7   19.78    0.96
  -6  -2   8    2.62    0.41
  -6   2   8    2.45    0.37
  -6   2   8    3.10    0.45
  -6  -2   9    0.36    0.25
  -6  -2   9    0.70    0.25
  -6   2   9   -0.05    0.22
  -6   2   9    0.86    0.26
  -6  -2  10   -0.22    0.14
  -6  -2  10    0.05    0.22
  -6   2  10   -0.09    0.24
  -6   2  10   -0.01    0.16
  -6  -2  11    6.93    0.77
  -6  -2  11    7.52    0.74
  -6   2  11    8.00    0.85
  -6   2  11    8.08    0.60
  -6  -2  12    4.22    0.65
  -6  -2  12    2.88    0.48
  -6   2  12    3.08    0.61
  -6  -2  13    0.90    0.41
  -6   2  13    0.84    0.44
  -6  -2  14    0.41    0.37
  -6   2  14   -0.04    0.34
  -6  -2  15    0.81    0.47
  -6   2  15    1.30    0.52
  -6  -2  16    0.00    0.39
  -6   2  16   -0.32    0.34
  -6  -2  17    0.34    0.47
  -6   2  17   -0.02    0.42
   6  -4  14    0.30    0.44
   6   4  14    0.88    0.51
   6  -4  13   -0.07    0.31
   6   4  13    0.40    0.42
   6  -4  12    0.80    0.42
   6   4  12    0.37    0.39
   6  -4  11    0.10    0.28
   6   4  11   -0.21    0.26
   6  -4  10    0.50    0.32
   6   4  10    0.38    0.34
   6  -4   9    0.12    0.29
   6   4   9   -0.18    0.23
   6  -4   8   12.54    0.93
   6   4   8   11.09    0.87
   6  -4   7    0.09    0.27
   6  -4   7    0.10    0.22
   6  -4   6    0.70    0.31
   6  -4   6    0.83    0.32
   6   4   6    0.93    0.30
   6  -4   5    6.42    0.64
   6  -4   5    7.29    0.72
   6   4   5    6.68    0.65
  -6  -4  -4   45.74    1.41
   6  -4   4   44.14    1.75
   6  -4   4   46.35    1.73
   6   4   4   46.00    1.69
   6  -4   3    4.56    0.52
  -6  -4  -3    3.85    0.27
   6   4   3    3.61    0.42
  -6  -4  -2    0.52    0.14
   6  -4   2    0.06    0.20
   6   4   2    0.54    0.21
   6   4   2    0.31    0.16
   6  -4   1    1.24    0.28
  -6  -4  -1    1.31    0.21
   6   4   1    0.80    0.21
   6   4   1    1.01    0.19
  -6   4  -1    1.23    0.27
  -6  -4   0   12.15    0.59
  -6   4   0   12.39    0.66
   6   4   0   11.98    0.66
   6   4   0   13.24    0.51
  -6  -4   1   11.03    0.57
   6   4  -1   10.68    0.60
  -6   4   1   10.94    0.61
  -6  -4   2    2.66    0.33
   6   4  -2    2.56    0.34
  -6   4   2    2.74    0.35
  -6   4   2    2.10    0.29
  -6  -4   3    3.37    0.38
  -6   4   3    3.19    0.38
  -6   4   3    3.47    0.38
   6   4  -3    3.17    0.38
  -6  -4   4    7.30    0.51
  -6   4   4    7.66    0.50
  -6   4   4    7.97    0.53
   6   4  -4    7.82    0.61
  -6  -4   5   20.97    0.96
  -6  -4   5   20.43    0.76
  -6   4   5   21.14    0.94
  -6   4   5   19.41    0.91
  -6  -4   6    1.14    0.27
  -6  -4   6    2.08    0.27
  -6   4   6    1.54    0.28
  -6   4   6    1.61    0.33
  -6  -4   7    8.89    0.55
  -6  -4   7   10.18    0.66
  -6   4   7    9.24    0.65
  -6   4   7    9.38    0.59
  -6  -4   8    2.43    0.37
  -6  -4   8    2.33    0.39
  -6   4   8    2.03    0.39
  -6   4   8    2.20    0.34
  -6  -4   9    1.51    0.31
  -6  -4   9    2.55    0.43
  -6   4   9    1.52    0.39
  -6   4   9    2.00    0.34
  -6  -4  10    9.05    0.68
  -6  -4  10    7.32    0.74
  -6   4  10   10.38    0.79
  -6   4  10   10.65    0.66
  -6  -4  11   -0.06    0.18
  -6  -4  11    0.29    0.29
  -6   4  11    0.23    0.31
  -6  -4  12    0.38    0.24
  -6  -4  12   -0.04    0.29
  -6   4  12    0.24    0.30
  -6  -4  13    1.57    0.39
  -6  -4  13    1.29    0.46
  -6   4  13    0.69    0.40
  -6  -4  14    0.98    0.48
  -6   4  14    0.96    0.42
  -6  -4  15   -0.16    0.33
  -6   4  15    0.14    0.37
  -6  -4  16    0.16    0.40
  -6   4  16    0.50    0.42
  -6  -4  17   -0.11    0.40
  -6   4  17    0.64    0.47
   6  -6  13    0.53    0.51
   6   6  13    0.13    0.40
   6  -6  12    0.01    0.39
   6   6  12    0.21    0.35
   6  -6  11    1.83    0.54
   6   6  11    1.69    0.52
   6  -6  10    0.06    0.29
   6   6  10   -0.30    0.25
   6  -6   9    0.09    0.23
   6   6   9   -0.03    0.28
   6  -6   8   -0.15    0.24
   6   6   8   -0.03    0.25
   6  -6   7    1.08    0.39
   6  -6   7    1.76    0.43
   6   6   7    1.50    0.42
   6  -6   6    0.35    0.32
   6  -6   6    0.26    0.25
   6   6   6    0.15    0.26
   6  -6   5    0.21    0.31
   6  -6   5   -0.22    0.17
   6   6   5    0.30    0.25
   6  -6   4    1.20    0.38
   6   6   4    0.71    0.27
   6   6   4    0.62    0.27
  -6  -6  -3    8.04    0.41
   6  -6   3    8.81    0.65
   6   6   3    8.65    0.65
   6   6   3    8.60    0.55
   6  -6   2    2.18    0.41
  -6  -6  -2    3.42    0.32
   6   6   2    2.90    0.41
   6   6   2    2.92    0.35
  -6  -6  -1    1.31    0.23
   6  -6   1    1.72    0.35
   6   6   1    1.72    0.31
   6   6   1    1.58    0.24
   6  -6   0    6.16    0.58
  -6  -6   0    5.30    0.38
   6   6   0    5.26    0.52
   6   6   0    4.80    0.31
  -6  -6   1    0.97    0.22
   6   6  -1    1.76    0.30
  -6   6   1    1.55    0.32
  -6  -6   2    6.36    0.45
   6   6  -2    6.26    0.50
  -6   6   2    6.15    0.55
  -6   6   2    6.85    0.50
  -6  -6   3    4.88    0.50
  -6   6   3    5.15    0.51
  -6   6   3    4.03    0.46
   6   6  -3    4.08    0.48
  -6  -6   4   -0.11    0.13
  -6   6   4    0.11    0.16
  -6   6   4    0.26    0.18
   6   6  -4   -0.36    0.23
  -6  -6   5    6.51    0.52
  -6  -6   5    6.94    0.37
  -6   6   5    6.92    0.51
  -6   6   5    7.03    0.65
  -6  -6   6    1.51    0.33
  -6  -6   6    1.65    0.25
  -6   6   6    1.88    0.32
  -6   6   6    1.29    0.33
  -6  -6   7    0.17    0.16
  -6  -6   7    0.30    0.21
  -6   6   7    0.40    0.21
  -6   6   7    0.19    0.22
  -6  -6   8    0.33    0.23
  -6  -6   8    0.41    0.23
  -6   6   8    0.29    0.20
  -6   6   8    0.58    0.28
  -6  -6   9    0.07    0.20
  -6  -6   9    0.01    0.20
  -6   6   9    0.04    0.18
  -6   6   9    0.37    0.26
  -6  -6  10    0.32    0.25
  -6  -6  10    0.34    0.22
  -6   6  10    0.69    0.37
  -6  -6  11    0.20    0.22
  -6  -6  11    0.66    0.30
  -6   6  11    0.51    0.36
  -6  -6  12    1.11    0.35
  -6  -6  12    1.08    0.39
  -6   6  12    2.15    0.52
  -6  -6  13    1.28    0.38
  -6  -6  13    1.66    0.49
  -6   6  13    1.68    0.54
  -6  -6  14    0.41    0.37
  -6   6  14    0.59    0.40
  -6  -6  15    0.33    0.40
  -6   6  15   -0.31    0.32
  -6  -6  16   -0.14    0.37
  -6   6  16   -0.17    0.36
  -6  -6  17    0.20    0.45
   6  -8  13    0.04    0.43
   6   8  13   -0.63    0.30
   6  -8  12    1.17    0.54
   6   8  12    1.71    0.56
   6  -8  11    1.59    0.52
   6   8  11    0.76    0.42
   6  -8  10    0.08    0.31
   6   8  10    0.01    0.28
   6  -8   9    0.81    0.44
   6   8   9    1.36    0.45
   6  -8   8    2.72    0.58
   6  -8   8    1.51    0.48
   6   8   8    2.03    0.50
   6   8   8    0.84    0.37
   6  -8   7    0.00    0.31
   6  -8   7    0.47    0.32
   6   8   7    0.51    0.33
   6   8   7    0.89    0.35
   6  -8   6    0.02    0.33
   6  -8   6   -0.07    0.27
   6   8   6    0.33    0.27
   6   8   6    0.73    0.30
   6  -8   5   -0.19    0.26
   6   8   5   -0.10    0.22
   6   8   5    0.26    0.26
   6  -8   4    8.33    0.83
   6   8   4    8.57    0.60
   6   8   4    7.07    0.72
  -6  -8  -3   23.96    0.88
   6  -8   3   22.55    1.20
   6   8   3   22.81    1.02
   6   8   3   21.95    1.16
   6  -8   2    0.52    0.31
  -6  -8  -2    0.15    0.13
   6   8   2   -0.23    0.16
   6   8   2   -0.07    0.15
   6  -8   1    5.04    0.61
  -6  -8  -1    5.01    0.39
   6   8   1    4.93    0.57
   6   8   1    5.07    0.43
   6  -8   0    0.97    0.33
  -6  -8   0    1.10    0.25
   6   8   0    1.27    0.30
   6   8   0    1.51    0.22
   6  -8  -1    2.64    0.44
  -6  -8   1    2.92    0.38
   6   8  -1    3.23    0.23
   6   8  -1    3.16    0.45
   6  -8  -2   11.50    0.75
  -6  -8   2   12.82    0.71
  -6   8   2   11.38    0.72
   6   8  -2   12.45    0.77
  -6  -8   3    0.11    0.16
  -6   8   3    0.21    0.20
  -6   8   3    0.24    0.22
   6   8  -3    0.17    0.26
  -6  -8   4    0.02    0.17
  -6  -8   4    0.14    0.10
   6   8  -4   -0.18    0.25
  -6   8   4   -0.01    0.18
  -6   8   4    0.10    0.20
  -6  -8   5    3.47    0.48
  -6  -8   5    3.83    0.33
  -6   8   5    4.99    0.54
  -6   8   5    3.05    0.47
  -6  -8   6    7.70    0.45
  -6  -8   6    8.05    0.63
  -6   8   6    8.61    0.79
  -6   8   6    7.43    0.58
  -6  -8   7    0.39    0.18
  -6  -8   7   -0.20    0.15
  -6   8   7    0.37    0.24
  -6   8   7    0.03    0.23
  -6  -8   8   -0.16    0.16
  -6  -8   8   -0.01    0.17
  -6   8   8   -0.22    0.21
  -6   8   8    0.12    0.27
  -6  -8   9    1.07    0.31
  -6  -8   9    0.97    0.34
  -6   8   9    0.86    0.30
  -6   8   9    1.19    0.40
  -6  -8  10    1.76    0.41
  -6  -8  10    2.29    0.48
  -6   8  10    1.26    0.44
  -6  -8  11    1.74    0.44
  -6  -8  11    2.88    0.51
  -6   8  11    2.45    0.58
  -6  -8  12    1.00    0.36
  -6  -8  12   -0.19    0.18
  -6   8  12    0.47    0.37
  -6  -8  13    1.41    0.42
  -6  -8  13    2.09    0.51
  -6   8  13    1.04    0.46
  -6  -8  14    0.00    0.21
  -6  -8  14    0.16    0.35
  -6   8  14   -0.03    0.37
  -6   8  15    1.31    0.55
  -6   8  16    0.03    0.42
  -6   8  17    0.43    0.50
   6 -10  13    0.22    0.49
   6  10  13    0.07    0.40
   6  10  13    1.29    0.54
   6 -10  12    0.96    0.52
   6  10  12    1.26    0.51
   6  10  12    1.73    0.56
   6 -10  11    0.24    0.39
   6  10  11    0.20    0.33
   6  10  11    0.02    0.33
   6 -10  10    0.24    0.36
   6  10  10    0.13    0.32
   6  10  10    0.42    0.36
   6 -10   9    0.28    0.36
   6 -10   9    0.44    0.39
   6  10   9    0.63    0.38
   6  10   9    0.33    0.35
   6 -10   8    4.39    0.73
   6 -10   8    3.49    0.65
   6  10   8    3.84    0.66
   6  10   8    4.29    0.66
   6 -10   7    0.20    0.31
   6 -10   7   -0.04    0.31
   6  10   7    0.01    0.25
   6  10   7    0.24    0.30
   6 -10   6    1.04    0.45
   6  10   6    0.55    0.30
   6  10   6   -0.15    0.25
   6 -10   5    1.26    0.48
   6  10   5    1.17    0.39
   6  10   5    0.63    0.32
   6 -10   4    4.49    0.68
   6  10   4    3.71    0.58
   6  10   4    4.33    0.55
   6 -10   3    4.55    0.66
   6  10   3    4.15    0.50
   6  10   3    3.80    0.57
  -6 -10  -2    2.59    0.34
   6 -10   2    1.90    0.48
   6  10   2    2.41    0.37
   6  10   2    1.90    0.41
  -6 -10  -1   36.20    1.35
   6 -10   1   34.90    1.61
   6  10   1   34.30    1.27
   6  10   1   33.36    1.54
   6 -10   0   16.66    1.00
  -6 -10   0   16.35    0.83
   6  10   0   16.05    0.95
   6  10   0   15.21    0.68
  -6 -10   1    0.28    0.21
   6 -10  -1    0.03    0.25
   6  10  -1    0.13    0.24
   6  10  -1    0.07    0.12
  -6 -10   2    0.95    0.29
   6 -10  -2    0.58    0.32
  -6  10   2    1.06    0.30
   6  10  -2    1.35    0.38
   6 -10  -3   14.39    0.88
  -6 -10   3   13.87    0.84
  -6  10   3   14.85    0.88
   6  10  -3   13.36    0.92
  -6 -10   4    0.30    0.24
   6 -10  -4   -0.18    0.24
   6  10  -4   -0.02    0.34
  -6  10   4    0.18    0.22
   6 -10  -5    2.43    0.47
  -6 -10   5    3.38    0.52
  -6  10   5    2.90    0.50
  -6 -10   6    0.73    0.31
  -6  10   6    0.97    0.34
  -6  10   6    1.76    0.40
  -6 -10   7    1.04    0.33
  -6  10   7    1.47    0.41
  -6  10   7    1.01    0.33
  -6 -10   8    0.18    0.24
  -6  10   8    0.26    0.31
  -6  10   8    0.22    0.26
  -6 -10   9    0.12    0.24
  -6  10   9   -0.10    0.28
  -6 -10  10    3.48    0.60
  -6  10  10    2.80    0.59
  -6 -10  11    2.63    0.53
  -6  10  11    3.46    0.67
  -6 -10  12    0.30    0.27
  -6  10  12    0.34    0.39
  -6 -10  13    0.36    0.27
  -6  10  13    0.55    0.40
  -6 -10  14    0.67    0.32
  -6  10  14    0.63    0.50
  -6  10  15    0.51    0.49
  -6  10  16   -0.29    0.40
   6 -12  12    0.14    0.44
   6  12  12    0.25    0.44
   6  12  12    0.02    0.36
   6 -12  11    0.86    0.54
   6  12  11    0.65    0.44
   6  12  11    0.39    0.37
   6 -12  10    0.93    0.49
   6  12  10    0.86    0.45
   6  12  10    0.25    0.39
   6 -12   9    1.01    0.49
   6 -12   9    1.44    0.49
   6  12   9    0.47    0.43
   6  12   9    0.27    0.35
   6 -12   8    0.72    0.40
   6 -12   8    0.60    0.43
   6  12   8    0.91    0.43
   6  12   8    1.34    0.43
   6 -12   7    0.39    0.42
   6 -12   7   -0.11    0.29
   6  12   7    0.75    0.39
   6  12   7   -0.01    0.31
   6 -12   6    1.85    0.54
   6  12   6    2.41    0.50
   6  12   6    1.87    0.47
   6 -12   5    2.92    0.65
   6  12   5    2.89    0.53
   6  12   5    2.60    0.53
   6 -12   4    1.11    0.49
   6  12   4    0.59    0.32
   6  12   4    0.66    0.36
   6 -12   3    3.22    0.65
   6  12   3    4.72    0.66
   6  12   3    3.70    0.52
   6 -12   2    4.09    0.68
  -6 -12  -2    5.12    0.52
   6  12   2    5.44    0.55
   6  12   2    3.23    0.54
   6 -12   1   -0.01    0.31
  -6 -12  -1   -0.12    0.14
   6  12   1   -0.06    0.20
   6  12   1    0.39    0.28
   6 -12   0    5.73    0.76
  -6 -12   0    6.30    0.64
   6  12   0    4.12    0.60
  -6 -12   1    0.21    0.23
   6 -12  -1    0.26    0.36
   6  12  -1    0.49    0.33
   6 -12  -2    1.54    0.48
  -6 -12   2    1.56    0.38
  -6  12   2    1.78    0.41
   6  12  -2    1.70    0.47
  -6 -12   3    2.62    0.48
   6 -12  -3    2.48    0.50
   6  12  -3    2.95    0.58
  -6  12   3    2.94    0.51
   6 -12  -4    1.12    0.40
  -6 -12   4    0.85    0.33
  -6  12   4    0.77    0.32
   6  12  -4    0.61    0.43
  -6 -12   5    0.47    0.29
   6 -12  -5    0.19    0.33
  -6  12   5    0.47    0.29
  -6 -12   6    4.18    0.63
  -6  12   6    5.75    0.74
  -6 -12   7   22.99    1.31
   6 -12  -7   23.08    1.20
  -6  12   7   21.75    1.27
  -6 -12   8    1.09    0.42
   6 -12  -8    1.66    0.44
  -6  12   8    1.37    0.49
  -6 -12   9    1.92    0.49
  -6  12   9    1.73    0.53
  -6 -12  10    1.44    0.44
  -6  12  10    1.67    0.52
  -6 -12  11    4.20    0.69
  -6  12  11    4.87    0.82
  -6 -12  12    0.24    0.26
  -6  12  12    0.31    0.40
  -6 -12  13    0.73    0.32
  -6  12  13    0.30    0.39
  -6 -12  14    0.07    0.28
  -6  12  14   -0.06    0.35
  -6 -12  15    1.54    0.47
  -6  12  15    0.14    0.38
   6 -14  11    0.81    0.55
   6  14  11    0.21    0.42
   6  14  11    0.18    0.38
   6 -14  10    0.27    0.42
   6 -14  10    0.49    0.43
   6  14  10    0.12    0.32
   6  14  10    0.10    0.40
   6 -14   9    1.38    0.56
   6 -14   9    2.14    0.60
   6  14   9    1.85    0.53
   6  14   9    0.83    0.48
   6 -14   8   -0.18    0.35
   6 -14   8    0.31    0.40
   6  14   8   -0.05    0.34
   6  14   8    0.60    0.38
   6 -14   7    0.10    0.40
   6  14   7    0.20    0.31
   6  14   7    0.29    0.33
   6 -14   6    0.67    0.48
   6  14   6    0.38    0.37
   6  14   6   -0.15    0.26
   6 -14   5   12.05    1.22
   6  14   5   11.70    1.13
   6 -14   4    7.04    0.92
   6  14   4    6.91    0.86
   6 -14   3    0.25    0.40
   6  14   3    0.18    0.30
   6 -14   2    2.00    0.58
   6  14   2    1.23    0.43
   6 -14   1    1.63    0.51
  -6 -14  -1    1.70    0.37
   6  14   1    1.52    0.45
   6 -14   0   12.40    0.98
  -6 -14   0   11.75    0.80
   6  14   0   13.38    0.97
   6 -14  -1    2.89    0.61
  -6 -14   1    3.54    0.55
   6  14  -1    2.47    0.57
   6 -14  -2    1.05    0.46
  -6 -14   2    1.36    0.39
   6  14  -2    0.78    0.46
  -6  14   2    0.94    0.37
  -6 -14   3    7.13    0.80
   6 -14  -3    8.21    0.91
   6  14  -3    7.79    0.91
  -6  14   3    7.21    0.82
  -6 -14   4    0.06    0.26
   6 -14  -4   -0.09    0.36
  -6  14   4    0.63    0.33
   6  14  -4    0.27    0.48
  -6 -14   5   12.00    1.10
   6 -14  -5    9.57    0.96
  -6  14   5    8.69    0.93
  -6 -14   6    0.84    0.38
   6 -14  -6   -0.18    0.22
  -6  14   6   -0.10    0.32
   6 -14  -7   11.05    0.87
  -6 -14   7   10.93    1.10
  -6  14   7   10.73    1.10
  -6 -14   8    0.18    0.30
  -6  14   8   -0.46    0.24
  -6 -14   9    1.55    0.47
  -6  14   9    1.27    0.48
  -6 -14  10    0.00    0.25
  -6  14  10    0.65    0.41
  -6 -14  11    0.62    0.37
  -6  14  11    0.03    0.37
  -6 -14  12    0.07    0.28
  -6  14  12   -0.05    0.42
  -6 -14  13    0.47    0.37
  -6  14  13    0.06    0.42
  -6 -14  14    2.01    0.56
  -6  14  14   -0.01    0.48
  -6  14  15    0.31    0.50
   6 -16  10    0.22    0.46
   6 -16  10    0.95    0.48
   6  16  10    0.03    0.40
   6 -16   9   -0.13    0.41
   6 -16   9    0.53    0.42
   6  16   9    0.01    0.35
   6 -16   8    0.30    0.44
   6 -16   8    0.42    0.44
   6  16   8    0.76    0.46
   6 -16   7    0.27    0.43
   6  16   7    0.13    0.34
   6 -16   6    0.85    0.50
   6  16   6   -0.25    0.33
   6 -16   5    0.19    0.38
   6  16   5    0.46    0.30
   6 -16   4    1.29    0.53
   6  16   4    0.45    0.39
   6 -16   3    1.69    0.55
   6  16   3    0.96    0.45
   6 -16   2    0.93    0.50
   6  16   2    0.73    0.43
   6 -16   1    5.88    0.85
   6  16   1    4.80    0.72
  -6 -16   0    0.79    0.26
   6 -16   0    2.33    0.60
   6  16   0    1.15    0.45
   6 -16  -1    4.15    0.74
  -6 -16   1    5.00    0.68
   6  16  -1    4.61    0.76
  -6 -16   2    0.21    0.28
   6 -16  -2    0.16    0.41
   6  16  -2    0.89    0.53
   6 -16  -3    0.61    0.45
  -6 -16   3    0.40    0.32
   6  16  -3   -0.14    0.48
  -6  16   3    0.26    0.30
  -6 -16   4    2.22    0.52
   6 -16  -4    2.28    0.57
  -6  16   4    1.93    0.51
   6  16  -4    2.32    0.72
  -6 -16   5   -0.14    0.23
   6 -16  -5    0.23    0.39
  -6  16   5    0.37    0.36
   6 -16  -6    0.94    0.41
  -6 -16   6    2.81    0.58
  -6  16   6    2.80    0.59
  -6 -16   7    0.57    0.35
  -6  16   7   -0.10    0.30
  -6 -16   8    0.29    0.30
  -6  16   8   -0.13    0.28
  -6 -16   9    0.57    0.34
  -6  16   9    1.53    0.52
  -6 -16  10    0.67    0.38
  -6  16  10    0.17    0.38
  -6 -16  11    1.26    0.47
  -6  16  11    2.22    0.66
  -6 -16  12    0.54    0.39
  -6  16  12    0.56    0.45
  -6  16  13    0.66    0.51
  -6  16  14   -0.33    0.38
   6 -18   9   -0.02    0.46
   6  18   9    0.87    0.50
   6 -18   8    0.46    0.48
   6 -18   8    0.51    0.51
   6  18   8    0.66    0.45
   6 -18   7   -0.05    0.39
   6  18   7    0.67    0.46
   6 -18   6    0.30    0.45
   6  18   6    0.15    0.40
   6 -18   5    0.55    0.53
   6  18   5    0.06    0.38
   6 -18   4    0.76    0.47
   6  18   4    0.23    0.43
   6 -18   3   -0.38    0.32
   6  18   3    0.26    0.42
   6 -18   2    0.30    0.40
   6  18   2    0.24    0.40
   6 -18   1   -0.05    0.37
   6  18   1    0.27    0.40
  -6 -18   0    0.38    0.18
   6 -18   0    1.67    0.56
   6  18   0    0.92    0.48
  -6 -18   1    1.07    0.39
   6 -18  -1    2.53    0.60
   6  18  -1    0.55    0.53
  -6 -18   2    1.78    0.49
   6 -18  -2    2.48    0.63
   6  18  -2    1.36    0.63
  -6 -18   3    1.78    0.48
   6 -18  -3    0.80    0.44
   6  18  -3    0.99    0.67
  -6  18   3    1.17    0.42
   6 -18  -4    4.02    0.73
  -6 -18   4    3.61    0.66
  -6  18   4    3.98    0.73
  -6 -18   5    1.43    0.46
   6 -18  -5    1.00    0.47
  -6  18   5    0.86    0.44
  -6 -18   6    3.34    0.68
   6 -18  -6    0.84    0.46
  -6  18   6    3.12    0.67
  -6 -18   7   -0.01    0.28
  -6  18   7    0.97    0.47
  -6 -18   8    0.80    0.37
  -6  18   8    0.60    0.44
  -6 -18   9    0.51    0.36
  -6  18   9    0.69    0.46
  -6 -18  10    0.67    0.40
  -6  18  10    0.31    0.40
  -6 -18  11    0.19    0.31
  -6  18  11    0.75    0.49
  -6  18  12   -0.13    0.45
   6  20   7    1.20    0.58
   6 -20   6   -0.16    0.39
   6  20   6   -0.07    0.43
   6 -20   5    0.37    0.49
   6  20   5   -0.20    0.41
   6 -20   4    0.40    0.43
   6  20   4    0.02    0.41
   6 -20   3    0.02    0.40
   6  20   3    0.26    0.45
   6 -20   2   -0.30    0.35
   6  20   2   -0.02    0.42
   6 -20   1    0.38    0.44
   6  20   1    0.14    0.47
   6 -20   0   -0.61    0.38
   6  20   0    0.47    0.53
  -6 -20   1    0.04    0.26
   6 -20  -1    0.51    0.47
   6  20  -1   -0.40    0.47
   6 -20  -2   -0.32    0.35
  -6 -20   2   -0.07    0.26
   6  20  -2    0.27    0.58
   6 -20  -3    0.75    0.45
  -6 -20   3    1.00    0.41
   6  20  -3    0.12    0.58
   6 -20  -4    1.17    0.51
  -6 -20   4    1.39    0.51
  -6  20   4    0.31    0.35
  -6 -20   5   -0.17    0.28
   6 -20  -5    0.35    0.42
  -6  20   5    0.21    0.40
  -6 -20   6    0.46    0.35
  -6  20   6   -0.09    0.36
  -6 -20   7    1.14    0.49
  -6  20   7    1.37    0.54
  -6 -20   8    0.01    0.33
  -6  20   8    0.25    0.42
  -6 -20   9   -0.25    0.30
  -6  20   9   -0.21    0.38
  -6  20  10    0.14    0.39
  -6  20  11    0.63    0.46
   6  22   5    0.67    0.58
   6  22   4    0.31    0.52
   6 -22   3   -0.12    0.42
   6  22   3   -0.48    0.43
   6 -22   2    1.87    0.70
   6  22   2    2.33    0.74
   6 -22   1   -0.32    0.41
   6  22   1   -0.74    0.45
   6 -22   0    0.90    0.54
   6  22   0    1.45    0.66
   6 -22  -1    0.15    0.43
   6  22  -1    0.34    0.55
  -6 -22   2    0.98    0.43
   6 -22  -2    0.92    0.51
   6  22  -2    0.42    0.69
  -6 -22   3    0.33    0.36
   6 -22  -3   -0.19    0.40
  -6 -22   4    2.20    0.61
   6 -22  -4    1.30    0.57
  -6 -22   5    0.15    0.33
  -6  22   5    0.37    0.42
  -6 -22   6    0.64    0.43
  -6  22   6    0.05    0.40
  -6  22   7    0.46    0.47
  -6  22   8    1.76    0.63
  -6  22   9    1.81    0.65
   6  24   2   -0.45    0.59
   6  24   1   -0.44    0.59
   6  24   0   -0.52    0.60
   6 -24  -1    0.07    0.48
   6  24  -1    1.16    0.80
   6 -24  -2    0.39    0.51
   6 -24  -3    0.85    0.59
  -6 -24   3    0.81    0.45
  -6 -24   4    0.94    0.47
  -6  24   5   -0.22    0.38
  -6  24   6    0.79    0.51
   7  -1  13    0.90    0.50
   7   1  13    1.32    0.56
   7  -1  12    0.10    0.34
   7   1  12    0.59    0.44
   7  -1  11    2.52    0.62
   7   1  11    2.86    0.63
   7  -1  10    0.31    0.34
   7   1  10    0.84    0.39
   7  -1   9    0.77    0.39
   7   1   9    0.86    0.38
   7  -1   8    0.03    0.24
   7   1   8    0.37    0.29
   7  -1   7    1.20    0.37
   7   1   7    1.71    0.42
   7  -1   6   -0.19    0.17
   7   1   6    0.27    0.26
   7  -1   5    0.60    0.26
   7  -1   5    0.13    0.22
   7   1   5    0.35    0.25
   7  -1   4    7.11    0.50
   7  -1   4    7.76    0.70
   7   1   4    7.05    0.55
   7   1   4    7.51    0.48
  -7  -1  -3    6.10    0.42
   7  -1   3    6.99    0.53
   7  -1   3    7.21    0.49
   7   1   3    6.90    0.51
  -7  -1  -2   25.19    0.98
   7  -1   2   24.73    1.05
  -7   1  -2   26.63    1.04
   7   1   2   24.99    1.03
  -7  -1  -1    0.11    0.13
  -7   1  -1   -0.02    0.05
   7   1   1    0.09    0.13
  -7  -1   0   -0.01    0.05
   7   1   0    0.17    0.14
  -7   1   0    0.27    0.16
   7  -1  -1    5.27    0.36
  -7  -1   1    5.29    0.39
  -7   1   1    5.40    0.41
   7   1  -1    6.49    0.42
   7  -1  -2   23.09    0.86
  -7  -1   2   22.16    0.96
   7   1  -2   24.74    0.92
  -7   1   2   23.58    0.99
  -7  -1   3    0.91    0.21
   7  -1  -3    0.70    0.16
  -7  -1   3    1.16    0.16
  -7   1   3    1.00    0.22
  -7   1   3    0.62    0.16
   7   1  -3    0.64    0.19
   7  -1  -4   29.24    1.03
  -7  -1   4   29.18    1.17
  -7  -1   4   27.79    0.97
   7   1  -4   28.89    1.10
  -7   1   4   28.20    1.04
  -7   1   4   29.47    1.17
  -7  -1   5    4.99    0.36
  -7  -1   5    5.91    0.55
  -7   1   5    5.92    0.45
  -7   1   5    5.44    0.41
  -7  -1   6    3.31    0.42
  -7  -1   6    3.19    0.36
  -7   1   6    2.72    0.38
  -7  -1   7    5.76    0.44
  -7  -1   7    4.97    0.52
  -7   1   7    2.80    0.40
  -7   1   7    5.23    0.52
  -7  -1   8    7.92    0.58
  -7  -1   8    5.42    0.55
  -7   1   8    7.82    0.55
  -7   1   8    7.98    0.57
  -7  -1   9    1.17    0.30
  -7  -1   9    0.13    0.21
  -7   1   9    0.80    0.30
  -7   1   9    0.66    0.24
  -7  -1  10    6.22    0.63
  -7  -1  10    4.33    0.59
  -7   1  10    6.34    0.71
  -7   1  10    5.21    0.58
  -7  -1  11    0.20    0.21
  -7  -1  11    0.26    0.29
  -7   1  11    0.12    0.27
  -7   1  11   -0.07    0.17
  -7  -1  12    0.18    0.23
  -7  -1  12    0.68    0.35
  -7   1  12    0.07    0.18
  -7   1  12    0.16    0.32
  -7  -1  13    0.52    0.39
  -7   1  13    0.43    0.36
  -7  -1  14    1.76    0.53
  -7   1  14    2.03    0.55
  -7  -1  15    0.17    0.38
  -7   1  15    0.28    0.38
  -7  -1  16   -0.25    0.33
  -7   1  16   -0.03    0.41
  -7  -1  17    0.49    0.46
  -7   1  17    0.14    0.46
   7  -3  13    0.44    0.44
   7   3  13    0.18    0.40
   7  -3  12    1.45    0.51
   7   3  12    1.38    0.52
   7  -3  11   -0.09    0.25
   7   3  11    0.05    0.29
   7  -3  10   -0.44    0.19
   7   3  10    0.15    0.32
   7  -3   9    2.96    0.59
   7   3   9    3.61    0.61
   7  -3   8    2.46    0.53
   7   3   8    2.85    0.54
   7  -3   7   -0.37    0.15
   7   3   7    0.39    0.27
   7  -3   6    2.06    0.40
   7  -3   6    1.41    0.40
   7   3   6    1.81    0.40
   7  -3   5    6.72    0.65
   7  -3   5    7.88    0.77
   7   3   5    5.71    0.63
   7  -3   4    0.32    0.22
   7  -3   4   -0.02    0.22
  -7  -3  -4   -0.03    0.12
   7   3   4    0.04    0.17
  -7  -3  -3    4.59    0.33
   7  -3   3    6.42    0.57
   7   3   3    4.54    0.48
  -7  -3  -2    0.54    0.16
   7  -3   2    0.20    0.20
   7   3   2    0.14    0.18
   7   3   2    0.38    0.18
  -7  -3  -1    0.21    0.14
   7   3   1    0.01    0.14
   7   3   1    0.21    0.15
  -7   3  -1    0.30    0.20
  -7  -3   0   12.26    0.61
   7   3   0   12.73    0.69
  -7   3   0   11.50    0.65
   7   3   0   12.29    0.52
  -7  -3   1    2.99    0.34
  -7   3   1    2.83    0.36
   7   3  -1    2.32    0.32
  -7  -3   2   41.23    1.48
   7  -3  -2   39.50    1.26
  -7   3   2   39.94    1.41
   7   3  -2   40.83    1.46
  -7   3   2   41.35    1.52
  -7  -3   3    2.21    0.32
  -7   3   3    1.72    0.27
  -7   3   3    1.94    0.33
   7   3  -3    1.84    0.29
  -7  -3   4    1.11    0.25
  -7   3   4    1.55    0.27
  -7   3   4    1.56    0.29
   7   3  -4    1.51    0.31
  -7  -3   5    9.80    0.46
  -7  -3   5   10.05    0.63
  -7   3   5    9.46    0.60
  -7   3   5    9.52    0.58
  -7  -3   6    4.11    0.37
  -7  -3   6    3.47    0.46
  -7   3   6    4.19    0.47
  -7   3   6    2.90    0.39
  -7  -3   7    0.41    0.19
  -7  -3   7    0.18    0.18
  -7   3   7    0.28    0.20
  -7   3   7    0.52    0.21
  -7  -3   8    7.40    0.54
  -7  -3   8    7.75    0.60
  -7   3   8    7.58    0.54
  -7   3   8    7.27    0.58
  -7  -3   9    2.86    0.47
  -7  -3   9    2.31    0.39
  -7   3   9    2.78    0.41
  -7   3   9    3.61    0.53
  -7  -3  10   -0.08    0.16
  -7  -3  10   -0.01    0.10
  -7   3  10    0.65    0.25
  -7   3  10   -0.14    0.23
  -7  -3  11   -0.06    0.16
  -7  -3  11    0.55    0.28
  -7   3  11    0.66    0.32
  -7   3  11    0.02    0.18
  -7  -3  12    0.16    0.21
  -7  -3  12   -0.42    0.23
  -7   3  12    0.43    0.32
  -7  -3  13   -0.06    0.28
  -7  -3  13    0.15    0.21
  -7   3  13   -0.16    0.23
  -7  -3  14    0.77    0.42
  -7   3  14    0.49    0.38
  -7  -3  15   -0.06    0.34
  -7   3  15   -0.09    0.33
  -7  -3  16    0.47    0.43
  -7   3  16    0.15    0.38
  -7  -3  17   -0.49    0.35
  -7   3  17   -0.28    0.31
   7  -5  13    2.11    0.64
   7   5  13    0.85    0.49
   7  -5  12    0.33    0.39
   7   5  12    0.20    0.34
   7  -5  11    1.77    0.52
   7   5  11    1.36    0.48
   7  -5  10    0.75    0.39
   7   5  10    1.17    0.44
   7  -5   9    0.88    0.38
   7   5   9    0.09    0.28
   7  -5   8    0.25    0.27
   7   5   8    0.40    0.28
   7  -5   7   -0.22    0.25
   7  -5   7    0.48    0.30
   7   5   7   -0.14    0.23
   7  -5   6    2.95    0.50
   7  -5   6    2.95    0.53
   7   5   6    3.07    0.51
   7  -5   5    0.90    0.34
   7  -5   5    0.18    0.23
   7   5   5   -0.24    0.17
   7  -5   4    2.01    0.43
   7   5   4    2.38    0.38
   7  -5   3    2.57    0.45
  -7  -5  -3    2.31    0.26
   7   5   3    1.67    0.35
   7   5   3    2.22    0.34
  -7  -5  -2   -0.01    0.11
   7  -5   2    0.06    0.22
   7   5   2    0.08    0.17
   7   5   2   -0.09    0.13
   7  -5   1    8.54    0.63
  -7  -5  -1    8.96    0.49
   7   5   1    9.52    0.65
   7   5   1    8.68    0.47
  -7  -5   0    2.55    0.32
  -7   5   0    2.38    0.39
   7   5   0    2.72    0.26
   7   5   0    2.44    0.36
  -7  -5   1    1.27    0.25
  -7   5   1    2.05    0.35
   7   5  -1    1.95    0.32
  -7  -5   2    4.75    0.47
  -7   5   2    4.82    0.51
   7   5  -2    4.35    0.47
  -7   5   2    5.38    0.50
  -7  -5   3    4.18    0.45
  -7   5   3    3.40    0.41
  -7   5   3    4.47    0.50
   7   5  -3    4.92    0.50
  -7  -5   4    0.33    0.18
  -7   5   4    0.46    0.21
   7   5  -4    0.90    0.32
  -7   5   4    0.72    0.24
  -7  -5   5    1.25    0.29
  -7  -5   5    2.03    0.21
  -7   5   5    1.04    0.29
   7   5  -5    1.02    0.36
  -7   5   5    1.58    0.32
  -7  -5   6    0.56    0.17
  -7  -5   6    0.20    0.16
  -7   5   6    0.21    0.19
  -7   5   6    0.35    0.22
  -7  -5   7    1.53    0.26
  -7   5   7    1.54    0.33
  -7   5   7    1.84    0.38
  -7  -5   8    0.24    0.20
  -7  -5   8    0.77    0.24
  -7   5   8    0.64    0.30
  -7   5   8    0.51    0.22
  -7  -5   9    0.32    0.24
  -7  -5   9    0.89    0.28
  -7   5   9    1.16    0.36
  -7   5   9    0.96    0.28
  -7  -5  10    0.57    0.29
  -7  -5  10    0.52    0.26
  -7   5  10    0.49    0.25
  -7   5  10    0.42    0.30
  -7  -5  11    0.65    0.25
  -7  -5  11    1.85    0.42
  -7   5  11    0.92    0.39
  -7  -5  12    0.20    0.20
  -7  -5  12    0.43    0.29
  -7   5  12   -0.20    0.26
  -7  -5  13    3.05    0.54
  -7  -5  13    4.46    0.67
  -7   5  13    2.69    0.60
  -7  -5  14    0.22    0.36
  -7   5  14    0.37    0.40
  -7  -5  15    0.12    0.38
  -7   5  15    0.04    0.33
  -7  -5  16    0.20    0.40
  -7   5  16    0.11    0.40
  -7  -5  17    0.08    0.45
  -7   5  17   -0.23    0.41
   7  -7  13    0.09    0.41
   7   7  13   -0.29    0.34
   7  -7  12    1.34    0.53
   7   7  12    1.06    0.47
   7  -7  11   -0.01    0.28
   7   7  11   -0.37    0.26
   7  -7  10    0.03    0.25
   7   7  10    0.33    0.36
   7  -7   9    0.67    0.38
   7   7   9    0.57    0.35
   7  -7   8    0.73    0.38
   7   7   8    0.96    0.37
   7  -7   7    0.26    0.30
   7  -7   7    0.30    0.33
   7   7   7    0.41    0.29
   7  -7   6    0.83    0.39
   7  -7   6    0.71    0.36
   7   7   6    0.55    0.29
   7   7   6    0.78    0.36
   7  -7   5    0.02    0.30
   7   7   5    0.30    0.26
   7   7   5   -0.09    0.21
   7  -7   4    2.19    0.47
   7   7   4    2.49    0.46
   7   7   4    2.80    0.42
   7  -7   3   -0.03    0.27
   7   7   3    0.11    0.19
   7   7   3   -0.05    0.18
   7  -7   2    0.75    0.33
  -7  -7  -2    0.43    0.16
   7   7   2    0.58    0.21
   7   7   2    0.40    0.23
   7  -7   1    1.04    0.32
  -7  -7  -1    1.19    0.24
   7   7   1    1.17    0.31
   7   7   1    1.66    0.26
   7  -7   0    8.42    0.64
  -7  -7   0    7.23    0.50
   7   7   0    8.78    0.65
   7   7   0    8.37    0.42
  -7   7   1    1.99    0.39
   7   7  -1    1.68    0.33
  -7  -7   2    1.39    0.28
   7   7  -2    0.80    0.28
  -7   7   2    1.55    0.32
  -7   7   2    1.44    0.33
  -7  -7   3    0.70    0.23
   7   7  -3    0.18    0.25
  -7   7   3    0.72    0.25
  -7   7   3    0.30    0.23
  -7  -7   4    0.76    0.25
  -7   7   4    1.01    0.28
  -7   7   4    0.78    0.27
   7   7  -4    0.49    0.31
  -7  -7   5    9.65    0.67
  -7  -7   5    9.63    0.42
  -7   7   5    9.67    0.65
  -7   7   5    9.78    0.68
   7   7  -5    9.40    0.85
  -7  -7   6    0.93    0.19
  -7  -7   6    0.88    0.30
  -7   7   6    1.27    0.33
  -7   7   6    0.88    0.26
  -7  -7   7   -0.07    0.16
  -7  -7   7    0.02    0.15
  -7   7   7    0.08    0.20
  -7   7   7    0.09    0.21
  -7  -7   8    0.16    0.19
  -7  -7   8   -0.06    0.15
  -7   7   8    0.10    0.20
  -7   7   8    0.02    0.25
  -7  -7   9    3.40    0.45
  -7  -7   9    2.97    0.52
  -7   7   9    3.44    0.48
  -7   7   9    3.49    0.57
  -7  -7  10    4.81    0.58
  -7  -7  10    4.91    0.65
  -7   7  10    4.24    0.68
  -7   7  10    4.94    0.58
  -7  -7  11    3.28    0.56
  -7  -7  11    5.88    0.67
  -7   7  11    3.01    0.59
  -7  -7  12    0.69    0.32
  -7  -7  12    1.29    0.39
  -7   7  12    1.31    0.48
  -7  -7  13    0.00    0.22
  -7  -7  13    0.32    0.25
  -7   7  13    0.11    0.37
  -7  -7  14    2.09    0.48
  -7   7  14    0.99    0.46
  -7   7  15    0.02    0.37
  -7   7  16   -0.20    0.35
  -7   7  17    0.16    0.41
   7  -9  12    0.21    0.41
   7   9  12    0.19    0.36
   7   9  12    0.31    0.39
   7  -9  11    0.71    0.45
   7   9  11    0.50    0.39
   7   9  11    0.81    0.41
   7  -9  10    0.37    0.40
   7   9  10    0.35    0.36
   7   9  10    0.00    0.30
   7  -9   9    2.85    0.66
   7   9   9    2.79    0.62
   7   9   9    3.14    0.61
   7  -9   8   -0.03    0.27
   7  -9   8    0.01    0.33
   7   9   8    0.12    0.27
   7   9   8   -0.14    0.22
   7  -9   7    0.23    0.32
   7  -9   7   -0.03    0.28
   7   9   7   -0.31    0.23
   7   9   7    0.12    0.26
   7  -9   6    1.80    0.48
   7  -9   6    1.35    0.42
   7   9   6    1.27    0.40
   7   9   6    2.46    0.48
   7  -9   5    4.08    0.65
   7   9   5    4.10    0.56
   7   9   5    4.36    0.62
   7  -9   4    0.87    0.44
   7   9   4    1.35    0.39
   7   9   4    1.93    0.38
   7  -9   3    1.13    0.41
   7   9   3    1.05    0.35
   7   9   3    1.06    0.29
  -7  -9  -2    4.11    0.42
   7  -9   2    4.80    0.68
   7   9   2    4.34    0.46
   7   9   2    3.97    0.55
  -7  -9  -1   30.38    1.18
   7  -9   1   27.78    1.39
   7   9   1   27.65    1.36
   7   9   1   29.99    1.10
  -7  -9   0    4.01    0.46
   7  -9   0    3.95    0.56
   7   9   0    3.44    0.50
   7   9   0    3.67    0.34
   7  -9  -1    0.77    0.33
  -7  -9   1    0.11    0.11
   7   9  -1    0.70    0.30
   7  -9  -2    0.03    0.26
  -7  -9   2    0.05    0.16
  -7   9   2    0.11    0.20
   7   9  -2    0.32    0.26
   7  -9  -3   10.53    0.75
  -7  -9   3   10.81    0.70
  -7   9   3   11.33    0.76
   7   9  -3    9.74    0.86
  -7   9   3   11.23    0.73
  -7  -9   4    7.87    0.72
   7   9  -4    6.19    0.69
  -7   9   4    6.80    0.69
  -7   9   4    5.82    0.65
  -7  -9   5    7.83    0.75
   7   9  -5    6.95    0.81
  -7   9   5    7.62    0.61
  -7   9   5    6.33    0.70
  -7  -9   6    0.86    0.30
  -7   9   6    1.06    0.33
  -7   9   6    1.41    0.37
  -7  -9   7    9.55    0.73
  -7   9   7    9.40    0.69
  -7   9   7    9.43    0.91
  -7  -9   8    1.32    0.37
  -7   9   8    1.39    0.41
  -7   9   8    1.78    0.39
  -7  -9   9    4.66    0.65
  -7   9   9    3.39    0.51
  -7   9   9    3.07    0.60
  -7  -9  10    0.80    0.33
  -7   9  10    1.94    0.50
  -7  -9  11    1.46    0.42
  -7   9  11    2.67    0.58
  -7  -9  12    2.08    0.48
  -7   9  12    2.08    0.58
  -7  -9  13    0.93    0.36
  -7   9  13    0.14    0.39
  -7  -9  14   -0.16    0.22
  -7   9  14    0.50    0.46
  -7   9  15   -0.48    0.34
  -7   9  16    0.41    0.48
   7 -11  12   -0.23    0.37
   7  11  12   -0.03    0.37
   7  11  12   -0.44    0.33
   7 -11  11   -0.06    0.41
   7  11  11    0.13    0.34
   7  11  11    0.06    0.37
   7 -11  10    0.79    0.47
   7  11  10    0.34    0.41
   7  11  10    0.13    0.34
   7 -11   9    0.36    0.37
   7  11   9   -0.13    0.29
   7  11   9   -0.07    0.30
   7 -11   8    0.62    0.42
   7 -11   8    0.25    0.34
   7  11   8    0.97    0.38
   7  11   8    0.69    0.37
   7 -11   7    0.46    0.39
   7 -11   7    0.31    0.31
   7  11   7    0.11    0.29
   7  11   7    0.51    0.36
   7 -11   6    2.30    0.57
   7  11   6    2.34    0.51
   7  11   6    3.11    0.60
   7 -11   5    2.36    0.56
   7  11   5    1.99    0.47
   7  11   5    2.40    0.49
   7 -11   4   -0.22    0.34
   7  11   4    0.32    0.28
   7  11   4    0.12    0.26
   7 -11   3    1.90    0.53
   7  11   3    1.43    0.43
   7  11   3    1.92    0.38
   7 -11   2    0.87    0.42
   7  11   2    1.04    0.39
  -7 -11  -1    4.88    0.52
   7 -11   1    4.42    0.69
   7  11   1    4.99    0.64
  -7 -11   0    0.01    0.17
   7 -11   0   -0.12    0.30
   7  11   0    0.25    0.28
   7 -11  -1    0.17    0.32
  -7 -11   1    0.05    0.16
   7  11  -1    0.90    0.35
   7 -11  -2    0.04    0.28
  -7 -11   2   -0.29    0.15
  -7  11   2    0.35    0.26
   7  11  -2    0.45    0.34
   7 -11  -3    0.77    0.38
  -7 -11   3    1.08    0.33
  -7  11   3    0.51    0.28
   7  11  -3    0.76    0.39
   7 -11  -4    1.09    0.39
  -7 -11   4    0.89    0.32
   7  11  -4    0.73    0.43
  -7  11   4    0.90    0.34
   7 -11  -5    6.18    0.71
  -7 -11   5    6.85    0.76
   7  11  -5    7.75    0.90
  -7  11   5    6.60    0.74
   7 -11  -6   12.41    0.85
  -7 -11   6   12.66    0.88
  -7  11   6   12.25    0.89
  -7 -11   7   -0.05    0.22
  -7  11   7    0.26    0.29
  -7  11   7    0.04    0.27
  -7 -11   8    6.78    0.81
  -7  11   8    5.50    0.67
  -7  11   8    7.03    0.86
  -7 -11   9    8.65    0.94
  -7  11   9    8.84    1.00
  -7 -11  10   11.31    0.90
  -7  11  10   10.01    1.07
  -7 -11  11    5.94    0.80
  -7  11  11    6.66    0.91
  -7 -11  12    1.24    0.40
  -7  11  12    0.92    0.47
  -7 -11  13    0.57    0.32
  -7  11  13    0.18    0.35
  -7 -11  14    1.78    0.48
  -7  11  14    1.64    0.58
  -7 -11  15    0.49    0.32
  -7  11  15    0.80    0.51
  -7  11  16    0.12    0.47
   7 -13  11   -0.04    0.41
   7  13  11    0.40    0.42
   7  13  11    0.93    0.53
   7 -13  10   -0.04    0.39
   7  13  10   -0.12    0.35
   7  13  10    0.47    0.44
   7 -13   9    5.77    0.86
   7 -13   9    6.43    0.98
   7  13   9    5.16    0.82
   7  13   9    7.29    0.97
   7 -13   8    1.62    0.54
   7 -13   8    1.62    0.57
   7  13   8    1.66    0.53
   7  13   8    1.21    0.48
   7 -13   7   -0.50    0.26
   7  13   7    0.08    0.29
   7 -13   6    2.76    0.62
   7  13   6    1.91    0.52
   7 -13   5   13.07    1.24
   7  13   5   13.79    1.08
   7 -13   4    1.35    0.52
   7  13   4    0.59    0.35
   7 -13   3    1.25    0.49
   7  13   3    1.72    0.46
   7 -13   2    0.74    0.43
   7  13   2    0.57    0.35
   7 -13   1    6.87    0.86
  -7 -13  -1    7.17    0.67
   7  13   1    5.52    0.72
  -7 -13   0    1.59    0.36
   7 -13   0    0.91    0.45
   7  13   0    1.57    0.45
   7 -13  -1    1.87    0.53
  -7 -13   1    3.36    0.49
   7  13  -1    2.94    0.55
  -7 -13   2    2.93    0.50
   7 -13  -2    2.81    0.58
   7  13  -2    4.01    0.65
   7 -13  -3   14.28    0.99
  -7 -13   3   12.95    0.88
  -7  13   3   13.73    0.94
   7  13  -3   13.44    1.05
  -7 -13   4    4.23    0.62
   7 -13  -4    5.16    0.71
   7  13  -4    6.15    0.87
  -7  13   4    5.97    0.75
  -7 -13   5    5.97    0.75
   7 -13  -5    8.48    0.88
   7  13  -5    6.38    0.91
  -7  13   5    7.03    0.85
  -7 -13   6   -0.35    0.17
   7 -13  -6    0.25    0.35
  -7  13   6   -0.45    0.23
  -7 -13   7    3.89    0.64
  -7  13   7    2.69    0.58
  -7 -13   8    0.26    0.28
   7 -13  -8    0.12    0.32
  -7  13   8    0.38    0.34
  -7 -13   9    2.22    0.54
  -7  13   9    2.06    0.54
  -7 -13  10    0.09    0.24
  -7  13  10    0.58    0.41
  -7 -13  11    0.39    0.28
  -7  13  11    0.38    0.41
  -7 -13  12   -0.09    0.22
  -7  13  12    0.27    0.40
  -7 -13  13    0.54    0.36
  -7  13  13    0.12    0.43
  -7 -13  14    0.24    0.29
  -7  13  14   -0.49    0.35
  -7 -13  15    1.18    0.48
  -7  13  15    0.31    0.48
   7 -15  10    0.85    0.53
   7  15  10    0.68    0.46
   7 -15   9    0.44    0.45
   7 -15   9    0.61    0.44
   7  15   9    0.06    0.32
   7 -15   8    0.84    0.48
   7 -15   8    0.95    0.50
   7  15   8    0.38    0.38
   7 -15   7   -0.23    0.40
   7  15   7   -0.03    0.34
   7 -15   6    0.37    0.42
   7  15   6    0.75    0.44
   7 -15   5    1.39    0.55
   7  15   5    0.43    0.39
   7 -15   4    1.55    0.56
   7  15   4    1.11    0.47
   7 -15   3   -0.19    0.38
   7  15   3    1.41    0.49
   7 -15   2   -0.13    0.37
   7  15   2   -0.21    0.29
   7 -15   1   -0.05    0.37
   7  15   1   -0.39    0.31
   7 -15   0    0.12    0.39
  -7 -15   0    0.01    0.22
   7  15   0   -0.18    0.33
  -7 -15   1    5.26    0.66
   7 -15  -1    4.48    0.79
   7  15  -1    3.98    0.69
  -7 -15   2   -0.16    0.22
   7 -15  -2   -0.23    0.37
   7  15  -2    0.03    0.38
  -7 -15   3   12.33    0.93
   7 -15  -3   11.91    1.18
   7  15  -3   12.10    1.19
  -7  15   3   11.39    1.09
   7 -15  -4   -0.11    0.33
  -7 -15   4    0.00    0.26
  -7  15   4    0.30    0.35
   7  15  -4   -0.46    0.46
  -7 -15   5    2.78    0.56
   7 -15  -5    2.00    0.57
  -7  15   5    3.05    0.60
   7 -15  -6    0.07    0.33
  -7 -15   6    0.30    0.29
  -7  15   6    0.02    0.32
  -7 -15   7    3.21    0.61
  -7  15   7    2.34    0.58
  -7 -15   8   -0.13    0.22
  -7  15   8    0.23    0.36
  -7 -15   9    0.00    0.23
  -7  15   9    1.10    0.50
  -7 -15  10    2.40    0.57
  -7  15  10    2.64    0.66
  -7 -15  11   -0.02    0.25
  -7  15  11    0.35    0.39
  -7 -15  12    0.71    0.39
  -7  15  12    0.85    0.50
  -7 -15  13    0.99    0.40
  -7  15  13   -0.39    0.37
  -7  15  14    1.41    0.59
   7 -17   9    0.39    0.50
   7  17   9    0.35    0.46
   7 -17   8   -0.03    0.38
   7 -17   8    0.49    0.48
   7  17   8   -0.03    0.40
   7 -17   7    0.31    0.47
   7  17   7   -0.08    0.38
   7 -17   6    1.00    0.54
   7  17   6    0.89    0.47
   7 -17   5    1.22    0.54
   7  17   5    1.14    0.46
   7 -17   4    0.40    0.42
   7  17   4   -0.06    0.33
   7 -17   3    3.07    0.68
   7  17   3    2.66    0.62
   7 -17   2   -0.06    0.38
   7  17   2    0.31    0.40
   7 -17   1    6.18    0.92
   7  17   1    4.61    0.76
   7 -17   0    0.66    0.45
  -7 -17   0    0.71    0.32
   7  17   0    0.86    0.49
  -7 -17   1    0.53    0.32
   7 -17  -1    0.28    0.41
   7  17  -1    0.73    0.48
  -7 -17   2    1.33    0.41
   7 -17  -2    1.37    0.53
   7  17  -2    0.86    0.54
   7 -17  -3    2.96    0.65
  -7 -17   3    2.87    0.57
   7  17  -3    4.49    0.88
  -7  17   3    2.92    0.59
   7 -17  -4    0.56    0.43
  -7 -17   4    0.75    0.40
   7  17  -4    0.29    0.53
  -7  17   4    0.77    0.44
   7 -17  -5    0.10    0.41
  -7 -17   5    1.56    0.48
  -7  17   5    0.89    0.40
  -7 -17   6    1.84    0.53
   7 -17  -6    3.23    0.68
  -7  17   6    2.78    0.63
  -7 -17   7    1.98    0.53
  -7  17   7    2.17    0.57
  -7 -17   8    0.10    0.29
  -7  17   8   -0.23    0.31
  -7 -17   9    0.88    0.40
  -7  17   9    0.30    0.38
  -7 -17  10    1.44    0.46
  -7  17  10    1.37    0.55
  -7 -17  11    0.84    0.37
  -7  17  11    0.73    0.51
  -7 -17  12    0.80    0.36
  -7  17  12    0.03    0.39
  -7  17  13    0.09    0.41
   7 -19   8    0.17    0.47
   7  19   8    0.36    0.44
   7  19   7    0.07    0.48
   7 -19   6    0.65    0.51
   7  19   6    0.07    0.41
   7 -19   5   -0.05    0.45
   7  19   5   -0.27    0.35
   7 -19   4    1.07    0.51
   7  19   4    0.46    0.45
   7 -19   3   -0.29    0.34
   7  19   3   -0.16    0.41
   7 -19   2    0.57    0.47
   7  19   2    0.06    0.43
   7 -19   1   -0.27    0.34
   7  19   1    0.08    0.45
   7 -19   0    0.21    0.43
   7  19   0    0.70    0.52
   7 -19  -1    0.02    0.37
  -7 -19   1   -0.06    0.27
   7  19  -1   -0.24    0.40
   7 -19  -2   -0.26    0.32
  -7 -19   2   -0.11    0.29
   7  19  -2   -0.51    0.46
  -7 -19   3    0.87    0.41
   7 -19  -3    1.27    0.50
   7  19  -3    1.08    0.68
   7 -19  -4    0.68    0.44
  -7 -19   4    0.53    0.35
  -7  19   4    0.59    0.40
   7 -19  -5    1.09    0.53
  -7 -19   5    0.40    0.32
  -7  19   5    0.54    0.39
   7 -19  -6    1.33    0.53
  -7 -19   6    1.30    0.44
  -7  19   6    0.67    0.40
  -7 -19   7    0.38    0.36
  -7  19   7    0.53    0.42
  -7 -19   8    0.56    0.40
  -7  19   8   -0.22    0.32
  -7 -19   9    0.52    0.40
  -7  19   9    0.67    0.48
  -7 -19  10    0.89    0.41
  -7  19  10   -0.39    0.34
  -7  19  11   -0.22    0.35
  -7  19  12    0.11    0.44
   7  21   6   -0.24    0.43
   7  21   5    0.47    0.53
   7  21   4   -0.50    0.35
   7 -21   3    0.22    0.43
   7  21   3    1.06    0.56
   7 -21   2    0.33    0.47
   7  21   2   -0.09    0.42
   7 -21   1    1.24    0.60
   7  21   1    0.73    0.56
   7 -21   0    0.23    0.46
   7  21   0   -0.95    0.40
   7 -21  -1   -0.01    0.44
   7  21  -1   -0.10    0.48
   7 -21  -2   -0.31    0.37
  -7 -21   2    0.90    0.39
   7  21  -2    0.17    0.58
   7 -21  -3    1.62    0.56
  -7 -21   3    1.31    0.46
   7  21  -3    0.90    0.69
  -7 -21   4    0.50    0.39
   7 -21  -4    0.20    0.42
  -7 -21   5    0.53    0.36
   7 -21  -5   -0.33    0.34
  -7  21   5   -0.40    0.29
  -7 -21   6    1.12    0.47
  -7  21   6    0.48    0.47
  -7 -21   7    0.08    0.36
  -7  21   7    0.19    0.42
  -7 -21   8    0.01    0.34
  -7  21   8    0.48    0.46
  -7  21   9    1.95    0.69
  -7  21  10    2.71    0.77
   7  23   4   -0.06    0.54
   7  23   3   -1.50    0.38
   7  23   2    0.61    0.62
   7  23   1    0.09    0.64
   7 -23   0   -0.04    0.48
   7  23   0   -0.25    0.57
   7 -23  -1   -0.04    0.39
   7  23  -1   -1.07    0.54
   7 -23  -2    0.30    0.47
   7  23  -2    0.20    0.71
   7 -23  -3    0.34    0.48
  -7 -23   3    0.14    0.34
   7 -23  -4    0.65    0.48
  -7 -23   4    0.99    0.47
  -7 -23   5    0.67    0.40
  -7  23   5    0.44    0.44
  -7  23   6   -0.06    0.32
  -7  23   7    0.06    0.39
   8   0  13    1.40    0.53
   8   0  12    2.33    0.64
   8   0  11    0.30    0.36
   8   0  10    1.00    0.42
   8   0   9    0.54    0.35
   8   0   8    2.23    0.50
   8   0   7    0.05    0.24
   8   0   6   -0.03    0.22
   8   0   5    0.12    0.22
   8   0   4    0.38    0.25
   8   0   4    0.92    0.29
  -8   0  -3   -0.23    0.16
   8   0   3    0.15    0.17
   8   0   2  233.42    6.81
  -8   0  -2  240.88    6.86
  -8   0  -1    0.09    0.13
  -8   0   0   26.55    1.09
   8   0   0   25.03    1.07
   8   0  -1    0.11    0.12
  -8   0   1   -0.06    0.10
   8   0  -2   38.66    1.35
  -8   0   2   37.56    1.44
  -8   0   3    0.00    0.12
  -8   0   3    0.21    0.11
   8   0  -3   -0.14    0.12
   8   0  -4   40.83    1.41
  -8   0   4   40.48    1.35
  -8   0   4   41.71    1.57
  -8   0   5   -0.14    0.09
  -8   0   5    0.05    0.13
  -8   0   6    1.30    0.28
  -8   0   6    1.47    0.26
  -8   0   7   -0.24    0.14
  -8   0   7    0.22    0.15
  -8   0   8    1.45    0.29
  -8   0   8    2.08    0.37
  -8   0   9    0.19    0.19
  -8   0   9   -0.13    0.14
  -8   0  10   14.14    0.86
  -8   0  10   11.93    0.80
  -8   0  11    0.28    0.30
  -8   0  11   -0.16    0.15
  -8   0  12   13.07    0.86
  -8   0  12   12.66    0.93
  -8   0  13    0.17    0.35
  -8   0  14    2.43    0.58
  -8   0  15   -0.33    0.32
  -8   0  16    1.05    0.50
  -8   0  17   -0.13    0.41
  -8   0  18    0.27    0.50
   8  -2  13    2.72    0.73
   8   2  13    3.15    0.77
   8  -2  12    0.57    0.42
   8   2  12    0.28    0.38
   8  -2  11    0.48    0.38
   8   2  11    0.61    0.38
   8  -2  10    0.29    0.33
   8   2  10    0.02    0.29
   8  -2   9    4.07    0.70
   8   2   9    2.23    0.51
   8  -2   8   -0.19    0.24
   8   2   8    0.06    0.27
   8  -2   7    4.18    0.66
   8   2   7    4.48    0.64
   8  -2   6    0.73    0.31
   8   2   6    0.16    0.24
   8  -2   5    0.20    0.23
   8  -2   5    0.51    0.30
   8   2   5    0.71    0.27
  -8  -2  -4    0.15    0.17
   8  -2   4    0.30    0.25
   8  -2   4    0.08    0.19
   8   2   4    0.53    0.24
   8  -2   3    1.03    0.30
   8  -2   3    1.87    0.35
  -8  -2  -3    2.13    0.31
   8   2   3    1.78    0.34
  -8  -2  -2   62.53    2.05
   8   2   2   62.31    2.07
  -8  -2  -1    1.88    0.29
   8   2   1    1.56    0.26
   8   2   1    1.23    0.28
  -8   2  -1    1.49    0.32
  -8  -2   0    0.01    0.07
  -8   2   0    0.29    0.18
   8   2   0    0.50    0.18
   8   2   0    0.33    0.15
   8  -2  -1    1.38    0.22
  -8  -2   1    1.34    0.27
   8   2  -1    1.61    0.27
  -8   2   1    1.24    0.27
  -8  -2   2    6.78    0.49
   8  -2  -2    7.48    0.40
  -8   2   2    6.65    0.51
   8   2  -2    7.92    0.50
  -8  -2   3   12.76    0.71
   8  -2  -3   13.89    0.56
   8   2  -3   13.42    0.68
  -8   2   3   13.54    0.64
  -8   2   3   11.98    0.69
   8  -2  -4    0.50    0.18
  -8  -2   4    0.73    0.23
  -8  -2   4    0.64    0.13
  -8   2   4    0.56    0.19
   8   2  -4    0.69    0.24
  -8   2   4    1.24    0.27
  -8  -2   5    6.41    0.38
  -8  -2   5    7.08    0.52
   8   2  -5    6.70    0.59
  -8   2   5    7.53    0.53
  -8   2   5    7.28    0.46
  -8  -2   6    5.19    0.56
  -8  -2   6    5.22    0.38
  -8   2   6    5.89    0.58
  -8  -2   7    0.05    0.13
  -8  -2   7    0.11    0.16
  -8   2   7    0.21    0.17
  -8   2   7    0.30    0.21
  -8  -2   8    0.22    0.16
  -8  -2   8    0.09    0.18
  -8   2   8    0.19    0.18
  -8   2   8    0.13    0.21
  -8  -2   9    2.91    0.48
  -8  -2   9    4.00    0.50
  -8   2   9    3.81    0.52
  -8   2   9    4.09    0.53
  -8  -2  10    1.52    0.34
  -8  -2  10    2.69    0.47
  -8   2  10    1.74    0.37
  -8   2  10    2.49    0.45
  -8  -2  11    1.13    0.33
  -8  -2  11    0.78    0.34
  -8   2  11    1.24    0.33
  -8   2  11    2.17    0.46
  -8  -2  12    1.12    0.39
  -8  -2  12    1.03    0.34
  -8   2  12    1.39    0.36
  -8   2  12    2.03    0.48
  -8  -2  13    3.95    0.64
  -8  -2  13    4.09    0.59
  -8   2  13    2.72    0.57
  -8  -2  14    0.16    0.35
  -8   2  14   -0.14    0.27
  -8  -2  15    0.54    0.45
  -8   2  15    0.43    0.39
  -8  -2  16    0.38    0.44
  -8   2  16    0.36    0.39
  -8  -2  17    0.14    0.42
  -8   2  17   -0.33    0.29
   8  -4  13   -0.18    0.38
   8   4  13    0.57    0.44
   8  -4  12    2.10    0.62
   8   4  12    0.84    0.45
   8  -4  11    0.34    0.34
   8   4  11   -0.20    0.30
   8  -4  10    4.48    0.75
   8   4  10    4.94    0.77
   8  -4   9    0.04    0.25
   8   4   9   -0.01    0.28
   8  -4   8    0.95    0.38
   8   4   8    1.01    0.38
   8  -4   7    0.34    0.27
   8   4   7   -0.18    0.22
   8  -4   6    6.28    0.69
   8  -4   6    6.50    0.76
   8   4   6    6.16    0.69
   8  -4   5   -0.05    0.30
   8  -4   5    0.21    0.25
   8   4   5    0.53    0.28
   8  -4   4    2.30    0.43
   8  -4   4    0.36    0.30
   8   4   4    1.46    0.34
   8  -4   3    1.42    0.35
  -8  -4  -3    1.11    0.23
   8   4   3    1.09    0.30
   8   4   3    0.84    0.25
  -8  -4  -2    0.27    0.15
   8  -4   2    0.14    0.23
   8   4   2    0.32    0.18
   8   4   2    0.36    0.22
  -8  -4  -1    6.46    0.44
  -8   4  -1    7.89    0.69
   8   4   1    6.56    0.42
   8   4   1    7.03    0.55
  -8  -4   0    9.87    0.56
   8   4   0    9.85    0.64
   8   4   0    9.44    0.47
  -8   4   0   10.57    0.67
  -8  -4   1    5.65    0.53
   8   4  -1    5.66    0.53
   8   4  -1    6.18    0.31
  -8   4   1    6.94    0.53
  -8  -4   2   19.47    0.92
   8  -4  -2   19.75    0.73
  -8   4   2   21.08    0.98
   8   4  -2   19.18    0.93
  -8  -4   3    1.54    0.29
  -8   4   3    1.78    0.34
   8   4  -3    2.09    0.34
  -8   4   3    1.60    0.29
  -8  -4   4   14.15    0.78
   8   4  -4   13.14    0.78
  -8   4   4   13.36    0.71
  -8   4   4   14.35    0.79
  -8  -4   5    1.00    0.26
  -8  -4   5    1.40    0.18
   8   4  -5    1.59    0.37
  -8   4   5    1.74    0.32
  -8   4   5    1.13    0.28
  -8  -4   6   51.85    1.97
  -8  -4   6   52.61    1.64
  -8   4   6   52.41    1.91
  -8   4   6   51.42    1.87
  -8  -4   7    0.10    0.16
  -8  -4   7    0.22    0.16
  -8   4   7    0.07    0.21
  -8   4   7    0.41    0.19
  -8  -4   8   -0.10    0.15
  -8  -4   8   -0.06    0.15
  -8   4   8    0.22    0.19
  -8   4   8    0.00    0.22
  -8  -4   9    0.57    0.25
  -8  -4   9    0.75    0.27
  -8   4   9    0.61    0.30
  -8   4   9    0.58    0.25
  -8  -4  10   -0.01    0.23
  -8  -4  10    0.76    0.30
  -8   4  10    0.54    0.31
  -8   4  10    0.72    0.25
  -8  -4  11    0.17    0.26
  -8  -4  11    0.59    0.28
  -8   4  11   -0.19    0.17
  -8   4  11    0.04    0.26
  -8  -4  12    2.75    0.50
  -8   4  12    2.50    0.54
  -8  -4  13    0.86    0.30
  -8  -4  13    0.53    0.34
  -8   4  13    0.39    0.36
  -8  -4  14    0.23    0.35
  -8  -4  14   -0.02    0.22
  -8   4  14    0.14    0.35
  -8  -4  15   -0.11    0.33
  -8   4  15   -0.48    0.25
  -8  -4  16   -0.41    0.32
  -8   4  16    0.04    0.36
  -8   4  17   -0.14    0.36
   8  -6  12    1.16    0.50
   8   6  12    1.41    0.48
   8  -6  11   -0.37    0.30
   8   6  11   -0.08    0.32
   8  -6  10    0.17    0.33
   8   6  10    0.05    0.27
   8  -6   9    2.67    0.60
   8   6   9    1.80    0.50
   8  -6   8    0.06    0.25
   8   6   8    0.24    0.27
   8  -6   7    0.42    0.30
   8   6   7    0.31    0.28
   8  -6   6    1.64    0.44
   8  -6   6    1.68    0.44
   8   6   6    1.45    0.41
   8  -6   5    2.95    0.53
   8  -6   5    3.57    0.58
   8   6   5    2.38    0.49
   8   6   5    3.88    0.53
   8  -6   4    3.48    0.56
   8   6   4    2.04    0.37
   8   6   4    2.62    0.51
   8  -6   3    0.39    0.31
   8   6   3    0.02    0.19
   8   6   3    0.04    0.22
  -8  -6  -2    0.38    0.17
   8  -6   2    0.16    0.27
   8   6   2    0.45    0.23
   8   6   2    0.05    0.16
  -8  -6  -1    2.61    0.34
   8  -6   1    2.86    0.47
   8   6   1    2.84    0.43
   8   6   1    2.85    0.33
  -8  -6   0    1.19    0.25
   8   6   0    0.69    0.17
   8   6   0    0.99    0.28
  -8   6   0    0.76    0.29
  -8   6   1    0.87    0.28
   8   6  -1    0.90    0.26
  -8  -6   2   35.84    1.43
   8   6  -2   36.26    1.47
  -8   6   2   35.17    1.48
  -8  -6   3   11.94    0.70
  -8   6   3   11.04    0.68
   8   6  -3   10.52    0.70
  -8   6   3   10.89    0.71
  -8  -6   4    6.93    0.65
   8   6  -4    7.55    0.69
  -8   6   4    6.75    0.62
  -8   6   4    5.41    0.59
  -8  -6   5    0.49    0.23
   8   6  -5    0.05    0.28
  -8   6   5    0.34    0.22
  -8   6   5    0.35    0.23
  -8  -6   6    6.22    0.35
  -8  -6   6    5.00    0.59
  -8   6   6    6.87    0.67
  -8   6   6    6.46    0.65
  -8  -6   7    0.34    0.17
  -8  -6   7    0.34    0.21
  -8   6   7    0.30    0.23
  -8   6   7    0.61    0.26
  -8  -6   8    0.06    0.17
  -8  -6   8   -0.19    0.15
  -8   6   8   -0.18    0.22
  -8   6   8    0.48    0.24
  -8  -6   9    0.13    0.20
  -8  -6   9    0.06    0.20
  -8   6   9   -0.18    0.22
  -8   6   9    0.05    0.20
  -8  -6  10    3.29    0.48
  -8  -6  10    1.89    0.43
  -8   6  10    3.36    0.52
  -8   6  10    3.65    0.61
  -8  -6  11    0.15    0.23
  -8  -6  11    0.07    0.23
  -8   6  11   -0.04    0.26
  -8  -6  12    0.43    0.33
  -8  -6  12    0.54    0.30
  -8   6  12    0.56    0.39
  -8  -6  13    0.02    0.23
  -8   6  13   -0.15    0.29
  -8  -6  14    0.33    0.27
  -8   6  14    0.04    0.35
  -8   6  15    0.70    0.44
  -8   6  16   -0.12    0.35
  -8   6  17    0.64    0.49
   8  -8  12   -0.08    0.33
   8   8  12    0.18    0.38
   8   8  12   -0.17    0.35
   8  -8  11    0.05    0.32
   8   8  11    0.04    0.32
   8   8  11   -0.12    0.31
   8  -8  10    0.95    0.40
   8   8  10    1.33    0.51
   8   8  10    0.40    0.37
   8  -8   9    0.69    0.42
   8   8   9    0.41    0.36
   8   8   9    0.55    0.34
   8  -8   8    0.33    0.28
   8   8   8    0.64    0.36
   8   8   8    0.30    0.29
   8  -8   7    0.27    0.29
   8  -8   7    0.80    0.40
   8   8   7    0.36    0.31
   8   8   7    0.35    0.28
   8  -8   6    0.51    0.36
   8  -8   6    0.06    0.24
   8   8   6   -0.02    0.23
   8   8   6    0.08    0.26
   8  -8   5    0.29    0.35
   8   8   5   -0.04    0.24
   8   8   5   -0.12    0.22
   8  -8   4    0.93    0.42
   8   8   4    0.09    0.22
   8   8   4    0.56    0.30
   8  -8   3    0.09    0.29
   8   8   3    0.19    0.21
   8   8   3    0.13    0.22
  -8  -8  -2    0.00    0.12
   8  -8   2   -0.17    0.26
   8   8   2    0.03    0.18
   8   8   2    0.09    0.21
   8  -8   1   -0.17    0.22
  -8  -8  -1    0.17    0.15
   8   8   1    0.07    0.19
   8   8   1   -0.14    0.15
  -8  -8   0   -0.09    0.13
   8  -8   0    0.01    0.25
   8   8   0    0.16    0.21
   8  -8  -1    8.32    0.82
   8   8  -1    8.53    0.76
  -8  -8   2    4.45    0.51
  -8   8   2    4.21    0.57
   8   8  -2    3.59    0.51
  -8  -8   3    6.59    0.66
   8   8  -3    6.76    0.68
  -8   8   3    7.87    0.72
  -8   8   3    5.85    0.64
  -8  -8   4    0.23    0.19
  -8   8   4    0.46    0.23
  -8   8   4    0.13    0.24
   8   8  -4    0.05    0.30
  -8  -8   5    0.24    0.20
  -8   8   5    0.55    0.25
  -8   8   5    0.33    0.25
   8   8  -5    0.19    0.34
  -8  -8   6   10.96    0.76
  -8   8   6    9.77    0.70
  -8   8   6    9.32    0.72
  -8  -8   7    1.35    0.35
  -8   8   7    1.58    0.36
  -8   8   7    1.43    0.42
  -8  -8   8    0.39    0.24
  -8   8   8    0.35    0.30
  -8   8   8    0.14    0.22
  -8  -8   9    1.16    0.36
  -8   8   9    1.37    0.36
  -8   8   9    1.02    0.42
  -8  -8  10    0.17    0.26
  -8   8  10    0.30    0.25
  -8   8  10    0.47    0.33
  -8  -8  11    0.09    0.22
  -8   8  11   -0.07    0.31
  -8  -8  12    0.01    0.21
  -8   8  12   -0.08    0.31
  -8  -8  13    0.39    0.26
  -8   8  13   -0.08    0.30
  -8  -8  14    0.43    0.29
  -8   8  14    0.49    0.39
  -8  -8  15    0.01    0.22
  -8   8  15    0.70    0.45
  -8   8  16   -0.23    0.33
  -8   8  17   -0.21    0.42
   8 -10  12    0.58    0.52
   8  10  12    1.16    0.50
   8  10  12    1.83    0.60
   8 -10  11    1.04    0.52
   8  10  11    1.18    0.50
   8  10  11    1.21    0.55
   8 -10  10   -0.24    0.37
   8  10  10    0.97    0.47
   8  10  10    1.02    0.46
   8 -10   9    0.58    0.43
   8  10   9    0.51    0.37
   8  10   9    1.14    0.46
   8 -10   8    0.68    0.39
   8 -10   8    0.37    0.38
   8  10   8    0.14    0.30
   8  10   8    0.08    0.32
   8 -10   7    1.07    0.47
   8 -10   7    1.06    0.41
   8  10   7    0.72    0.37
   8  10   7    0.55    0.33
   8 -10   6    1.02    0.45
   8  10   6    0.49    0.31
   8  10   6    0.39    0.33
   8 -10   5    4.82    0.75
   8  10   5    5.70    0.65
   8  10   5    5.24    0.75
   8 -10   4    2.14    0.54
   8  10   4    2.96    0.49
   8  10   4    1.46    0.45
   8 -10   3    5.45    0.77
   8  10   3    7.50    0.83
   8 -10   2    9.07    0.94
   8  10   2    6.70    0.79
   8 -10   1    2.52    0.57
  -8 -10  -1    3.56    0.44
   8  10   1    2.57    0.48
   8 -10   0    0.12    0.28
  -8 -10   0    0.44    0.22
   8  10   0    0.49    0.30
   8 -10  -1    8.46    0.86
   8  10  -1    7.41    0.76
   8 -10  -2    1.35    0.41
  -8 -10   2    2.01    0.38
   8  10  -2    1.97    0.44
  -8 -10   3    0.80    0.27
   8 -10  -3    1.72    0.44
   8  10  -3    0.76    0.38
  -8  10   3    1.31    0.36
  -8 -10   4    1.40    0.35
  -8  10   4    1.41    0.40
  -8  10   4    1.89    0.44
   8  10  -4    1.36    0.44
  -8 -10   5    0.65    0.26
   8  10  -5    0.63    0.43
  -8  10   5    0.65    0.30
  -8  10   5    0.41    0.30
  -8 -10   6    1.96    0.42
  -8  10   6    1.40    0.39
  -8  10   6    0.84    0.33
  -8 -10   7    4.80    0.67
  -8  10   7    6.39    0.71
  -8  10   7    7.15    0.81
  -8 -10   8    1.83    0.44
  -8  10   8    1.22    0.35
  -8  10   8    1.35    0.45
  -8 -10   9    0.42    0.31
  -8  10   9    0.27    0.27
  -8  10   9    0.09    0.32
  -8 -10  10   -0.09    0.20
  -8  10  10    0.06    0.32
  -8 -10  11    1.74    0.47
  -8  10  11    1.81    0.54
  -8 -10  12    1.60    0.45
  -8  10  12    1.40    0.50
  -8 -10  13    0.73    0.35
  -8  10  13    1.31    0.54
  -8 -10  14   -0.05    0.18
  -8  10  14   -0.07    0.34
  -8 -10  15    0.83    0.36
  -8  10  15    0.08    0.43
  -8  10  16   -0.02    0.42
   8 -12  11   -0.19    0.35
   8  12  11    0.40    0.39
   8 -12  10    0.44    0.44
   8  12  10    0.35    0.40
   8 -12   9    0.99    0.49
   8  12   9    1.30    0.50
   8 -12   8    0.94    0.48
   8 -12   8    1.69    0.54
   8  12   8    0.98    0.43
   8 -12   7    3.97    0.74
   8 -12   7    3.48    0.70
   8  12   7    3.90    0.72
   8 -12   6    1.43    0.50
   8  12   6    1.51    0.47
   8 -12   5    0.02    0.37
   8  12   5    0.33    0.33
   8 -12   4    1.77    0.54
   8  12   4    1.30    0.41
   8 -12   3    2.27    0.58
   8  12   3    2.35    0.55
   8 -12   2    1.61    0.54
   8  12   2    0.92    0.38
   8 -12   1    0.28    0.38
  -8 -12  -1    0.00    0.16
   8  12   1   -0.19    0.23
  -8 -12   0   -0.07    0.18
   8 -12   0   -0.56    0.25
   8  12   0    0.42    0.30
   8 -12  -1    4.11    0.66
   8  12  -1    4.50    0.65
   8 -12  -2   14.35    0.99
  -8 -12   2   13.74    0.86
   8  12  -2   14.08    1.03
  -8 -12   3    1.56    0.37
   8 -12  -3    1.42    0.43
   8  12  -3    1.77    0.50
  -8  12   3    1.24    0.38
  -8 -12   4   -0.09    0.20
   8 -12  -4   -0.20    0.29
   8  12  -4    0.75    0.45
  -8  12   4    0.50    0.30
  -8 -12   5    6.35    0.76
   8 -12  -5    7.46    0.82
   8  12  -5    4.92    0.80
  -8  12   5    6.66    0.81
  -8 -12   6   11.42    1.04
   8 -12  -6   10.76    0.87
  -8  12   6   10.89    1.03
  -8 -12   7    2.92    0.54
   8 -12  -7    2.41    0.55
  -8  12   7    3.51    0.63
  -8 -12   8    0.13    0.24
  -8  12   8   -0.17    0.27
  -8  12   8   -0.05    0.36
  -8 -12   9    0.93    0.37
  -8  12   9    1.30    0.48
  -8  12   9    1.42    0.43
  -8 -12  10    1.71    0.46
  -8  12  10    1.62    0.54
  -8 -12  11    0.53    0.33
  -8  12  11    0.02    0.37
  -8 -12  12    0.08    0.25
  -8  12  12    0.27    0.37
  -8 -12  13    0.22    0.27
  -8  12  13    0.46    0.48
  -8 -12  14    1.51    0.49
  -8  12  14    0.66    0.51
  -8 -12  15    0.42    0.36
  -8  12  15    0.18    0.47
  -8  12  16    0.16    0.49
   8 -14  10    0.84    0.54
   8  14  10    0.77    0.50
   8 -14   9    0.74    0.50
   8 -14   9    0.35    0.45
   8  14   9    0.35    0.41
   8 -14   8    1.10    0.55
   8 -14   8    0.71    0.46
   8  14   8    0.56    0.42
   8 -14   7    1.53    0.52
   8  14   7    0.73    0.45
   8 -14   6    0.36    0.44
   8  14   6    0.31    0.37
   8 -14   5    0.19    0.42
   8  14   5   -0.23    0.28
   8 -14   4    0.46    0.43
   8  14   4    1.26    0.49
   8 -14   3    1.35    0.52
   8  14   3    0.91    0.41
   8 -14   2   -0.57    0.31
   8  14   2    0.60    0.37
   8 -14   1    0.25    0.41
   8  14   1    0.26    0.35
  -8 -14   0    0.37    0.26
   8 -14   0    0.24    0.41
   8  14   0    0.66    0.41
   8 -14  -1    0.92    0.47
  -8 -14   1    0.11    0.13
   8  14  -1    0.29    0.37
  -8 -14   2    0.11    0.24
   8 -14  -2    0.15    0.40
   8  14  -2    0.23    0.38
   8 -14  -3    2.21    0.58
  -8 -14   3    3.37    0.56
  -8  14   3    2.40    0.53
   8  14  -3    3.12    0.64
  -8 -14   4    6.85    0.80
   8 -14  -4    6.24    0.82
  -8  14   4    7.49    0.88
   8  14  -4    6.71    0.93
   8 -14  -5    2.17    0.54
  -8 -14   5    1.13    0.39
  -8  14   5    1.62    0.49
   8  14  -5    2.26    0.74
   8 -14  -6    0.35    0.37
  -8 -14   6    0.14    0.27
  -8  14   6    0.15    0.30
  -8 -14   7    0.14    0.26
   8 -14  -7   -0.32    0.30
  -8  14   7   -0.48    0.24
  -8 -14   8    6.74    0.87
  -8  14   8    7.36    0.93
  -8 -14   9    1.54    0.46
  -8  14   9    1.45    0.54
  -8 -14  10    1.69    0.49
  -8  14  10    2.04    0.59
  -8 -14  11   -0.08    0.25
  -8  14  11    0.83    0.47
  -8 -14  12    0.44    0.34
  -8  14  12    0.27    0.39
  -8 -14  13    1.34    0.50
  -8  14  13    1.10    0.59
  -8 -14  14    0.61    0.38
  -8  14  14    0.06    0.41
  -8  14  15    0.25    0.52
   8 -16   9    0.43    0.52
   8 -16   9    1.16    0.56
   8  16   9    0.82    0.50
   8 -16   8    0.30    0.48
   8 -16   8    0.46    0.46
   8 -16   7   -0.41    0.34
   8  16   7    0.16    0.38
   8 -16   6    1.94    0.63
   8  16   6    0.89    0.48
   8 -16   5    0.76    0.48
   8  16   5    0.85    0.42
   8 -16   4   -0.04    0.36
   8  16   4   -0.35    0.32
   8 -16   3    0.46    0.48
   8  16   3    1.15    0.49
   8 -16   2    8.58    1.07
   8  16   2    8.43    0.99
   8 -16   1   -0.58    0.33
   8  16   1   -0.57    0.31
   8 -16   0    1.32    0.53
   8  16   0    0.75    0.45
   8 -16  -1    9.02    1.10
   8  16  -1    9.58    1.03
  -8 -16   2   10.06    0.96
   8 -16  -2   11.20    1.18
   8  16  -2   10.70    1.14
  -8 -16   3    0.61    0.32
   8 -16  -3    0.12    0.38
   8  16  -3    0.60    0.53
  -8 -16   4    3.22    0.59
   8 -16  -4    4.33    0.77
   8  16  -4    2.48    0.70
  -8  16   4    4.15    0.72
   8 -16  -5    0.64    0.49
  -8 -16   5    0.48    0.33
  -8  16   5    0.45    0.35
   8  16  -5    0.04    0.59
  -8 -16   6    0.26    0.29
   8 -16  -6    0.35    0.44
  -8  16   6    0.48    0.37
  -8 -16   7    0.09    0.28
   8 -16  -7    0.05    0.38
  -8  16   7    0.18    0.31
  -8 -16   8    0.05    0.27
  -8  16   8    0.30    0.37
  -8 -16   9    1.62    0.50
  -8  16   9    1.93    0.58
  -8 -16  10    0.73    0.38
  -8  16  10    0.71    0.42
  -8 -16  11    1.03    0.41
  -8  16  11    0.61    0.44
  -8 -16  12    0.28    0.26
  -8  16  12    0.01    0.43
  -8  16  13    0.15    0.45
  -8  16  14    0.24    0.48
   8 -18   8    0.09    0.39
   8  18   8   -0.32    0.40
   8  18   7    0.16    0.42
   8 -18   6    2.11    0.68
   8  18   6    2.25    0.66
   8 -18   5    0.42    0.47
   8  18   5    0.37    0.40
   8 -18   4    0.01    0.43
   8  18   4    0.18    0.41
   8 -18   3    0.64    0.47
   8  18   3   -0.02    0.38
   8 -18   2    0.43    0.44
   8  18   2    0.56    0.47
   8 -18   1    0.24    0.41
   8  18   1    0.48    0.45
   8 -18   0    0.02    0.38
   8  18   0    0.11    0.43
  -8 -18   1    0.29    0.24
   8 -18  -1   -0.09    0.38
   8  18  -1   -0.54    0.41
   8 -18  -2    2.46    0.66
  -8 -18   2    1.16    0.41
   8  18  -2    3.28    0.78
  -8 -18   3    1.36    0.44
   8 -18  -3    0.15    0.43
   8  18  -3    0.32    0.53
  -8 -18   4   -0.07    0.26
   8 -18  -4    0.50    0.42
  -8  18   4   -0.19    0.26
   8  18  -4   -0.48    0.46
   8 -18  -5    0.61    0.46
  -8 -18   5    0.19    0.29
  -8  18   5    1.33    0.52
   8 -18  -6    0.54    0.46
  -8 -18   6    1.12    0.45
  -8  18   6    1.78    0.54
  -8 -18   7    0.34    0.35
  -8  18   7    0.39    0.39
  -8 -18   8    0.62    0.35
  -8  18   8    0.65    0.44
  -8 -18   9    0.50    0.35
  -8  18   9   -0.02    0.36
  -8 -18  10    0.12    0.24
  -8  18  10    0.52    0.44
  -8  18  11   -0.01    0.37
  -8  18  12   -0.46    0.38
   8  20   6   -0.15    0.40
   8  20   5    0.33    0.50
   8 -20   4    0.13    0.47
   8  20   4   -0.05    0.44
   8 -20   3    1.02    0.52
   8  20   3    0.31    0.51
   8 -20   2   -0.09    0.41
   8  20   2    0.18    0.47
   8 -20   1    0.11    0.43
   8  20   1    0.10    0.43
   8 -20   0   -0.26    0.40
   8  20   0   -0.68    0.34
   8 -20  -1    1.22    0.53
   8  20  -1    1.37    0.65
   8 -20  -2   -0.27    0.38
  -8 -20   2    0.12    0.27
   8  20  -2   -0.41    0.43
   8 -20  -3    1.97    0.62
  -8 -20   3    1.69    0.46
   8  20  -3    1.49    0.75
  -8 -20   4    0.00    0.27
   8 -20  -4    0.20    0.45
   8  20  -4   -0.52    0.57
   8 -20  -5    0.30    0.47
  -8 -20   5    0.57    0.37
  -8  20   5    1.60    0.53
  -8 -20   6    0.96    0.42
   8 -20  -6    0.49    0.49
  -8  20   6    0.49    0.43
  -8 -20   7    0.11    0.29
  -8  20   7    0.99    0.52
  -8 -20   8    0.00    0.29
  -8  20   8   -0.18    0.36
  -8  20   9    0.57    0.46
  -8  20  10    0.53    0.49
  -8  20  11    0.01    0.38
   8  22   4    0.04    0.53
   8  22   3   -0.12    0.43
   8  22   2    1.29    0.64
   8 -22   1    0.29    0.51
   8  22   1   -0.28    0.50
   8 -22   0    0.80    0.55
   8  22   0   -0.37    0.54
   8 -22  -1    0.25    0.48
   8  22  -1   -0.10    0.53
   8 -22  -2    2.03    0.69
   8  22  -2    0.89    0.67
  -8 -22   3    0.00    0.28
   8 -22  -3   -0.34    0.40
   8  22  -3   -0.16    0.61
   8 -22  -4   -0.20    0.41
  -8 -22   4    0.41    0.36
   8 -22  -5   -0.11    0.44
  -8 -22   5   -0.04    0.30
  -8  22   5    0.49    0.46
  -8 -22   6    1.64    0.56
  -8  22   6    0.65    0.50
  -8  22   7    0.36    0.44
  -8  22   8    1.48    0.61
  -8  22   9   -0.04    0.42
   8  24   0   -0.20    0.62
   8  24  -1    0.33    0.73
   8  24  -2   -0.15    0.75
   9  -1  12    0.27    0.43
   9   1  12    0.50    0.38
   9  -1  11    0.59    0.39
   9   1  11   -0.09    0.32
   9  -1  10    3.10    0.66
   9   1  10    1.91    0.55
   9  -1   9    0.24    0.31
   9   1   9    0.01    0.27
   9  -1   8    1.72    0.47
   9   1   8    1.26    0.40
   9  -1   7    0.17    0.26
   9   1   7    0.34    0.30
   9  -1   6    1.93    0.43
   9   1   6    2.72    0.49
   9  -1   5    3.87    0.57
   9   1   5    3.44    0.52
   9  -1   4    1.10    0.33
   9  -1   4    1.63    0.36
   9   1   4    1.58    0.33
   9   1   4    3.13    0.47
  -9  -1  -3    0.36    0.22
   9  -1   3    0.27    0.21
  -9   1  -3    0.49    0.26
   9   1   3    0.73    0.26
  -9  -1  -2   21.27    0.95
   9  -1   2   23.33    1.05
  -9   1  -2   21.37    1.00
   9   1   2   21.90    1.00
  -9  -1  -1   13.90    0.73
   9   1   1   13.28    0.79
   9   1   1   13.15    0.69
  -9  -1   0   -0.02    0.10
  -9   1   0    0.00    0.15
   9   1   0   -0.07    0.11
   9  -1  -1    0.20    0.14
  -9  -1   1    0.76    0.23
   9   1  -1    0.58    0.19
  -9   1   1    0.50    0.22
   9  -1  -2    5.52    0.40
  -9  -1   2    6.02    0.57
  -9   1   2    4.72    0.50
   9   1  -2    5.42    0.43
  -9  -1   3   35.67    1.43
   9  -1  -3   35.23    1.23
   9   1  -3   34.56    1.30
  -9   1   3   33.41    1.40
  -9  -1   4   25.43    1.11
   9  -1  -4   23.80    0.92
  -9  -1   4   23.24    0.85
   9   1  -4   23.38    0.98
  -9   1   4   23.67    1.10
  -9   1   4   23.87    0.94
  -9  -1   5    3.66    0.34
  -9  -1   5    3.99    0.48
   9  -1  -5    3.40    0.38
   9   1  -5    3.45    0.43
  -9   1   5    4.27    0.41
  -9   1   5    3.66    0.48
  -9  -1   6   -0.04    0.14
  -9  -1   6   -0.18    0.09
  -9   1   6    0.00    0.14
  -9   1   6    0.00    0.16
  -9  -1   7    4.94    0.58
  -9  -1   7    5.44    0.49
  -9   1   7    5.05    0.58
  -9   1   7    4.66    0.50
  -9  -1   8    8.09    0.55
  -9  -1   8    8.46    0.65
  -9   1   8    8.99    0.65
  -9   1   8    7.08    0.55
  -9  -1   9   17.57    1.01
  -9  -1   9   19.49    0.96
  -9   1   9   18.59    1.01
  -9  -1  10    5.43    0.65
  -9  -1  10    6.48    0.66
  -9   1  10    4.80    0.60
  -9   1  10    6.27    0.66
  -9  -1  11    3.62    0.54
  -9   1  11    2.77    0.48
  -9   1  11    3.52    0.55
  -9  -1  12    0.23    0.33
  -9  -1  12    0.93    0.32
  -9   1  12    0.57    0.30
  -9   1  12    0.72    0.35
  -9  -1  13    1.97    0.45
  -9  -1  13    2.54    0.57
  -9   1  13    1.75    0.48
  -9   1  13    2.40    0.46
  -9  -1  14    0.01    0.32
  -9   1  14    0.38    0.36
  -9  -1  15    1.43    0.52
  -9   1  15    1.70    0.53
  -9  -1  16    0.86    0.47
  -9   1  16    0.56    0.43
  -9  -1  17    1.23    0.58
  -9   1  17    1.56    0.58
  -9  -1  18    0.04    0.46
  -9   1  18    0.07    0.41
   9  -3  12    0.38    0.43
   9   3  12   -0.47    0.29
   9  -3  11    0.33    0.35
   9   3  11    0.13    0.36
   9  -3  10    3.11    0.67
   9   3  10    3.21    0.65
   9  -3   9    0.52    0.34
   9   3   9    0.22    0.33
   9  -3   8    0.52    0.36
   9   3   8    0.11    0.29
   9  -3   7    0.61    0.32
   9   3   7    0.96    0.38
   9  -3   6    5.44    0.74
   9   3   6    5.41    0.68
   9  -3   5    2.45    0.46
   9  -3   5    2.25    0.45
   9   3   5    2.30    0.46
   9  -3   4   -0.28    0.23
   9  -3   4   -0.03    0.20
   9   3   4    0.10    0.21
  -9  -3  -3    2.38    0.32
   9  -3   3    2.97    0.47
   9  -3   3    1.97    0.40
   9   3   3    2.47    0.39
  -9  -3  -2   10.11    0.58
   9   3   2    8.62    0.68
   9   3   2    9.85    0.60
  -9   3  -2    9.11    0.64
  -9  -3  -1   18.97    0.85
   9   3   1   16.50    0.78
  -9   3  -1   17.89    0.93
   9   3   1   20.03    0.99
  -9  -3   0    2.48    0.34
   9   3   0    2.69    0.30
   9   3   0    2.78    0.39
  -9   3   0    2.61    0.41
  -9  -3   1   11.63    0.67
   9   3  -1   11.30    0.69
   9   3  -1   12.63    0.52
  -9   3   1   10.57    0.69
   9  -3  -2    6.99    0.41
  -9  -3   2    8.77    0.56
   9   3  -2    7.60    0.55
  -9   3   2    8.55    0.60
   9  -3  -3    8.14    0.42
  -9  -3   3    8.77    0.59
  -9   3   3    8.43    0.61
   9   3  -3    7.98    0.57
  -9  -3   4   13.20    0.77
   9  -3  -4   12.93    0.56
  -9   3   4   13.41    0.78
   9   3  -4   14.47    0.77
  -9  -3   5   33.04    1.07
  -9  -3   5   32.48    1.40
  -9   3   5   32.68    1.39
   9   3  -5   33.87    1.38
  -9  -3   6    0.36    0.21
  -9  -3   6    0.21    0.15
  -9   3   6    0.28    0.17
  -9   3   6    0.20    0.17
  -9  -3   7   10.08    0.54
  -9  -3   7   10.31    0.71
  -9   3   7   10.25    0.66
  -9   3   7   10.58    0.71
  -9  -3   8   13.10    0.68
  -9  -3   8   13.63    0.86
  -9   3   8   11.80    0.77
  -9   3   8   13.53    0.82
  -9  -3   9    2.40    0.40
  -9  -3   9    1.79    0.40
  -9   3   9    2.25    0.44
  -9   3   9    2.45    0.42
  -9  -3  10   -0.24    0.20
  -9  -3  10    0.31    0.24
  -9   3  10   -0.23    0.20
  -9   3  10    0.19    0.19
  -9  -3  11    0.09    0.26
  -9  -3  11    0.32    0.26
  -9   3  11    0.47    0.32
  -9   3  11    0.52    0.25
  -9  -3  12    0.64    0.29
  -9  -3  12    0.34    0.25
  -9   3  12    0.55    0.33
  -9   3  12    0.46    0.28
  -9  -3  13    0.23    0.27
  -9  -3  13    0.23    0.23
  -9   3  13    0.05    0.29
  -9  -3  14    1.13    0.43
  -9  -3  14    0.93    0.37
  -9   3  14    0.65    0.41
  -9  -3  15    0.58    0.44
  -9   3  15    0.63    0.43
  -9  -3  16    0.15    0.41
  -9   3  16    0.42    0.42
  -9   3  17   -0.11    0.33
   9  -5  12   -0.29    0.30
   9   5  12    0.08    0.38
   9  -5  11    0.61    0.43
   9   5  11    0.38    0.40
   9  -5  10    0.43    0.35
   9   5  10    0.15    0.32
   9  -5   9    0.19    0.28
   9   5   9    0.05    0.34
   9  -5   8    0.38    0.31
   9   5   8    0.07    0.30
   9  -5   7    0.39    0.33
   9   5   7    0.58    0.33
   9  -5   6    0.83    0.35
   9  -5   6    1.05    0.40
   9   5   6    1.29    0.36
   9  -5   5    0.64    0.37
   9  -5   5    0.87    0.35
   9   5   5    1.00    0.33
   9   5   5    0.91    0.36
   9  -5   4    2.65    0.51
   9   5   4    1.79    0.38
   9   5   4    2.23    0.46
   9  -5   3    0.38    0.29
   9   5   3   -0.01    0.18
   9   5   3   -0.22    0.17
   9  -5   2    0.19    0.29
  -9  -5  -2    0.56    0.20
   9   5   2    0.53    0.23
   9   5   2    0.43    0.26
  -9  -5  -1    1.42    0.28
  -9   5  -1    1.16    0.35
   9   5   1    1.44    0.33
   9   5   1    1.35    0.25
  -9  -5   0    4.06    0.45
   9   5   0    2.74    0.43
  -9   5   0    3.52    0.51
   9   5   0    3.89    0.34
  -9  -5   1    0.08    0.09
   9   5  -1    0.15    0.12
   9   5  -1    0.49    0.24
  -9   5   1    0.37    0.23
   9  -5  -2    0.15    0.11
  -9  -5   2    0.15    0.15
   9   5  -2    0.24    0.21
  -9   5   2    0.21    0.21
   9  -5  -3    9.13    0.40
  -9  -5   3    9.81    0.65
  -9   5   3    8.89    0.65
   9   5  -3    8.47    0.62
  -9   5   3    9.22    0.60
  -9  -5   4    3.36    0.47
  -9   5   4    3.86    0.48
   9   5  -4    4.60    0.52
  -9   5   4    3.47    0.48
  -9  -5   5    0.10    0.15
   9   5  -5    0.28    0.27
  -9   5   5    0.20    0.20
  -9   5   5    0.02    0.18
  -9  -5   6    8.46    0.66
   9   5  -6    9.52    0.84
  -9   5   6    8.65    0.66
  -9   5   6   10.63    0.69
  -9  -5   7    0.23    0.20
  -9   5   7    0.01    0.20
  -9   5   7    0.39    0.23
  -9  -5   8    0.05    0.18
  -9   5   8   -0.17    0.19
  -9   5   8    0.37    0.24
  -9  -5   9    8.40    0.85
  -9   5   9    8.60    0.82
  -9   5   9    7.21    0.72
  -9  -5  10    2.64    0.50
  -9   5  10    3.28    0.50
  -9   5  10    3.58    0.58
  -9  -5  11    1.83    0.45
  -9   5  11    1.25    0.44
  -9   5  11    1.60    0.38
  -9  -5  12    0.09    0.26
  -9   5  12    0.38    0.32
  -9  -5  13    0.04    0.20
  -9   5  13    0.31    0.32
  -9  -5  14    0.33    0.26
  -9   5  14    0.39    0.38
  -9   5  15    1.39    0.51
  -9   5  16   -0.22    0.35
  -9   5  17   -0.20    0.35
   9  -7  12    0.10    0.39
   9   7  12   -0.39    0.33
   9  -7  11   -0.29    0.33
   9   7  11   -0.67    0.25
   9  -7  10    1.07    0.48
   9   7  10    0.98    0.44
   9  -7   9    0.29    0.32
   9   7   9    0.10    0.34
   9   7   9    0.64    0.43
   9  -7   8    1.30    0.45
   9   7   8    1.06    0.43
   9   7   8    0.87    0.40
   9  -7   7   -0.06    0.23
   9   7   7   -0.07    0.27
   9   7   7   -0.01    0.25
   9  -7   6    0.92    0.36
   9  -7   6    0.48    0.38
   9   7   6    0.62    0.36
   9   7   6    0.73    0.33
   9  -7   5   -0.02    0.33
   9  -7   5    0.37    0.27
   9   7   5    0.67    0.33
   9   7   5    0.79    0.37
   9  -7   4    0.10    0.30
   9   7   4    0.04    0.21
   9   7   4   -0.09    0.23
   9  -7   3    1.04    0.38
   9   7   3    0.89    0.34
   9   7   3    0.66    0.27
   9  -7   2    7.73    0.80
  -9  -7  -2    9.78    0.57
   9   7   2    7.93    0.79
   9   7   2    9.02    0.57
  -9  -7  -1   -0.10    0.12
   9  -7   1   -0.15    0.22
   9   7   1    0.49    0.20
   9   7   1   -0.10    0.18
   9  -7   0    9.12    0.87
  -9  -7   0   10.09    0.62
   9   7   0    8.55    0.69
  -9   7   1    2.61    0.47
   9   7  -1    2.54    0.43
  -9  -7   2    0.93    0.27
   9   7  -2    0.39    0.26
  -9   7   2    0.63    0.28
  -9  -7   3   20.59    1.05
  -9   7   3   21.21    1.05
   9   7  -3   21.66    1.10
  -9   7   3   22.89    1.14
  -9  -7   4   17.32    0.94
  -9   7   4   15.12    0.92
   9   7  -4   17.08    0.99
  -9   7   4   16.94    0.91
  -9  -7   5    1.90    0.40
  -9   7   5    1.64    0.35
   9   7  -5    1.46    0.44
  -9   7   5    2.58    0.45
  -9  -7   6    1.62    0.37
   9   7  -6    2.70    0.57
  -9   7   6    2.09    0.41
  -9   7   6    1.87    0.39
  -9  -7   7    2.19    0.42
  -9   7   7    2.24    0.44
  -9   7   7    2.65    0.46
  -9  -7   8    2.94    0.53
  -9   7   8    2.07    0.42
  -9   7   8    4.19    0.61
  -9  -7   9    1.37    0.38
  -9   7   9    1.43    0.38
  -9   7   9    1.73    0.45
  -9  -7  10    0.80    0.32
  -9   7  10    1.07    0.42
  -9   7  10    0.60    0.30
  -9  -7  11    0.39    0.26
  -9   7  11    1.00    0.40
  -9   7  11    0.66    0.30
  -9  -7  12    0.24    0.24
  -9   7  12    0.18    0.34
  -9  -7  13    0.14    0.25
  -9   7  13    0.26    0.34
  -9  -7  14    0.27    0.27
  -9   7  14   -0.18    0.31
  -9  -7  15    0.22    0.25
  -9   7  15    0.15    0.39
  -9   7  16   -0.74    0.29
  -9   7  17    0.44    0.46
   9  -9  11    0.27    0.34
   9   9  11    0.84    0.49
   9   9  11    0.51    0.44
   9  -9  10   -0.07    0.33
   9   9  10   -0.14    0.29
   9   9  10    0.17    0.36
   9  -9   9    0.29    0.38
   9   9   9    0.05    0.32
   9   9   9   -0.28    0.26
   9  -9   8   -0.03    0.24
   9   9   8   -0.08    0.27
   9   9   8    0.38    0.32
   9  -9   7    0.63    0.40
   9  -9   7    0.29    0.27
   9   9   7    1.25    0.44
   9   9   7    0.84    0.38
   9  -9   6    0.59    0.38
   9  -9   6    0.26    0.31
   9   9   6    0.28    0.30
   9   9   6    0.53    0.31
   9  -9   5    0.49    0.41
   9   9   5   -0.29    0.22
   9   9   5   -0.19    0.24
   9  -9   4    0.25    0.36
   9   9   4    0.65    0.32
   9  -9   3    9.26    0.96
   9   9   3    8.51    0.89
   9  -9   2    0.38    0.34
   9   9   2    0.23    0.25
   9  -9   1    2.84    0.54
  -9  -9  -1    3.35    0.43
   9   9   1    2.18    0.47
  -9  -9   0    3.14    0.45
   9  -9   0    3.75    0.61
   9   9   0    2.31    0.46
   9  -9  -1   27.11    1.36
   9   9  -1   24.81    1.29
  -9  -9   2    0.43    0.24
   9  -9  -2    1.00    0.41
   9   9  -2    0.90    0.36
  -9   9   2    0.74    0.36
  -9  -9   3    0.20    0.21
   9   9  -3    0.44    0.33
  -9   9   3    0.41    0.25
  -9   9   3    0.30    0.28
  -9  -9   4   -0.07    0.17
   9   9  -4   -0.31    0.25
  -9   9   4   -0.13    0.19
  -9   9   4    0.10    0.27
  -9  -9   5    4.84    0.63
  -9   9   5    4.61    0.63
  -9   9   5    3.77    0.58
   9   9  -5    4.83    0.70
  -9  -9   6    0.07    0.19
  -9   9   6    0.16    0.25
   9   9  -6    0.38    0.42
  -9   9   6   -0.23    0.20
  -9  -9   7    2.12    0.44
  -9   9   7    3.12    0.51
  -9   9   7    1.42    0.41
  -9  -9   8    2.07    0.45
  -9   9   8    1.49    0.45
  -9   9   8    1.84    0.45
  -9  -9   9    6.00    0.76
  -9   9   9    8.73    0.92
  -9   9   9    6.02    0.71
  -9  -9  10    0.82    0.37
  -9   9  10    0.68    0.38
  -9   9  10    0.93    0.36
  -9  -9  11    1.39    0.41
  -9   9  11    2.90    0.65
  -9  -9  12    0.77    0.35
  -9   9  12    0.28    0.39
  -9  -9  13    3.49    0.63
  -9   9  13    3.10    0.66
  -9  -9  14    0.59    0.31
  -9   9  14    0.36    0.38
  -9  -9  15    0.49    0.31
  -9   9  15    0.39    0.44
  -9   9  16   -0.24    0.34
   9 -11  11   -0.31    0.40
   9  11  11    0.13    0.41
   9 -11  10    2.11    0.68
   9  11  10    2.41    0.66
   9 -11   9    0.06    0.31
   9  11   9    0.46    0.36
   9 -11   8    0.13    0.30
   9  11   8    0.63    0.42
   9 -11   7    0.25    0.33
   9 -11   7    0.55    0.45
   9  11   7    0.54    0.38
   9 -11   6    2.24    0.57
   9  11   6    1.14    0.43
   9 -11   5    1.51    0.52
   9  11   5    3.12    0.62
   9 -11   4    1.63    0.53
   9  11   4    0.43    0.36
   9 -11   3    1.73    0.54
   9  11   3    1.63    0.45
   9 -11   2    4.12    0.73
   9  11   2    2.73    0.57
   9 -11   1    1.67    0.53
   9  11   1    1.54    0.42
  -9 -11   0    2.22    0.39
   9 -11   0    2.98    0.58
   9  11   0    1.62    0.44
   9 -11  -1    6.53    0.81
   9  11  -1    7.50    0.83
   9 -11  -2    1.92    0.49
  -9 -11   2    0.89    0.30
   9  11  -2    0.99    0.39
   9 -11  -3   10.43    0.99
  -9 -11   3   10.28    0.75
   9  11  -3    7.37    0.83
  -9  11   3    9.18    0.90
   9 -11  -4    0.90    0.43
  -9 -11   4    0.98    0.33
  -9  11   4    1.54    0.42
   9  11  -4    1.25    0.47
  -9 -11   5    0.46    0.27
  -9  11   5    1.25    0.40
  -9  11   5    1.18    0.42
   9  11  -5    0.85    0.48
  -9 -11   6   -0.12    0.20
  -9  11   6    0.13    0.26
   9  11  -6    0.26    0.44
  -9  11   6    0.18    0.28
  -9 -11   7    0.95    0.36
  -9  11   7    0.92    0.37
  -9  11   7    1.12    0.40
  -9 -11   8    3.61    0.61
  -9  11   8    2.55    0.53
  -9  11   8    3.02    0.61
  -9 -11   9    2.76    0.56
  -9  11   9    2.84    0.59
  -9  11   9    3.36    0.56
  -9 -11  10    0.33    0.26
  -9  11  10    0.01    0.30
  -9 -11  11    0.41    0.28
  -9  11  11    0.26    0.39
  -9 -11  12    0.55    0.32
  -9  11  12    0.59    0.45
  -9 -11  13    0.27    0.26
  -9  11  13    0.12    0.36
  -9 -11  14    0.38    0.30
  -9  11  14    0.27    0.44
  -9 -11  15    0.43    0.30
  -9  11  15   -0.26    0.38
  -9  11  16    0.41    0.50
   9 -13  10    0.03    0.42
   9  13  10    0.45    0.37
   9 -13   9    0.32    0.44
   9  13   9    0.44    0.44
   9 -13   8    0.14    0.41
   9 -13   8    0.07    0.40
   9  13   8    0.05    0.36
   9 -13   7    2.49    0.66
   9 -13   7    2.79    0.66
   9  13   7    3.17    0.68
   9 -13   6    0.28    0.45
   9  13   6    0.34    0.36
   9 -13   5    0.67    0.49
   9  13   5    0.70    0.43
   9 -13   4    2.46    0.63
   9  13   4    1.43    0.48
   9 -13   3    3.58    0.72
   9  13   3    1.76    0.51
   9 -13   2    1.62    0.59
   9  13   2    2.81    0.59
   9 -13   1   -0.43    0.33
   9  13   1    0.21    0.32
   9 -13   0    0.09    0.37
  -9 -13   0   -0.18    0.16
   9  13   0    0.40    0.35
   9 -13  -1   13.46    1.05
   9  13  -1   14.30    1.06
  -9 -13   2   -0.05    0.18
   9 -13  -2   -0.05    0.33
   9  13  -2    0.52    0.36
   9 -13  -3    0.39    0.37
  -9 -13   3    0.87    0.32
   9  13  -3    0.62    0.47
  -9 -13   4    1.93    0.45
   9 -13  -4    3.15    0.63
  -9  13   4    2.66    0.54
   9  13  -4    2.98    0.67
   9 -13  -5   36.34    1.78
  -9 -13   5   38.38    1.78
  -9  13   5   41.39    1.86
   9  13  -5   35.44    1.93
  -9 -13   6    0.06    0.24
   9 -13  -6    0.11    0.35
  -9  13   6    0.46    0.36
  -9 -13   7    0.11    0.24
   9 -13  -7   -0.07    0.32
  -9  13   7    0.23    0.37
   9 -13  -8    2.14    0.53
  -9 -13   8    1.95    0.50
  -9  13   8    1.94    0.53
  -9 -13   9    4.36    0.68
   9 -13  -9    1.71    0.40
  -9  13   9    4.44    0.79
  -9 -13  10    0.40    0.31
  -9  13  10    0.17    0.36
  -9 -13  11    0.28    0.29
  -9  13  11    0.83    0.46
  -9 -13  12    0.90    0.37
  -9  13  12    0.01    0.37
  -9 -13  13    0.20    0.30
  -9  13  13    0.27    0.43
  -9 -13  14    0.64    0.36
  -9  13  14    0.81    0.55
  -9  13  15    1.03    0.58
   9 -15   9   -0.10    0.32
   9  15   9    0.15    0.40
   9 -15   8    0.33    0.49
   9 -15   8    0.11    0.44
   9  15   8    0.22    0.40
   9 -15   7    3.84    0.77
   9  15   7    4.10    0.81
   9 -15   6    1.61    0.59
   9  15   6    0.77    0.46
   9 -15   5    0.84    0.51
   9  15   5    0.54    0.43
   9 -15   4    0.97    0.53
   9  15   4   -0.31    0.26
   9 -15   3    1.66    0.60
   9  15   3    2.07    0.56
   9 -15   2    0.38    0.42
   9  15   2    0.44    0.41
   9 -15   1    2.11    0.61
   9 -15   0    6.31    0.94
   9  15   0    6.81    0.87
   9 -15  -1    0.30    0.41
  -9 -15   1    0.13    0.12
   9  15  -1    0.94    0.46
  -9 -15   2   -0.03    0.20
   9 -15  -2    0.31    0.39
   9  15  -2    0.21    0.39
  -9 -15   3    3.38    0.58
   9 -15  -3    2.47    0.60
   9  15  -3    2.72    0.65
  -9 -15   4    0.27    0.27
   9 -15  -4    0.45    0.43
  -9  15   4   -0.02    0.33
   9  15  -4    0.27    0.46
  -9 -15   5    0.23    0.29
   9 -15  -5   -0.19    0.33
   9  15  -5   -0.01    0.52
  -9  15   5    0.87    0.43
  -9 -15   6    0.35    0.29
   9 -15  -6    0.39    0.40
  -9  15   6   -0.23    0.28
   9 -15  -7    1.05    0.47
  -9 -15   7    1.14    0.42
  -9  15   7    1.49    0.49
  -9 -15   8    1.66    0.46
   9 -15  -8   -0.09    0.35
  -9  15   8    0.10    0.32
  -9 -15   9    0.60    0.33
  -9  15   9    0.10    0.37
  -9 -15  10    0.22    0.28
  -9  15  10    0.40    0.38
  -9 -15  11    0.55    0.35
  -9  15  11    0.86    0.48
  -9 -15  12    0.68    0.36
  -9  15  12    1.01    0.54
  -9 -15  13    0.33    0.33
  -9  15  13    0.43    0.44
  -9  15  14    0.53    0.49
   9 -17   8    0.50    0.50
   9  17   8    0.04    0.39
   9 -17   7    0.84    0.54
   9  17   7   -0.07    0.39
   9 -17   6    0.25    0.43
   9  17   6    0.28    0.41
   9 -17   5    0.55    0.47
   9  17   5    0.65    0.51
   9 -17   4   -0.40    0.38
   9  17   4   -0.25    0.32
   9 -17   3    1.16    0.53
   9  17   3    1.09    0.53
   9 -17   2    0.81    0.49
   9  17   2    1.07    0.51
   9 -17   1    1.46    0.57
   9  17   1    0.91    0.54
   9 -17   0    0.67    0.47
   9  17   0    0.43    0.44
   9 -17  -1    2.60    0.68
   9  17  -1    2.30    0.62
   9 -17  -2    4.65    0.82
  -9 -17   2    4.35    0.66
   9  17  -2    4.21    0.79
   9 -17  -3    5.70    0.90
  -9 -17   3    6.53    0.81
   9  17  -3    4.23    0.81
   9 -17  -4   -0.17    0.36
  -9 -17   4    0.55    0.30
  -9  17   4    0.41    0.39
   9  17  -4    0.84    0.60
  -9 -17   5    0.58    0.35
   9 -17  -5    0.39    0.48
   9  17  -5    0.73    0.64
  -9  17   5    0.60    0.40
  -9 -17   6    0.86    0.40
   9 -17  -6    1.53    0.56
  -9  17   6    1.57    0.52
  -9 -17   7   -0.07    0.24
   9 -17  -7    0.09    0.39
  -9  17   7    0.40    0.38
  -9 -17   8   -0.12    0.22
  -9  17   8   -0.07    0.31
  -9 -17   9    0.49    0.32
  -9  17   9    0.73    0.43
  -9 -17  10    0.11    0.27
  -9  17  10   -0.18    0.35
  -9 -17  11    0.39    0.28
  -9  17  11    0.15    0.38
  -9  17  12   -0.27    0.38
  -9  17  13    0.77    0.55
   9  19   6    0.57    0.48
   9  19   5   -0.32    0.37
   9 -19   4    0.05    0.42
   9  19   4    0.08    0.46
   9 -19   3   -0.14    0.42
   9  19   3    0.12    0.43
   9 -19   2    0.21    0.43
   9  19   2    0.26    0.43
   9 -19   1    0.17    0.39
   9  19   1   -0.26    0.40
   9 -19   0    0.04    0.40
   9  19   0    0.46    0.50
   9 -19  -1   -0.14    0.40
   9  19  -1   -0.27    0.40
   9 -19  -2    3.58    0.77
  -9 -19   2    3.27    0.59
   9  19  -2    3.71    0.85
  -9 -19   3    0.24    0.25
   9 -19  -3    0.34    0.45
   9  19  -3    0.11    0.57
   9 -19  -4    0.21    0.46
  -9 -19   4    0.26    0.30
   9  19  -4    0.57    0.65
   9 -19  -5    0.40    0.43
  -9 -19   5    0.11    0.30
  -9  19   5    0.33    0.39
  -9 -19   6    0.12    0.32
   9 -19  -6    0.33    0.44
  -9  19   6    0.24    0.36
  -9 -19   7   -0.14    0.25
   9 -19  -7    0.27    0.46
  -9  19   7    0.51    0.42
  -9 -19   8    0.06    0.31
  -9  19   8   -0.07    0.29
  -9 -19   9    0.04    0.26
  -9  19   9    0.57    0.48
  -9  19  10    0.46    0.45
  -9  19  11    0.61    0.46
  -9  19  12    0.61    0.48
   9  21   4   -0.15    0.47
   9  21   3   -0.37    0.44
   9  21   2    0.48    0.53
   9 -21   1    0.42    0.50
   9  21   1    0.21    0.54
   9 -21   0    1.51    0.63
   9  21   0    0.81    0.58
   9 -21  -1   -0.08    0.42
   9  21  -1    0.18    0.57
   9 -21  -2    0.40    0.49
   9  21  -2    2.33    0.74
   9 -21  -3    0.18    0.45
  -9 -21   3    0.78    0.38
   9  21  -3   -0.25    0.55
  -9 -21   4    0.45    0.35
   9 -21  -4   -0.17    0.44
   9  21  -4   -0.24    0.61
  -9 -21   5    1.07    0.46
   9 -21  -5    0.70    0.58
   9 -21  -6    0.21    0.50
  -9 -21   6    0.27    0.35
  -9  21   6    0.62    0.47
  -9 -21   7    0.50    0.40
  -9  21   7    0.19    0.43
  -9  21   8    0.38    0.47
  -9  21   9    0.49    0.48
  -9  21  10    0.85    0.56
   9  23   2    0.05    0.59
   9  23   1    0.37    0.59
   9  23   0    0.23    0.68
   9  23  -1    0.55    0.70
   9  23  -2    0.40    0.65
   9  23  -3   -0.35    0.69
  -9 -23   4    1.18    0.45
   9 -23  -4    0.15    0.53
   9 -23  -5    2.25    0.70
  -9 -23   5    1.20    0.47
  -9  23   6   -0.50    0.32
  -9  23   7    0.21    0.48
  10   0  12    2.00    0.62
  10   0  11    0.29    0.36
  10   0  10    0.04    0.29
  10   0   9    0.35    0.33
  10   0   8    0.56    0.35
  10   0   7    0.10    0.25
  10   0   6    0.54    0.31
  10   0   5   -0.17    0.21
  10   0   4    7.99    0.78
 -10   0  -3    0.43    0.25
  10   0   3   -0.35    0.16
 -10   0  -2    0.96    0.28
  10   0   2    1.29    0.31
  10   0   1    0.22    0.19
 -10   0  -1    0.02    0.13
  10   0   0   69.60    2.42
 -10   0   0   71.74    2.44
  10   0  -1    0.09    0.14
 -10   0   1   -0.14    0.14
 -10   0   2    0.24    0.19
  10   0  -2    0.48    0.19
  10   0  -3   -0.15    0.14
 -10   0   3    0.08    0.16
 -10   0   4    8.42    0.63
  10   0  -4    9.09    0.55
 -10   0   4    9.70    0.50
 -10   0   5   -0.18    0.11
 -10   0   5    0.02    0.14
  10   0  -5    0.03    0.21
 -10   0   6    0.08    0.14
 -10   0   6    0.10    0.18
 -10   0   7   -0.13    0.12
 -10   0   7   -0.03    0.17
 -10   0   8   34.54    1.37
 -10   0   8   34.34    1.52
 -10   0   9   -0.16    0.14
 -10   0   9    0.04    0.23
 -10   0  10    9.41    0.87
 -10   0  10    7.92    0.74
 -10   0  11   -0.07    0.11
 -10   0  11   -0.16    0.20
 -10   0  12    5.44    0.68
 -10   0  12    4.73    0.65
 -10   0  13    0.05    0.29
 -10   0  13   -0.17    0.22
 -10   0  14   -0.25    0.26
 -10   0  15   -0.24    0.27
 -10   0  16    0.24    0.37
 -10   0  17   -0.17    0.37
 -10   0  18   -0.52    0.33
  10  -2  12    0.23    0.36
  10   2  12   -0.06    0.37
  10  -2  11    2.68    0.66
  10   2  11    1.86    0.56
  10  -2  10    0.16    0.33
  10   2  10    0.10    0.32
  10  -2   9   -0.14    0.30
  10   2   9    0.32    0.34
  10  -2   8    0.42    0.36
  10   2   8    1.07    0.40
  10  -2   7    1.38    0.42
  10   2   7    1.75    0.44
  10  -2   6    0.00    0.24
  10   2   6    0.08    0.23
  10  -2   5    0.08    0.19
  10   2   5    0.35    0.27
  10  -2   4    2.20    0.45
  10  -2   4    1.85    0.40
  10   2   4    3.02    0.47
  10  -2   3   -0.31    0.16
  10  -2   3    0.85    0.31
 -10  -2  -3   -0.15    0.18
  10   2   3    0.02    0.19
 -10  -2  -2    2.96    0.41
  10   2   2    2.90    0.50
  10   2   2    3.26    0.43
 -10  -2  -1    0.85    0.28
  10   2   1    0.65    0.21
  10   2   1    0.19    0.23
 -10   2  -1    0.83    0.30
 -10   2   0   12.43    0.75
  10   2   0   10.71    0.58
  10   2   0   12.14    0.75
  10  -2  -1    0.07    0.15
 -10  -2   1    0.60    0.20
 -10   2   1    0.20    0.20
  10   2  -1    0.04    0.17
  10   2  -1    0.54    0.17
 -10  -2   2   14.35    0.79
  10  -2  -2   13.12    0.65
 -10   2   2   13.68    0.82
  10   2  -2   13.21    0.75
  10  -2  -3    3.18    0.32
 -10  -2   3    2.85    0.42
 -10   2   3    2.16    0.39
  10   2  -3    3.12    0.40
  10  -2  -4    6.96    0.44
 -10  -2   4    6.65    0.54
  10   2  -4    7.19    0.55
 -10   2   4    8.27    0.51
 -10   2   4    6.72    0.66
 -10  -2   5    1.93    0.23
 -10  -2   5    1.37    0.32
  10  -2  -5    1.88    0.29
  10   2  -5    1.30    0.33
 -10   2   5    1.22    0.27
 -10   2   5    2.14    0.38
 -10  -2   6    1.89    0.26
 -10  -2   6    2.04    0.38
 -10   2   6    1.85    0.38
  10   2  -6    1.84    0.40
 -10   2   6    2.47    0.37
 -10  -2   7   12.78    0.81
 -10  -2   7   11.47    0.61
 -10   2   7   11.16    0.69
 -10   2   7   12.19    0.78
 -10  -2   8    0.15    0.21
 -10  -2   8    0.25    0.21
 -10   2   8    0.07    0.17
 -10   2   8    0.20    0.15
 -10  -2   9    3.58    0.54
 -10  -2   9    4.00    0.48
 -10   2   9    3.35    0.51
 -10  -2  10    1.33    0.34
 -10  -2  10    1.77    0.42
 -10   2  10    1.12    0.33
 -10   2  10    2.53    0.47
 -10  -2  11    0.01    0.22
 -10  -2  11    0.35    0.23
 -10   2  11    0.76    0.35
 -10   2  11    0.08    0.23
 -10  -2  12    2.51    0.49
 -10  -2  12    2.33    0.47
 -10   2  12    2.24    0.47
 -10   2  12    1.98    0.47
 -10  -2  13    3.65    0.58
 -10   2  13    3.13    0.58
 -10   2  13    1.80    0.44
 -10  -2  14   -0.20    0.21
 -10  -2  14    0.45    0.36
 -10   2  14   -0.36    0.26
 -10   2  15    0.22    0.34
 -10   2  16    0.11    0.36
 -10   2  17    0.39    0.44
  10  -4  12    0.68    0.48
  10   4  12    0.35    0.43
  10  -4  11    0.08    0.34
  10   4  11   -0.10    0.33
  10  -4  10   -0.43    0.21
  10   4  10   -0.03    0.30
  10  -4   9    0.08    0.30
  10   4   9   -0.13    0.26
  10  -4   8    3.33    0.63
  10   4   8    2.73    0.54
  10  -4   7    0.35    0.31
  10   4   7    0.16    0.24
  10  -4   6    0.13    0.24
  10   4   6    0.15    0.25
  10  -4   5    0.67    0.31
  10  -4   5    0.54    0.33
  10   4   5    0.70    0.32
  10  -4   4    1.59    0.42
  10  -4   4    2.06    0.43
  10   4   4    2.34    0.51
  10   4   4    1.74    0.39
  10  -4   3    1.06    0.35
  10   4   3    0.91    0.30
  10   4   3    0.94    0.34
 -10  -4  -2    6.74    0.50
  10  -4   2    7.55    0.74
  10   4   2    5.98    0.56
  10   4   2    6.11    0.68
 -10  -4  -1    2.93    0.41
  10   4   1    2.50    0.34
  10   4   1    3.54    0.51
 -10   4  -1    3.62    0.53
 -10  -4   0    4.80    0.51
 -10   4   0    4.67    0.58
  10   4   0    4.67    0.54
  10   4   0    4.93    0.36
 -10  -4   1    2.39    0.37
  10   4  -1    3.07    0.44
  10   4  -1    2.69    0.27
 -10   4   1    2.60    0.44
  10  -4  -2    1.96    0.25
 -10  -4   2    1.97    0.36
  10   4  -2    1.45    0.32
 -10   4   2    1.61    0.34
 -10  -4   3    0.34    0.21
  10  -4  -3    0.35    0.14
  10   4  -3    0.19    0.20
 -10   4   3    0.11    0.20
 -10  -4   4    3.74    0.51
  10   4  -4    3.54    0.45
 -10   4   4    3.81    0.51
 -10   4   4    3.24    0.43
 -10  -4   5    3.05    0.46
  10   4  -5    2.67    0.47
 -10   4   5    3.61    0.53
 -10   4   5    3.09    0.43
 -10  -4   6    0.38    0.20
 -10   4   6    0.05    0.17
 -10   4   6    0.13    0.19
  10   4  -6    0.71    0.36
 -10  -4   7    0.67    0.26
 -10   4   7    0.64    0.27
 -10   4   7    1.14    0.30
 -10  -4   8   14.76    0.93
 -10   4   8   13.68    0.87
 -10   4   8   13.32    0.84
 -10  -4   9    1.03    0.35
 -10   4   9    1.57    0.41
 -10   4   9    1.13    0.34
 -10  -4  10    2.14    0.45
 -10   4  10    2.56    0.49
 -10   4  10    1.80    0.42
 -10  -4  11   -0.23    0.19
 -10   4  11   -0.05    0.20
 -10   4  11   -0.04    0.27
 -10  -4  12    0.91    0.34
 -10   4  12    0.86    0.32
 -10   4  12    0.21    0.33
 -10  -4  13    0.27    0.27
 -10   4  13    0.59    0.37
 -10  -4  14    0.65    0.34
 -10   4  14    0.11    0.33
 -10   4  15    0.32    0.36
 -10   4  16    1.73    0.59
 -10   4  17    0.73    0.48
  10  -6  11    0.15    0.35
  10   6  11    0.43    0.41
  10  -6  10    0.20    0.36
  10   6  10    0.10    0.32
  10  -6   9    0.10    0.26
  10   6   9    0.95    0.38
  10  -6   8    0.26    0.28
  10   6   8   -0.08    0.24
  10   6   8   -0.08    0.26
  10  -6   7    0.16    0.30
  10   6   7    0.30    0.34
  10   6   7    0.15    0.29
  10  -6   6    0.20    0.30
  10   6   6    0.20    0.29
  10   6   6    0.55    0.34
  10  -6   5   -0.26    0.30
  10  -6   5   -0.31    0.19
  10   6   5    0.52    0.33
  10   6   5    0.51    0.30
  10  -6   4    0.45    0.36
  10   6   4    0.27    0.26
  10   6   4    0.22    0.28
  10  -6   3    4.00    0.61
  10   6   3    3.35    0.47
  10   6   3    4.29    0.61
 -10  -6  -2    1.17    0.27
  10  -6   2    0.93    0.37
  10   6   2    1.47    0.40
  10   6   2    1.42    0.32
 -10  -6  -1    7.41    0.56
  10  -6   1    8.38    0.83
  10   6   1    7.76    0.78
 -10  -6   0    2.42    0.38
 -10   6   0    1.92    0.42
  10   6   0    1.52    0.36
 -10   6   1   12.59    0.84
  10   6  -1   12.59    0.82
 -10  -6   2    3.00    0.43
 -10   6   2    3.20    0.53
  10   6  -2    2.54    0.44
 -10  -6   3    4.14    0.53
 -10   6   3    3.87    0.55
  10   6  -3    4.60    0.55
 -10  -6   4    0.50    0.24
 -10   6   4    0.26    0.22
  10   6  -4    0.35    0.30
 -10   6   4    0.74    0.27
 -10  -6   5    0.71    0.27
 -10   6   5    0.31    0.22
  10   6  -5    0.37    0.34
 -10   6   5    0.73    0.30
 -10  -6   6    0.19    0.19
  10   6  -6    0.13    0.34
 -10   6   6   -0.02    0.19
 -10   6   6   -0.23    0.18
 -10  -6   7    3.39    0.56
 -10   6   7    3.27    0.52
 -10   6   7    3.45    0.54
 -10  -6   8    4.71    0.65
 -10   6   8    3.34    0.54
 -10   6   8    3.69    0.57
 -10  -6   9   14.76    0.99
 -10   6   9   13.15    0.90
 -10   6   9   13.34    0.93
 -10  -6  10    1.85    0.44
 -10   6  10    1.41    0.41
 -10   6  10    1.46    0.44
 -10  -6  11    0.48    0.27
 -10   6  11    0.08    0.27
 -10   6  11    0.08    0.25
 -10  -6  12    0.90    0.38
 -10   6  12    0.91    0.39
 -10  -6  13    0.41    0.27
 -10   6  13    0.27    0.34
 -10  -6  14    0.45    0.31
 -10   6  14   -0.21    0.33
 -10  -6  15    0.43    0.30
 -10   6  15    0.50    0.43
 -10   6  16   -0.35    0.37
 -10   6  17    0.01    0.41
  10  -8  11    0.25    0.38
  10   8  11    0.44    0.38
  10   8  11    0.99    0.50
  10  -8  10    0.43    0.43
  10   8  10    0.37    0.36
  10   8  10    0.27    0.37
  10  -8   9    0.49    0.40
  10   8   9   -0.19    0.27
  10   8   9    0.59    0.38
  10  -8   8    0.89    0.42
  10   8   8    0.49    0.38
  10   8   8    0.80    0.39
  10  -8   7    0.00    0.28
  10   8   7    0.62    0.33
  10   8   7    0.17    0.30
  10  -8   6    0.58    0.35
  10  -8   6    0.76    0.40
  10   8   6    0.80    0.33
  10   8   6    0.37    0.32
  10  -8   5    1.17    0.47
  10   8   5    0.78    0.36
  10  -8   4    0.62    0.40
  10   8   4    0.57    0.32
  10  -8   3    3.87    0.65
  10   8   3    5.48    0.73
  10  -8   2    2.13    0.51
  10   8   2    1.59    0.42
  10  -8   1   -0.38    0.28
 -10  -8  -1   -0.03    0.14
  10   8   1    0.11    0.23
 -10  -8   0   -0.14    0.14
  10  -8   0    0.14    0.29
  10   8   0    0.60    0.30
 -10   8   1    1.67    0.45
  10   8  -1    1.09    0.37
 -10  -8   2    7.21    0.69
  10   8  -2    6.79    0.72
 -10   8   2    5.73    0.70
 -10  -8   3    1.84    0.37
  10   8  -3    1.15    0.36
 -10   8   3    2.10    0.45
 -10  -8   4    0.68    0.28
  10   8  -4    0.71    0.36
 -10   8   4    1.00    0.31
 -10   8   4    0.73    0.32
 -10  -8   5    4.28    0.58
  10   8  -5    3.56    0.61
 -10   8   5    4.19    0.59
 -10   8   5    4.35    0.61
 -10  -8   6    1.14    0.35
 -10   8   6    0.67    0.31
 -10   8   6    0.85    0.34
  10   8  -6    0.63    0.44
 -10  -8   7    1.61    0.43
 -10   8   7    2.67    0.49
 -10   8   7    1.79    0.44
 -10  -8   8    8.43    0.86
 -10   8   8    9.33    0.74
 -10   8   8   10.49    0.96
 -10  -8   9    3.68    0.60
 -10   8   9    4.04    0.65
 -10   8   9    2.77    0.52
 -10  -8  10    0.32    0.27
 -10   8  10   -0.05    0.22
 -10   8  10   -0.28    0.26
 -10  -8  11    0.27    0.27
 -10   8  11    1.10    0.42
 -10   8  11    0.48    0.31
 -10  -8  12    2.78    0.55
 -10   8  12    3.52    0.67
 -10  -8  13    0.50    0.33
 -10   8  13    0.05    0.32
 -10  -8  14    0.82    0.37
 -10   8  14    0.26    0.38
 -10  -8  15    0.48    0.31
 -10   8  15   -0.41    0.30
 -10   8  16    0.45    0.46
 -10   8  17   -0.01    0.37
  10 -10  10    0.07    0.35
  10  10  10    0.47    0.41
  10 -10   9    0.11    0.31
  10  10   9    0.04    0.35
  10 -10   8    0.43    0.35
  10  10   8   -0.04    0.30
  10 -10   7    2.94    0.64
  10 -10   7    2.26    0.61
  10  10   7    2.30    0.59
  10 -10   6    1.06    0.44
  10 -10   6    1.11    0.49
  10  10   6    0.58    0.38
  10 -10   5   -0.08    0.33
  10  10   5    0.17    0.29
  10 -10   4    0.31    0.40
  10  10   4   -0.20    0.24
  10 -10   3    5.83    0.82
  10  10   3    5.68    0.78
  10 -10   2    0.74    0.42
  10  10   2    0.16    0.27
  10 -10   1    2.31    0.55
  10  10   1    2.32    0.51
 -10 -10   0    2.10    0.38
  10 -10   0    1.70    0.49
  10  10   0    1.28    0.41
 -10 -10   1    7.71    0.74
  10 -10  -1    7.49    0.89
  10  10  -1    7.49    0.80
  10 -10  -2    5.16    0.72
 -10 -10   2    5.57    0.64
  10  10  -2    4.83    0.65
 -10 -10   3    0.87    0.29
  10  10  -3    1.42    0.44
 -10  10   3    1.00    0.39
 -10 -10   4   12.76    0.84
 -10  10   4    9.84    0.96
  10  10  -4    9.26    0.93
 -10  10   4   11.47    0.84
 -10 -10   5    1.35    0.36
  10  10  -5    0.86    0.46
 -10  10   5    0.48    0.38
 -10  10   5    1.19    0.38
 -10 -10   6    2.63    0.52
  10  10  -6    1.91    0.57
 -10  10   6    1.31    0.41
 -10  10   6    1.34    0.41
 -10 -10   7    3.81    0.63
 -10  10   7    3.92    0.64
 -10  10   7    3.17    0.57
 -10 -10   8   11.47    0.91
 -10  10   8   11.44    0.87
 -10  10   8   11.45    1.07
 -10 -10   9    0.97    0.35
 -10  10   9    0.99    0.43
 -10  10   9    2.27    0.52
 -10 -10  10    0.43    0.29
 -10  10  10    1.01    0.40
 -10  10  10    1.10    0.45
 -10 -10  11    1.74    0.48
 -10  10  11    1.41    0.50
 -10 -10  12    2.20    0.51
 -10  10  12    2.11    0.58
 -10 -10  13    0.38    0.29
 -10  10  13   -0.05    0.33
 -10 -10  14   -0.07    0.24
 -10  10  14    0.48    0.45
 -10 -10  15    0.58    0.40
 -10  10  15    0.23    0.44
 -10 -10  16    0.67    0.35
 -10  10  16    0.73    0.47
  10 -12  10    0.57    0.45
  10  12  10   -0.13    0.33
  10 -12   9    0.17    0.33
  10  12   9    0.02    0.35
  10 -12   8    1.28    0.46
  10  12   8    0.52    0.39
  10 -12   7    0.59    0.44
  10 -12   7    0.85    0.41
  10  12   7    0.65    0.44
  10 -12   6    1.83    0.56
  10  12   6    2.47    0.62
  10 -12   5   -0.11    0.37
  10  12   5   -0.46    0.27
  10 -12   4    1.76    0.53
  10  12   4    1.87    0.53
  10 -12   3    0.52    0.42
  10  12   3    0.21    0.32
  10 -12   2    0.40    0.42
  10  12   2    0.49    0.35
  10 -12   1   -0.11    0.37
  10  12   1    0.38    0.35
  10 -12   0   -0.31    0.30
 -10 -12   0   -0.03    0.16
  10  12   0   -0.05    0.30
 -10 -12   1    0.26    0.22
  10 -12  -1   -0.31    0.29
  10  12  -1   -0.15    0.28
 -10 -12   2   10.84    0.79
  10 -12  -2   12.14    0.97
  10  12  -2   12.93    0.99
 -10 -12   3    0.95    0.33
  10 -12  -3    1.56    0.50
  10  12  -3    1.37    0.50
  10 -12  -4    0.41    0.37
 -10 -12   4    0.50    0.27
  10  12  -4    0.44    0.43
 -10  12   4    0.63    0.31
 -10 -12   5    0.48    0.30
  10 -12  -5    0.46    0.39
 -10  12   5   -0.01    0.28
  10  12  -5    0.74    0.47
 -10 -12   6    6.25    0.78
 -10  12   6    5.31    0.76
 -10  12   6    4.68    0.74
  10  12  -6    7.03    0.97
 -10 -12   7    0.15    0.24
 -10  12   7    0.08    0.30
 -10  12   7   -0.02    0.33
 -10 -12   8   -0.08    0.22
 -10  12   8    0.11    0.35
 -10  12   8    0.27    0.33
 -10 -12   9    1.49    0.44
 -10  12   9    1.45    0.45
 -10  12   9    2.29    0.57
 -10 -12  10    0.66    0.36
 -10  12  10    0.44    0.35
 -10  12  10    0.10    0.33
 -10 -12  11    2.47    0.57
 -10  12  11    2.20    0.59
 -10 -12  12    1.08    0.40
 -10  12  12    0.84    0.48
 -10 -12  13    0.39    0.31
 -10  12  13    0.01    0.35
 -10 -12  14    0.30    0.31
 -10  12  14    0.36    0.44
 -10 -12  15    0.54    0.37
 -10  12  15    1.11    0.53
  10 -14   9    0.06    0.38
  10  14   9    0.44    0.38
  10 -14   8   -0.53    0.38
  10 -14   8   -0.30    0.35
  10  14   8   -0.32    0.36
  10 -14   7    3.73    0.78
  10 -14   7    3.23    0.73
  10  14   7    2.68    0.68
  10 -14   6    0.87    0.55
  10  14   6    0.27    0.36
  10 -14   5    0.16    0.40
  10  14   5   -0.34    0.29
  10 -14   4    0.43    0.47
  10  14   4    0.61    0.41
  10 -14   3    1.27    0.55
  10  14   3    1.63    0.54
  10 -14   2   -0.08    0.39
  10  14   2    0.25    0.34
  10 -14   1    3.94    0.77
  10  14   1    3.95    0.71
  10 -14   0    2.65    0.67
  10  14   0    3.49    0.66
  10 -14  -1   12.70    1.27
 -10 -14   1   13.47    0.90
  10  14  -1   13.82    1.25
 -10 -14   2    0.08    0.23
  10 -14  -2    0.69    0.46
  10  14  -2    0.10    0.39
  10 -14  -3    3.83    0.69
 -10 -14   3    3.93    0.61
  10  14  -3    3.54    0.69
  10 -14  -4    0.68    0.43
 -10 -14   4    0.86    0.34
  10  14  -4   -0.21    0.40
 -10  14   4    0.54    0.35
  10 -14  -5   10.26    1.07
 -10 -14   5   11.17    1.06
 -10  14   5   11.06    1.13
  10  14  -5   11.92    1.23
  10 -14  -6   -0.08    0.32
 -10 -14   6    0.11    0.24
 -10  14   6    1.06    0.45
  10  14  -6   -0.40    0.44
 -10 -14   7   -0.06    0.22
  10 -14  -7   -0.57    0.29
 -10  14   7    0.07    0.35
 -10 -14   8    0.13    0.27
  10 -14  -8   -0.32    0.30
 -10  14   8   -0.09    0.28
  10 -14  -9    0.33    0.36
 -10 -14   9    0.24    0.29
 -10  14   9    0.23    0.36
 -10 -14  10    0.16    0.24
 -10  14  10   -0.50    0.31
 -10 -14  11   -0.10    0.19
 -10  14  11    0.38    0.43
 -10 -14  12    0.40    0.34
 -10  14  12    1.08    0.49
 -10 -14  13    0.71    0.40
 -10  14  13    0.04    0.42
 -10  14  14    0.24    0.47
 -10  14  15   -0.40    0.43
  10 -16   8    0.54    0.52
  10  16   8    0.60    0.51
  10 -16   7    0.64    0.50
  10 -16   7    0.10    0.37
  10  16   7    0.20    0.42
  10 -16   6    2.00    0.67
  10  16   6    1.01    0.52
  10 -16   5    1.47    0.63
  10  16   5    0.12    0.39
  10 -16   4    1.12    0.53
  10  16   4   -0.27    0.39
  10 -16   3    3.32    0.76
  10  16   3    2.07    0.59
  10 -16   2    0.47    0.47
  10  16   2   -0.22    0.34
  10 -16   1    0.06    0.37
  10  16   1    0.31    0.41
  10 -16   0    0.27    0.44
  10  16   0    0.46    0.43
  10 -16  -1    1.21    0.55
  10  16  -1    1.75    0.55
  10 -16  -2    0.76    0.49
 -10 -16   2    1.17    0.38
  10  16  -2    1.10    0.50
  10 -16  -3   -0.55    0.34
 -10 -16   3    0.17    0.28
  10  16  -3    0.13    0.43
 -10 -16   4    0.65    0.33
  10 -16  -4   -0.23    0.32
  10  16  -4   -0.34    0.43
  10 -16  -5    0.25    0.40
 -10 -16   5    0.29    0.30
  10  16  -5   -0.24    0.47
 -10  16   5    0.08    0.33
 -10 -16   6    0.23    0.28
  10 -16  -6   -0.35    0.34
 -10  16   6   -0.28    0.28
 -10 -16   7    0.64    0.36
  10 -16  -7    0.44    0.41
 -10  16   7    1.80    0.55
  10 -16  -8    0.03    0.38
 -10 -16   8   -0.01    0.25
 -10  16   8    0.32    0.39
 -10 -16   9    0.17    0.29
 -10  16   9    0.09    0.34
 -10 -16  10    0.09    0.29
 -10  16  10    0.16    0.36
 -10 -16  11    0.68    0.36
 -10  16  11    0.37    0.46
 -10 -16  12    0.96    0.40
 -10  16  12    1.28    0.57
 -10  16  13   -0.41    0.39
  10  18   6   -0.25    0.41
  10 -18   5    0.56    0.54
  10  18   5    0.31    0.46
  10 -18   4    0.64    0.53
  10  18   4   -0.04    0.42
  10 -18   3    0.23    0.42
  10  18   3    0.14    0.46
  10 -18   2   -0.62    0.30
  10  18   2   -0.01    0.40
  10 -18   1    1.30    0.58
  10  18   1    1.52    0.56
  10 -18   0    1.40    0.57
  10  18   0    0.09    0.44
  10 -18  -1   -0.33    0.37
  10  18  -1   -0.43    0.35
  10 -18  -2    0.18    0.45
 -10 -18   2    0.72    0.34
  10  18  -2   -0.53    0.42
  10 -18  -3    0.19    0.46
 -10 -18   3    0.24    0.29
  10  18  -3    0.19    0.55
 -10 -18   4    2.58    0.58
  10 -18  -4    1.40    0.58
  10  18  -4    1.11    0.65
 -10 -18   5    0.62    0.35
  10 -18  -5    0.85    0.52
  10  18  -5    0.74    0.65
 -10  18   5   -0.02    0.29
 -10 -18   6    0.58    0.33
  10 -18  -6    1.50    0.51
 -10  18   6   -0.34    0.26
 -10 -18   7    0.45    0.33
  10 -18  -7   -0.86    0.33
 -10  18   7    0.47    0.37
 -10 -18   8    0.25    0.30
 -10  18   8    1.35    0.55
 -10 -18   9   -0.12    0.24
 -10  18   9   -0.37    0.33
 -10 -18  10    1.17    0.46
 -10  18  10    0.25    0.45
 -10  18  11   -0.46    0.36
 -10  18  12    0.09    0.45
  10  20   5   -0.54    0.39
  10  20   4   -0.58    0.45
  10  20   3    1.19    0.62
  10 -20   2   -0.04    0.43
  10  20   2    0.09    0.50
  10 -20   1    0.25    0.41
  10  20   1   -0.28    0.43
  10 -20   0    0.28    0.46
  10  20   0   -0.39    0.40
  10 -20  -1    0.95    0.57
  10  20  -1    2.09    0.71
  10 -20  -2    0.61    0.51
  10  20  -2    0.61    0.58
  10 -20  -3    0.39    0.51
 -10 -20   3    1.23    0.44
  10  20  -3    0.64    0.67
 -10 -20   4    0.08    0.31
  10 -20  -4   -0.25    0.40
  10  20  -4   -0.05    0.63
 -10 -20   5    0.44    0.33
  10 -20  -5    0.88    0.57
 -10 -20   6    0.18    0.30
  10 -20  -6    0.01    0.42
 -10  20   6    0.49    0.39
  10 -20  -7    0.95    0.55
 -10 -20   7    1.49    0.52
 -10  20   7    0.14    0.40
 -10 -20   8    0.11    0.32
 -10  20   8    1.62    0.58
 -10  20   9   -0.11    0.34
 -10  20  10    0.73    0.52
  10  22   2   -0.40    0.47
  10  22   1   -0.48    0.51
  10  22   0    1.72    0.79
  10  22  -1   -0.36    0.57
  10  22  -2   -0.15    0.61
  10 -22  -3    0.94    0.59
  10  22  -3    0.50    0.68
  10 -22  -4    1.79    0.66
 -10 -22   4    2.84    0.62
  10  22  -4    3.60    0.98
 -10 -22   5    0.97    0.43
  10 -22  -5   -0.10    0.44
  10 -22  -6    0.14    0.57
 -10  22   7   -0.04    0.36
 -10  22   8    0.26    0.46
  11  -1  11    1.99    0.58
  11   1  11    1.03    0.51
  11  -1  10    0.45    0.40
  11   1  10    0.14    0.35
  11  -1   9    0.25    0.33
  11   1   9    0.22    0.32
  11  -1   8    0.48    0.33
  11   1   8    0.25    0.32
  11  -1   7    0.10    0.27
  11   1   7    0.33    0.30
  11  -1   6    0.10    0.23
  11   1   6   -0.07    0.21
  11  -1   5    1.15    0.37
  11   1   5    1.52    0.40
  11  -1   4   15.79    1.00
  11   1   4   18.49    1.02
 -11  -1  -3    1.09    0.32
  11  -1   3    0.69    0.28
 -11   1  -3    1.16    0.33
  11   1   3    0.81    0.31
 -11  -1  -2    1.89    0.38
  11  -1   2    2.40    0.42
 -11   1  -2    2.17    0.42
  11   1   2    2.21    0.45
  11   1   2    2.90    0.43
 -11  -1  -1    9.36    0.64
  11   1   1    8.61    0.59
  11   1   1    8.96    0.70
  11  -1   0   69.75    2.39
 -11   1   0   68.01    2.43
  11   1   0   67.72    2.25
  11   1   0   67.63    2.40
 -11  -1   1    2.98    0.44
  11  -1  -1    2.07    0.33
 -11   1   1    2.25    0.42
  11   1  -1    2.70    0.40
  11  -1  -2   11.99    0.68
 -11  -1   2   12.86    0.79
 -11   1   2   14.08    0.84
  11   1  -2   13.81    0.76
  11  -1  -3    2.09    0.30
 -11  -1   3    1.46    0.33
 -11   1   3    2.19    0.39
  11   1  -3    2.66    0.37
  11  -1  -4    0.57    0.21
 -11  -1   4    0.50    0.24
  11   1  -4    0.67    0.24
 -11   1   4    0.87    0.30
  11  -1  -5    0.91    0.27
 -11  -1   5    0.62    0.27
 -11  -1   5    0.43    0.17
  11   1  -5    1.01    0.30
 -11   1   5    0.43    0.20
 -11   1   5    0.57    0.24
 -11  -1   6    3.60    0.37
 -11  -1   6    3.35    0.52
 -11   1   6    3.82    0.53
 -11   1   6    4.24    0.44
  11   1  -6    3.29    0.48
 -11  -1   7    1.04    0.31
 -11  -1   7    0.71    0.23
 -11   1   7    0.88    0.27
 -11   1   7    0.73    0.28
 -11  -1   8    2.29    0.43
 -11  -1   8    3.28    0.40
 -11   1   8    2.45    0.41
 -11   1   8    1.73    0.40
 -11  -1   9    4.32    0.59
 -11  -1   9    2.97    0.44
 -11   1   9    3.45    0.56
 -11   1   9    2.38    0.44
 -11  -1  10    5.87    0.72
 -11  -1  10    7.49    0.69
 -11   1  10    6.74    0.71
 -11   1  10    5.80    0.73
 -11  -1  11    0.72    0.31
 -11  -1  11    0.30    0.27
 -11   1  11   -0.05    0.13
 -11   1  11    1.20    0.39
 -11  -1  12    5.54    0.66
 -11  -1  12    4.16    0.64
 -11   1  12    4.72    0.65
 -11   1  12    5.62    0.73
 -11  -1  13    1.57    0.39
 -11  -1  13    1.96    0.44
 -11   1  13    2.97    0.54
 -11   1  13    2.08    0.50
 -11  -1  14   -0.11    0.20
 -11   1  14    0.19    0.35
 -11   1  15    1.64    0.50
 -11   1  16    0.02    0.36
 -11   1  17   -0.18    0.36
  11  -3  11    0.63    0.46
  11   3  11    0.21    0.38
  11  -3  10    1.22    0.49
  11   3  10    0.31    0.36
  11  -3   9    0.96    0.44
  11   3   9    0.40    0.36
  11  -3   8    0.83    0.41
  11   3   8    1.31    0.43
  11  -3   7    0.35    0.29
  11   3   7    0.34    0.31
  11  -3   6    0.93    0.38
  11   3   6    0.97    0.34
  11  -3   5    1.28    0.38
  11   3   5    0.71    0.34
  11  -3   4    0.79    0.35
  11  -3   4    0.17    0.25
  11   3   4    0.29    0.29
  11   3   4    0.57    0.36
  11  -3   3    0.54    0.30
  11  -3   3    0.20    0.25
  11   3   3    0.26    0.24
  11   3   3    0.14    0.26
 -11  -3  -2    9.05    0.62
 -11   3  -2    9.25    0.71
  11   3   2    9.34    0.63
  11   3   2    8.90    0.88
 -11  -3  -1    0.33    0.22
  11   3   1    0.34    0.21
  11   3   1    0.41    0.25
 -11   3  -1   -0.45    0.18
 -11  -3   0    3.48    0.47
  11   3   0    3.12    0.36
 -11   3   0    2.50    0.45
  11   3   0    2.86    0.46
 -11  -3   1    1.55    0.32
  11  -3  -1    1.18    0.26
  11   3  -1    1.58    0.25
  11   3  -1    1.42    0.34
 -11   3   1    1.68    0.38
  11  -3  -2    2.89    0.34
 -11  -3   2    3.45    0.49
 -11   3   2    3.81    0.53
  11   3  -2    2.45    0.40
  11  -3  -3    2.16    0.29
 -11  -3   3    1.91    0.37
  11   3  -3    1.81    0.35
 -11   3   3    2.61    0.46
  11  -3  -4   14.98    0.66
 -11  -3   4   14.15    0.86
 -11   3   4   14.80    0.77
 -11   3   4   14.36    0.90
  11   3  -4   14.57    0.83
 -11  -3   5    0.59    0.23
 -11   3   5    0.72    0.23
 -11   3   5    0.61    0.24
  11   3  -5    0.70    0.31
 -11  -3   6    2.52    0.45
 -11   3   6    2.24    0.43
  11   3  -6    1.75    0.44
 -11   3   6    1.95    0.35
 -11  -3   7   11.97    0.82
 -11   3   7   11.87    0.82
 -11   3   7   10.61    0.69
 -11  -3   8    3.07    0.52
 -11   3   8    2.52    0.46
 -11  -3   9    0.78    0.30
 -11   3   9    1.04    0.36
 -11   3   9    0.72    0.31
 -11  -3  10    5.69    0.73
 -11   3  10    6.38    0.73
 -11   3  10    6.98    0.74
 -11  -3  11   14.95    1.03
 -11   3  11   14.89    0.99
 -11   3  11   15.37    0.99
 -11  -3  12    0.37    0.27
 -11   3  12    0.28    0.34
 -11   3  12    0.06    0.24
 -11  -3  13    1.13    0.40
 -11   3  13    0.67    0.39
 -11   3  13    1.05    0.37
 -11  -3  14    0.77    0.33
 -11   3  14    0.27    0.33
 -11  -3  15    0.13    0.27
 -11   3  15    0.16    0.35
 -11   3  16    0.20    0.37
 -11   3  17    0.06    0.40
  11  -5  11    0.67    0.46
  11   5  11    0.74    0.48
  11  -5  10   -0.08    0.31
  11   5  10   -0.46    0.28
  11  -5   9    0.21    0.33
  11   5   9   -0.12    0.30
  11  -5   8    3.77    0.70
  11   5   8    2.86    0.59
  11  -5   7    0.17    0.27
  11   5   7   -0.31    0.27
  11   5   7   -0.22    0.22
  11  -5   6    0.24    0.30
  11   5   6   -0.30    0.22
  11   5   6   -0.08    0.23
  11  -5   5   -0.07    0.30
  11  -5   5    0.33    0.26
  11   5   5    0.43    0.27
  11   5   5   -0.15    0.24
  11  -5   4    2.05    0.47
  11  -5   4    3.33    0.58
  11   5   4    2.80    0.49
  11   5   4    2.79    0.57
  11  -5   3    0.00    0.28
  11   5   3    0.25    0.26
  11   5   3    0.22    0.27
  11  -5   2    0.83    0.36
  11   5   2    0.94    0.33
 -11  -5  -1    7.82    0.57
  11   5   1    7.97    0.81
 -11   5  -1   10.14    0.92
 -11  -5   0    6.72    0.64
 -11   5   0    6.86    0.74
  11   5   0    6.23    0.68
 -11  -5   1   -0.03    0.09
  11   5  -1    0.01    0.22
 -11   5   1    0.03    0.23
 -11  -5   2    0.73    0.26
  11  -5  -2    0.90    0.21
  11   5  -2    0.81    0.30
 -11   5   2    1.27    0.36
 -11  -5   3    1.73    0.36
  11   5  -3    1.18    0.33
 -11   5   3    1.60    0.39
 -11  -5   4   17.64    1.00
 -11   5   4   19.39    1.06
  11   5  -4   18.93    1.03
 -11   5   4   18.09    0.95
 -11  -5   5    8.73    0.68
 -11   5   5    8.79    0.62
 -11   5   5    7.08    0.76
  11   5  -5    9.66    0.83
 -11  -5   6    0.17    0.20
  11   5  -6   -0.11    0.33
 -11   5   6   -0.02    0.21
 -11   5   6   -0.02    0.18
 -11  -5   7    0.70    0.28
 -11   5   7    1.38    0.35
 -11   5   7    0.68    0.33
 -11  -5   8    0.92    0.33
 -11   5   8    0.64    0.30
 -11   5   8    0.78    0.31
 -11  -5   9    0.06    0.22
 -11   5   9    0.18    0.21
 -11   5   9   -0.07    0.24
 -11  -5  10    3.13    0.56
 -11   5  10    2.64    0.51
 -11   5  10    2.69    0.52
 -11  -5  11    1.95    0.48
 -11   5  11    1.86    0.43
 -11   5  11    0.99    0.42
 -11  -5  12    0.17    0.28
 -11   5  12   -0.30    0.27
 -11   5  12    0.38    0.27
 -11  -5  13    1.47    0.42
 -11   5  13    0.94    0.42
 -11  -5  14    0.18    0.25
 -11   5  14   -0.47    0.25
 -11  -5  15    0.22    0.29
 -11   5  15    0.07    0.33
 -11   5  16    0.81    0.44
 -11   5  17   -0.11    0.40
  11  -7  10    0.47    0.41
  11   7  10    0.11    0.35
  11   7  10    0.28    0.40
  11  -7   9   -0.13    0.23
  11   7   9    0.26    0.36
  11   7   9    0.33    0.37
  11  -7   8    0.02    0.27
  11   7   8    0.07    0.32
  11  -7   7    1.61    0.47
  11   7   7    0.99    0.41
  11  -7   6    0.08    0.29
  11   7   6    0.18    0.32
  11  -7   5    0.02    0.24
  11  -7   5    0.70    0.40
  11   7   5   -0.04    0.27
  11  -7   4    0.44    0.37
  11   7   4    0.64    0.37
  11  -7   3    0.09    0.30
  11   7   3    0.01    0.26
  11  -7   2    1.17    0.43
  11   7   2    1.56    0.44
 -11  -7  -1    6.26    0.61
  11  -7   1    5.86    0.75
  11   7   1    6.18    0.74
  11  -7   0    1.56    0.45
 -11  -7   0    2.01    0.36
 -11   7   0    2.67    0.54
  11   7   0    1.83    0.42
 -11  -7   1    0.01    0.10
 -11   7   1    0.77    0.34
  11   7  -1   -0.06    0.24
 -11  -7   2    8.42    0.64
 -11   7   2    6.90    0.79
  11   7  -2    8.61    0.80
 -11  -7   3    0.77    0.29
  11   7  -3    0.06    0.26
 -11   7   3    0.45    0.31
 -11  -7   4   -0.13    0.15
 -11   7   4    0.32    0.22
 -11   7   4    0.08    0.23
  11   7  -4    0.30    0.32
 -11  -7   5    0.96    0.33
 -11   7   5    0.52    0.29
 -11   7   5    0.72    0.28
  11   7  -5    0.84    0.40
 -11  -7   6    3.33    0.54
  11   7  -6    4.32    0.68
 -11   7   6    4.05    0.60
 -11   7   6    4.90    0.62
 -11  -7   7    0.07    0.22
 -11   7   7    0.15    0.25
 -11   7   7   -0.11    0.21
 -11  -7   8    3.69    0.59
 -11   7   8    3.10    0.54
 -11   7   8    3.33    0.58
 -11  -7   9    0.39    0.28
 -11   7   9    0.28    0.27
 -11   7   9    0.12    0.29
 -11  -7  10    2.47    0.52
 -11   7  10    3.31    0.58
 -11   7  10    3.00    0.57
 -11  -7  11    0.13    0.25
 -11   7  11    0.14    0.25
 -11   7  11    0.20    0.30
 -11  -7  12    0.13    0.25
 -11   7  12    0.21    0.27
 -11   7  12    0.06    0.34
 -11  -7  13    0.30    0.25
 -11   7  13   -0.11    0.29
 -11  -7  14    0.36    0.30
 -11   7  14    0.38    0.40
 -11  -7  15    0.41    0.34
 -11   7  15    0.15    0.39
 -11  -7  16    0.63    0.37
 -11   7  16   -0.22    0.36
 -11   7  17   -0.32    0.34
  11  -9  10   -0.23    0.27
  11   9  10   -0.17    0.34
  11  -9   9    0.85    0.45
  11   9   9    0.66    0.42
  11  -9   8    0.18    0.33
  11   9   8    0.46    0.39
  11  -9   7    0.12    0.28
  11   9   7    0.37    0.36
  11  -9   6    0.27    0.40
  11  -9   6    1.11    0.41
  11   9   6    0.24    0.31
  11  -9   5    1.12    0.50
  11   9   5    0.56    0.38
  11  -9   4    0.15    0.38
  11   9   4    0.18    0.32
  11  -9   3   -0.35    0.28
  11   9   3    0.43    0.31
  11  -9   2    0.85    0.40
  11   9   2    1.12    0.42
  11  -9   1   14.40    1.03
  11   9   1   15.69    1.08
  11  -9   0    1.07    0.44
 -11  -9   0    0.65    0.26
  11   9   0    0.94    0.37
  11  -9  -1    0.11    0.32
 -11  -9   1    0.55    0.24
  11   9  -1    0.33    0.31
 -11  -9   2    0.23    0.20
  11   9  -2   -0.08    0.26
 -11   9   2   -0.26    0.26
 -11  -9   3    2.45    0.44
  11   9  -3    2.03    0.46
 -11   9   3    2.45    0.51
 -11  -9   4   10.90    0.80
  11   9  -4    8.66    0.88
 -11   9   4    9.88    0.78
 -11   9   4    9.91    0.97
 -11  -9   5   -0.07    0.19
  11   9  -5    0.26    0.44
 -11   9   5   -0.06    0.26
 -11   9   5   -0.07    0.22
 -11  -9   6    5.86    0.73
  11   9  -6    5.87    0.80
 -11   9   6    7.75    0.82
 -11   9   6    7.78    0.86
 -11  -9   7    1.42    0.43
 -11   9   7    2.00    0.48
 -11   9   7    1.96    0.47
 -11  -9   8    0.32    0.27
 -11   9   8    0.01    0.25
 -11   9   8    0.07    0.29
 -11  -9   9    2.62    0.53
 -11   9   9    2.10    0.50
 -11   9   9    2.00    0.48
 -11  -9  10    0.71    0.33
 -11   9  10    0.93    0.37
 -11   9  10    1.93    0.49
 -11  -9  11    2.76    0.57
 -11   9  11    1.15    0.40
 -11   9  11    2.44    0.55
 -11  -9  12   -0.07    0.20
 -11   9  12    0.44    0.41
 -11  -9  13   -0.05    0.23
 -11   9  13    0.50    0.38
 -11  -9  14    0.06    0.24
 -11   9  14    0.14    0.42
 -11  -9  15    0.26    0.25
 -11   9  15    0.06    0.36
 -11  -9  16    0.57    0.35
 -11   9  16   -0.43    0.31
  11 -11   9   -0.03    0.36
  11  11   9    0.31    0.40
  11 -11   8    0.96    0.45
  11  11   8    1.68    0.59
  11 -11   7    2.12    0.60
  11  11   7    0.90    0.48
  11 -11   6    1.09    0.46
  11 -11   6    0.52    0.41
  11  11   6    0.62    0.42
  11 -11   5    0.38    0.38
  11  11   5    0.46    0.39
  11 -11   4    2.38    0.60
  11  11   4    1.52    0.46
  11 -11   3    0.64    0.46
  11  11   3    0.42    0.37
  11 -11   2   -0.02    0.32
  11  11   2    0.10    0.28
  11 -11   1    0.02    0.36
  11  11   1    0.30    0.32
 -11 -11   0    5.86    0.65
  11 -11   0    6.03    0.84
  11  11   0    6.07    0.81
 -11 -11   1   -0.03    0.20
  11 -11  -1   -0.05    0.29
  11  11  -1    0.02    0.32
  11 -11  -2    2.56    0.59
 -11 -11   2    3.03    0.51
  11  11  -2    4.41    0.69
  11 -11  -3    2.03    0.54
 -11 -11   3    2.60    0.49
  11  11  -3    2.58    0.57
 -11 -11   4    0.19    0.21
  11  11  -4   -0.04    0.40
 -11  11   4    0.21    0.27
 -11  11   4    0.39    0.34
 -11 -11   5    1.53    0.40
  11  11  -5    0.96    0.51
 -11  11   5    1.61    0.46
 -11  11   5    1.03    0.43
 -11 -11   6    6.46    0.79
 -11  11   6    4.62    0.72
  11  11  -6    4.86    0.82
 -11  11   6    6.14    0.80
 -11 -11   7    7.37    0.87
 -11  11   7    6.57    0.84
 -11  11   7    6.81    0.83
 -11 -11   8    0.46    0.29
 -11  11   8    0.46    0.35
 -11  11   8    0.00    0.27
 -11 -11   9    0.06    0.21
 -11  11   9    0.34    0.33
 -11  11   9    0.24    0.31
 -11 -11  10    1.05    0.39
 -11  11  10    1.30    0.46
 -11  11  10    2.18    0.57
 -11 -11  11    0.50    0.29
 -11  11  11    0.55    0.39
 -11 -11  12    0.54    0.35
 -11  11  12    0.86    0.44
 -11 -11  13    0.21    0.27
 -11  11  13    0.20    0.41
 -11 -11  14    0.31    0.27
 -11  11  14    0.35    0.43
 -11 -11  15    0.32    0.30
 -11  11  15    0.25    0.40
 -11  11  16    0.27    0.40
  11 -13   9    2.34    0.66
  11  13   9    3.49    0.76
  11 -13   8    0.34    0.36
  11  13   8   -0.06    0.34
  11 -13   7    1.80    0.61
  11 -13   7    1.70    0.56
  11  13   7    0.96    0.48
  11 -13   6   -0.79    0.31
  11  13   6    0.35    0.36
  11 -13   5    5.35    0.89
  11  13   5    4.02    0.76
  11 -13   4   -0.28    0.39
  11  13   4    0.18    0.38
  11 -13   3    1.13    0.56
  11  13   3    0.93    0.44
  11 -13   2    0.60    0.48
  11  13   2    0.04    0.30
  11 -13   1    0.36    0.42
  11  13   1   -0.18    0.27
  11 -13   0    1.29    0.51
  11  13   0    1.12    0.46
 -11 -13   1    1.83    0.42
  11 -13  -1    1.72    0.56
  11  13  -1    1.89    0.53
  11 -13  -2    2.57    0.60
 -11 -13   2    3.01    0.52
  11  13  -2    2.17    0.57
 -11 -13   3    2.12    0.48
  11 -13  -3    2.16    0.60
  11  13  -3    2.48    0.63
 -11 -13   4    8.27    0.90
  11 -13  -4    8.93    1.00
  11  13  -4    6.80    0.92
 -11 -13   5    3.55    0.61
  11 -13  -5    3.23    0.63
 -11  13   5    3.21    0.63
  11  13  -5    2.88    0.71
 -11 -13   6    5.88    0.77
  11 -13  -6    5.45    0.82
 -11  13   6    5.26    0.80
  11  13  -6    4.95    0.90
  11 -13  -7    6.43    0.87
 -11 -13   7    6.77    0.85
 -11  13   7    6.90    0.90
 -11 -13   8    1.59    0.46
 -11  13   8    1.04    0.44
 -11  13   8    0.64    0.35
 -11 -13   9    0.33    0.28
 -11  13   9   -0.50    0.30
 -11  13   9    0.52    0.39
 -11 -13  10    0.40    0.29
 -11  13  10    0.67    0.44
 -11  13  10    0.17    0.36
 -11 -13  11    0.30    0.30
 -11  13  11   -0.07    0.36
 -11 -13  12    0.16    0.25
 -11  13  12   -0.03    0.37
 -11 -13  13    0.29    0.31
 -11  13  13   -0.24    0.39
 -11 -13  14    0.25    0.30
 -11  13  14    0.15    0.41
 -11  13  15    0.74    0.50
  11 -15   8    3.26    0.82
  11  15   8    1.44    0.60
  11 -15   7    0.00    0.41
  11 -15   7    0.56    0.53
  11  15   7   -0.36    0.36
  11 -15   6    0.23    0.48
  11  15   6    0.49    0.47
  11 -15   5    0.24    0.42
  11  15   5    0.42    0.44
  11 -15   4    6.51    1.03
  11  15   4    5.98    0.92
  11 -15   3    2.65    0.71
  11  15   3    0.20    0.42
  11 -15   2    0.67    0.51
  11  15   2   -0.22    0.31
  11 -15   1    2.34    0.65
  11  15   1    2.55    0.65
  11 -15   0    2.72    0.70
  11  15   0    1.65    0.56
  11 -15  -1   -0.14    0.36
  11  15  -1    0.53    0.42
  11 -15  -2   -0.21    0.36
 -11 -15   2    0.16    0.24
  11  15  -2    0.27    0.44
  11 -15  -3    0.17    0.39
 -11 -15   3   -0.12    0.27
  11  15  -3    0.55    0.46
  11 -15  -4    0.84    0.45
 -11 -15   4    1.15    0.40
  11  15  -4    1.48    0.59
 -11 -15   5    0.06    0.21
  11 -15  -5    1.22    0.49
 -11  15   5    0.19    0.33
  11  15  -5    0.09    0.53
 -11 -15   6    0.47    0.32
  11 -15  -6    0.05    0.34
 -11  15   6    0.48    0.39
  11  15  -6    0.35    0.58
 -11 -15   7    0.18    0.27
  11 -15  -7    0.22    0.41
 -11  15   7   -0.24    0.30
  11 -15  -8   -0.24    0.34
 -11 -15   8    0.39    0.31
 -11  15   8    0.07    0.35
 -11 -15   9   -0.06    0.23
  11 -15  -9    0.09    0.38
 -11  15   9    0.58    0.45
 -11 -15  10    0.06    0.26
 -11  15  10    0.70    0.45
 -11 -15  11    0.50    0.32
 -11  15  11   -0.15    0.32
 -11 -15  12    0.41    0.32
 -11  15  12    0.11    0.41
 -11  15  13    0.38    0.48
 -11  15  14   -0.34    0.39
  11  17   6   -0.02    0.41
  11 -17   5   -0.65    0.38
  11  17   5   -0.18    0.41
  11 -17   4   -0.45    0.37
  11  17   4   -0.24    0.37
  11 -17   3   -0.06    0.39
  11  17   3   -0.26    0.38
  11 -17   2    0.13    0.43
  11  17   2    0.38    0.46
  11 -17   1    0.51    0.48
  11  17   1    0.98    0.55
  11 -17   0   -0.20    0.36
  11  17   0    0.00    0.39
  11 -17  -1   -0.38    0.37
  11  17  -1    0.06    0.44
  11 -17  -2    0.50    0.46
  11  17  -2    0.83    0.54
 -11 -17   3    2.84    0.57
  11 -17  -3    3.37    0.75
  11  17  -3    2.89    0.75
 -11 -17   4    0.22    0.28
  11 -17  -4    0.32    0.47
  11  17  -4    0.33    0.49
 -11 -17   5    0.51    0.34
  11 -17  -5    0.03    0.44
  11  17  -5    0.73    0.64
 -11  17   5    0.86    0.43
 -11 -17   6    0.81    0.39
  11 -17  -6    0.65    0.49
  11  17  -6    0.71    0.64
 -11  17   6    1.02    0.47
  11 -17  -7    0.15    0.40
 -11 -17   7    0.85    0.40
 -11  17   7    0.61    0.42
 -11 -17   8    0.45    0.34
  11 -17  -8    0.41    0.44
 -11  17   8    0.03    0.33
 -11 -17   9    0.20    0.32
 -11  17   9   -0.09    0.34
 -11 -17  10    0.44    0.35
 -11  17  10    0.44    0.42
 -11  17  11   -0.17    0.35
 -11  17  12   -0.18    0.41
 -11  17  13    0.45    0.53
  11  19   5    0.30    0.48
  11  19   4   -0.03    0.47
  11  19   3   -0.66    0.35
  11 -19   2   -0.03    0.40
  11  19   2   -0.54    0.39
  11 -19   1    0.15    0.45
  11  19   1    0.82    0.57
  11 -19   0    0.93    0.54
  11  19   0    0.35    0.52
  11 -19  -1    0.18    0.44
  11  19  -1    0.05    0.51
  11 -19  -2   -0.26    0.44
  11  19  -2    0.01    0.51
  11 -19  -3    2.08    0.67
 -11 -19   3    2.14    0.52
  11  19  -3    0.51    0.60
  11 -19  -4    3.73    0.85
 -11 -19   4    4.05    0.71
  11  19  -4    2.31    0.80
  11 -19  -5   -0.07    0.44
 -11 -19   5    0.40    0.33
  11  19  -5   -0.55    0.54
 -11 -19   6    0.28    0.32
  11 -19  -6    0.85    0.49
 -11  19   6   -0.19    0.31
  11 -19  -7    0.19    0.43
 -11 -19   7    0.52    0.37
 -11  19   7    0.25    0.40
 -11 -19   8    0.77    0.47
 -11  19   8   -0.09    0.38
 -11 -19   9    0.19    0.33
 -11  19   9   -0.12    0.35
 -11  19  10    0.39    0.48
 -11  19  11    0.32    0.43
  11  21   2   -0.22    0.52
  11  21   1   -0.94    0.38
  11  21   0   -0.57    0.47
  11  21  -1    0.12    0.53
  11 -21  -2    0.03    0.51
  11  21  -2    0.63    0.71
  11 -21  -3   -0.11    0.46
  11  21  -3    0.01    0.62
 -11 -21   4    0.20    0.32
  11 -21  -4    0.51    0.56
  11  21  -4    0.18    0.69
  11 -21  -5   -0.62    0.49
 -11 -21   5    1.58    0.50
  11  21  -5    1.03    0.79
 -11 -21   6    0.84    0.45
  11 -21  -6    0.85    0.56
  11 -21  -7    0.01    0.48
 -11  21   7   -0.29    0.34
 -11  21   8    0.01    0.38
 -11  21   9   -0.13    0.38
  11  23  -2    0.22    0.64
  11  23  -3   -0.03    0.73
  11  23  -4    1.33    0.86
  12   0  10    0.56    0.44
  12   0   9    0.79    0.42
  12   0   8    0.71    0.40
  12   0   7    0.09    0.25
  12   0   6    1.34    0.39
  12   0   5    0.06    0.20
  12   0   4    3.39    0.55
  12   0   3    0.41    0.27
 -12   0  -3   -0.70    0.19
 -12   0  -2    7.56    0.74
  12   0   2    6.73    0.68
  12   0   1   -0.08    0.20
  12   0   1   -0.20    0.17
 -12   0  -1   -0.08    0.12
  12   0   0   12.35    0.79
 -12   0   0   12.93    0.81
  12   0  -1   -0.21    0.15
 -12   0   1   -0.09    0.20
 -12   0   2   14.73    0.89
  12   0  -2   16.20    0.85
 -12   0   3   -0.03    0.17
  12   0  -3   -0.20    0.17
 -12   0   4    3.37    0.51
  12   0  -4    4.26    0.45
  12   0  -5    0.05    0.23
 -12   0   5   -0.21    0.12
  12   0  -6    0.93    0.32
 -12   0   6    1.07    0.31
 -12   0   6    0.45    0.19
 -12   0   7    0.08    0.16
 -12   0   7   -0.19    0.15
 -12   0   8    1.96    0.36
 -12   0   8    1.90    0.43
 -12   0   9   -0.18    0.19
 -12   0   9    0.13    0.23
 -12   0  10    9.71    0.96
 -12   0  10    9.85    0.70
 -12   0  11    0.50    0.28
 -12   0  11   -0.30    0.23
 -12   0  12    2.98    0.56
 -12   0  13   -0.18    0.20
 -12   0  14    1.78    0.46
  12  -2  10    0.68    0.45
  12   2  10   -0.33    0.27
  12  -2   9    0.32    0.36
  12   2   9   -0.26    0.26
  12  -2   8   -0.14    0.24
  12   2   8    0.23    0.30
  12  -2   7    0.16    0.28
  12   2   7    0.06    0.31
  12  -2   6    0.41    0.30
  12   2   6    0.26    0.29
  12  -2   5    2.25    0.48
  12   2   5    1.08    0.38
  12  -2   4    1.98    0.43
  12   2   4    2.25    0.46
  12  -2   3    4.11    0.59
  12  -2   3    3.49    0.57
  12   2   3    4.43    0.57
  12   2   3    4.40    0.67
  12  -2   2    0.38    0.26
 -12  -2  -2    0.99    0.31
  12   2   2    0.38    0.23
 -12   2  -2   -0.04    0.12
  12   2   2    0.22    0.27
 -12  -2  -1   13.08    0.82
  12   2   1   14.36    0.91
 -12   2  -1   14.11    0.89
  12   2   1   12.72    0.75
  12  -2   0    6.73    0.65
 -12   2   0    8.10    0.78
  12   2   0    7.07    0.70
  12   2   0    7.49    0.51
 -12  -2   1   -0.09    0.16
  12  -2  -1    0.33    0.20
  12   2  -1    0.15    0.17
  12   2  -1    0.02    0.20
 -12   2   1   -0.23    0.20
 -12  -2   2    0.86    0.29
  12  -2  -2    1.08    0.25
  12   2  -2    0.62    0.26
 -12   2   2    0.94    0.34
  12  -2  -3   14.64    0.73
 -12  -2   3   13.44    0.85
 -12   2   3   13.85    0.90
  12   2  -3   13.33    0.80
 -12  -2   4    0.11    0.21
  12  -2  -4    0.13    0.19
 -12   2   4    0.03    0.18
  12   2  -4   -0.04    0.22
 -12  -2   5   -0.17    0.14
  12   2  -5    0.09    0.27
 -12   2   5   -0.32    0.12
 -12   2   5   -0.01    0.16
 -12  -2   6    0.31    0.24
 -12   2   6    0.21    0.22
  12   2  -6    0.51    0.33
 -12   2   6    0.08    0.19
 -12  -2   7    9.84    0.74
 -12   2   7    9.35    0.74
 -12   2   7    8.23    0.60
 -12  -2   8    1.07    0.34
 -12   2   8    2.44    0.41
 -12   2   8    2.07    0.45
 -12  -2   9   10.89    0.84
 -12   2   9   11.11    0.79
 -12   2   9    9.28    0.92
 -12  -2  10    0.30    0.29
 -12   2  10   -0.13    0.20
 -12   2  10    0.14    0.25
 -12  -2  11    9.65    0.96
 -12   2  11    8.25    0.88
 -12  -2  12    0.01    0.26
 -12   2  12    0.10    0.28
 -12   2  12    0.27    0.28
 -12  -2  13    1.35    0.44
 -12   2  13    0.72    0.34
 -12   2  13    2.06    0.50
 -12  -2  14   -0.11    0.26
 -12   2  14    0.80    0.40
 -12   2  14   -0.13    0.24
 -12  -2  15    2.33    0.52
 -12   2  15    2.52    0.58
 -12   2  16    0.00    0.37
  12  -4  10   -0.34    0.22
  12   4  10   -0.20    0.34
  12  -4   9    0.75    0.41
  12   4   9   -0.01    0.29
  12  -4   8    0.49    0.35
  12   4   8    0.19    0.31
  12  -4   7    0.45    0.32
  12   4   7    0.67    0.35
  12  -4   6    0.89    0.37
  12   4   6    0.76    0.36
  12   4   6    0.93    0.48
  12  -4   5    0.51    0.30
  12   4   5    0.30    0.35
  12   4   5   -0.03    0.23
  12  -4   4    2.13    0.49
  12  -4   4    2.59    0.50
  12   4   4    2.14    0.51
  12   4   4    1.98    0.44
  12  -4   3    4.44    0.62
  12  -4   3    5.82    0.71
  12   4   3    3.97    0.64
  12  -4   2    0.41    0.32
 -12   4  -2    0.87    0.36
  12   4   2    0.63    0.31
 -12  -4  -1    7.77    0.61
 -12   4  -1    8.54    0.85
  12   4   1    7.71    0.80
 -12  -4   0   -0.01    0.17
  12   4   0   -0.10    0.20
 -12   4   0    0.58    0.32
  12  -4  -1    0.55    0.22
 -12  -4   1    0.46    0.23
  12   4  -1    0.89    0.31
 -12   4   1    0.19    0.26
 -12  -4   2   13.54    0.84
  12  -4  -2   13.62    0.69
  12   4  -2   12.94    0.85
 -12   4   2   13.76    0.90
 -12  -4   3    1.99    0.40
  12   4  -3    2.26    0.42
 -12   4   3    1.98    0.43
 -12  -4   4    0.04    0.17
  12   4  -4    0.09    0.27
 -12   4   4   -0.31    0.19
 -12  -4   5    0.22    0.21
 -12   4   5    0.21    0.14
 -12   4   5    0.05    0.25
  12   4  -5    0.76    0.33
 -12  -4   6    6.07    0.71
  12   4  -6    7.20    0.75
 -12   4   6    7.55    0.82
 -12  -4   7    1.54    0.40
  12   4  -7    1.36    0.46
 -12   4   7    1.28    0.37
 -12  -4   8    1.36    0.39
 -12   4   8    0.90    0.33
 -12  -4   9    6.59    0.79
 -12   4   9    7.19    0.75
 -12   4   9    7.15    0.81
 -12  -4  10    3.08    0.58
 -12   4  10    4.24    0.62
 -12   4  10    2.73    0.50
 -12  -4  11    7.42    0.86
 -12   4  11    7.51    0.84
 -12   4  11    7.75    0.82
 -12  -4  12    0.64    0.31
 -12   4  12    0.50    0.31
 -12   4  12    0.19    0.33
 -12  -4  13    0.07    0.27
 -12   4  13    0.04    0.25
 -12   4  13    0.28    0.31
 -12  -4  14    0.19    0.28
 -12   4  14    0.32    0.34
 -12  -4  15    0.20    0.29
 -12   4  15    0.09    0.35
 -12   4  16    0.15    0.40
 -12   4  17    0.19    0.42
  12  -6  10    0.48    0.38
  12   6  10    0.78    0.45
  12  -6   9    0.32    0.33
  12   6   9    0.23    0.33
  12  -6   8    0.49    0.37
  12   6   8   -0.10    0.33
  12  -6   7    0.15    0.29
  12   6   7    0.39    0.34
  12  -6   6   -0.06    0.23
  12   6   6    0.28    0.35
  12  -6   5    1.36    0.39
  12   6   5    0.20    0.28
  12  -6   4    0.06    0.30
  12  -6   4    0.31    0.27
  12   6   4   -0.11    0.24
  12  -6   3    1.31    0.42
  12   6   3    0.40    0.33
  12  -6   2    3.85    0.62
  12   6   2    3.01    0.57
 -12  -6  -1    1.11    0.30
  12  -6   1    0.39    0.35
  12   6   1    1.02    0.39
 -12  -6   0    7.29    0.70
  12   6   0    8.54    0.86
 -12   6   0    8.09    0.86
 -12  -6   1    0.02    0.10
  12   6  -1    0.06    0.27
 -12   6   1    0.10    0.28
 -12  -6   2    0.42    0.23
 -12   6   2    1.06    0.38
  12   6  -2    0.88    0.32
 -12  -6   3    0.80    0.28
  12   6  -3    0.34    0.30
 -12   6   3    0.38    0.31
 -12  -6   4    2.61    0.48
  12   6  -4    3.61    0.54
 -12   6   4    4.49    0.63
 -12  -6   5    0.15    0.23
 -12   6   5   -0.18    0.19
 -12   6   5    0.23    0.26
  12   6  -5   -0.21    0.29
 -12  -6   6    0.22    0.24
 -12   6   6    0.36    0.27
  12   6  -6   -0.03    0.35
 -12   6   6    0.77    0.31
 -12  -6   7    0.18    0.23
  12   6  -7    0.39    0.44
 -12   6   7    0.27    0.30
 -12   6   7    0.30    0.25
 -12  -6   8    5.37    0.71
 -12   6   8    5.03    0.71
 -12   6   8    4.00    0.58
 -12  -6   9    4.65    0.69
 -12   6   9    4.91    0.67
 -12   6   9    5.44    0.73
 -12  -6  10    8.80    0.96
 -12   6  10    6.76    0.83
 -12   6  10    7.95    0.86
 -12  -6  11    0.91    0.37
 -12   6  11    0.46    0.32
 -12   6  11    0.16    0.31
 -12  -6  12    0.26    0.28
 -12   6  12   -0.20    0.30
 -12   6  12    0.36    0.32
 -12  -6  13    2.08    0.49
 -12   6  13    3.49    0.65
 -12  -6  14    0.37    0.30
 -12   6  14   -0.34    0.29
 -12  -6  15    0.29    0.32
 -12   6  15    0.41    0.41
 -12  -6  16    0.13    0.30
 -12   6  16    0.32    0.40
 -12   6  17    0.21    0.43
  12  -8   9   -0.03    0.30
  12   8   9    0.38    0.38
  12  -8   8    0.79    0.44
  12   8   8    0.41    0.35
  12  -8   7    0.05    0.25
  12   8   7    0.03    0.29
  12  -8   6    0.19    0.31
  12   8   6    0.79    0.39
  12  -8   5    0.00    0.35
  12  -8   5   -0.08    0.24
  12   8   5    0.20    0.30
  12  -8   4    2.73    0.60
  12   8   4    2.17    0.53
  12  -8   3    0.23    0.32
  12   8   3   -0.04    0.27
  12  -8   2    0.94    0.43
  12   8   2    0.73    0.36
  12  -8   1    8.13    0.91
  12   8   1    8.65    0.92
  12  -8   0    0.47    0.37
 -12  -8   0    0.21    0.20
  12   8   0    0.35    0.34
 -12  -8   1    0.61    0.25
 -12   8   1    0.20    0.31
  12   8  -1    0.90    0.38
 -12  -8   2    6.14    0.70
 -12   8   2    7.27    0.86
  12   8  -2    6.19    0.73
 -12  -8   3    0.01    0.18
 -12   8   3    0.06    0.28
  12   8  -3   -0.31    0.28
 -12  -8   4    4.73    0.63
 -12   8   4    5.09    0.74
  12   8  -4    5.20    0.68
 -12  -8   5    8.46    0.86
  12   8  -5    8.17    0.88
 -12   8   5    8.96    0.92
 -12   8   5    8.61    0.85
 -12  -8   6   -0.11    0.19
 -12   8   6   -0.21    0.21
 -12   8   6    0.07    0.26
  12   8  -6    0.14    0.38
 -12  -8   7    1.55    0.43
 -12   8   7    1.18    0.41
  12   8  -7    1.61    0.58
 -12   8   7    1.40    0.42
 -12  -8   8   -0.18    0.22
 -12   8   8    0.12    0.27
 -12   8   8    0.38    0.30
 -12  -8   9    8.84    0.97
 -12   8   9    9.59    0.99
 -12   8   9    9.40    0.96
 -12  -8  10    0.56    0.31
 -12   8  10   -0.07    0.28
 -12   8  10   -0.04    0.26
 -12  -8  11    3.82    0.67
 -12   8  11    3.13    0.59
 -12   8  11    3.03    0.62
 -12  -8  12    0.77    0.39
 -12   8  12    0.80    0.37
 -12   8  12    1.16    0.45
 -12  -8  13    0.72    0.35
 -12   8  13    0.76    0.42
 -12  -8  14    0.26    0.27
 -12   8  14    0.17    0.40
 -12  -8  15    0.27    0.34
 -12   8  15    0.02    0.39
 -12  -8  16    0.87    0.43
 -12   8  16   -0.22    0.39
  12 -10   9   -0.17    0.30
  12  10   9    0.88    0.47
  12 -10   8    0.38    0.34
  12  10   8    0.53    0.44
  12 -10   7    0.04    0.33
  12  10   7    0.17    0.36
  12 -10   6    0.05    0.31
  12 -10   6    0.01    0.37
  12  10   6    0.23    0.31
  12 -10   5    2.80    0.65
  12  10   5    2.83    0.64
  12 -10   4    0.34    0.41
  12  10   4    0.45    0.39
  12 -10   3    0.17    0.40
  12  10   3    0.51    0.36
  12 -10   2    1.21    0.45
  12  10   2    1.62    0.49
  12 -10   1    8.78    0.99
  12  10   1    7.46    0.90
  12 -10   0    4.80    0.78
  12  10   0    3.25    0.61
  12 -10  -1   -0.03    0.33
 -12 -10   1    0.28    0.24
  12  10  -1    0.22    0.32
 -12 -10   2   -0.19    0.19
  12 -10  -2    0.28    0.39
  12  10  -2    0.26    0.33
 -12 -10   3   13.75    0.93
  12  10  -3   13.94    1.06
 -12  10   3   14.49    1.06
 -12 -10   4    0.43    0.30
 -12  10   4    0.17    0.32
  12  10  -4    0.29    0.42
 -12 -10   5    0.13    0.23
 -12  10   5    0.10    0.31
 -12  10   5    0.18    0.28
  12  10  -5    0.22    0.43
 -12 -10   6    0.57    0.33
 -12  10   6    0.46    0.34
 -12  10   6    0.80    0.35
  12  10  -6    0.45    0.46
 -12 -10   7    4.46    0.69
  12  10  -7    4.69    0.83
 -12  10   7    4.17    0.70
 -12  10   7    4.29    0.67
 -12 -10   8    0.22    0.28
 -12  10   8   -0.09    0.30
 -12  10   8   -0.18    0.22
 -12 -10   9    0.32    0.28
 -12  10   9    0.12    0.29
 -12  10   9    0.11    0.29
 -12 -10  10    2.66    0.55
 -12  10  10    0.98    0.44
 -12  10  10    1.68    0.47
 -12 -10  11    0.03    0.27
 -12  10  11    0.91    0.41
 -12  10  11    0.91    0.42
 -12 -10  12    0.15    0.27
 -12  10  12    0.13    0.30
 -12 -10  13    0.21    0.27
 -12  10  13    0.45    0.41
 -12 -10  14    0.36    0.31
 -12  10  14    0.25    0.40
 -12 -10  15    0.93    0.39
 -12  10  15    0.22    0.42
 -12  10  16    0.54    0.50
  12 -12   8    1.82    0.60
  12  12   8    1.53    0.61
  12 -12   7    0.25    0.37
  12  12   7    0.48    0.39
  12 -12   6    1.23    0.46
  12 -12   6    1.05    0.50
  12  12   6    1.48    0.54
  12 -12   5    0.14    0.41
  12  12   5   -0.04    0.35
  12 -12   4    0.55    0.44
  12  12   4    0.29    0.37
  12 -12   3    0.00    0.41
  12  12   3    0.36    0.36
  12 -12   2   -0.51    0.29
  12  12   2    0.67    0.38
  12 -12   1    2.22    0.61
  12  12   1    4.33    0.74
  12 -12   0    1.56    0.51
  12  12   0    1.72    0.51
 -12 -12   1    1.91    0.45
  12 -12  -1    2.72    0.60
  12  12  -1    2.03    0.53
 -12 -12   2    2.73    0.51
  12 -12  -2    3.35    0.67
  12  12  -2    3.09    0.62
  12 -12  -3   15.59    1.14
 -12 -12   3   14.96    1.01
  12  12  -3   12.42    1.17
  12 -12  -4    1.60    0.50
 -12 -12   4    1.28    0.41
  12  12  -4    1.48    0.54
 -12 -12   5    1.04    0.36
  12  12  -5    0.49    0.51
 -12  12   5    1.62    0.52
 -12  12   5    1.44    0.44
 -12 -12   6    8.12    0.93
  12  12  -6    6.79    0.98
 -12  12   6    9.81    1.02
 -12  12   6    9.74    1.04
 -12 -12   7   12.37    0.97
 -12  12   7   12.62    1.19
  12  12  -7    8.79    1.13
 -12  12   7   13.76    1.02
 -12 -12   8    5.22    0.78
 -12  12   8    3.63    0.67
 -12  12   8    4.69    0.75
 -12 -12   9    0.11    0.24
 -12  12   9    0.31    0.34
 -12  12   9   -0.07    0.33
 -12 -12  10    0.39    0.28
 -12  12  10    0.11    0.31
 -12  12  10    0.15    0.35
 -12 -12  11    0.61    0.34
 -12  12  11    0.23    0.37
 -12 -12  12    0.06    0.24
 -12  12  12   -0.04    0.31
 -12 -12  13    0.40    0.29
 -12  12  13   -0.27    0.35
 -12 -12  14    0.00    0.26
 -12  12  14    0.41    0.42
 -12  12  15    0.18    0.42
  12 -14   7    1.08    0.51
  12 -14   7    1.15    0.56
  12  14   7    0.99    0.58
  12 -14   6    0.77    0.56
  12  14   6    1.77    0.63
  12 -14   5    4.24    0.84
  12  14   5    4.69    0.88
  12 -14   4    0.90    0.53
  12  14   4    0.72    0.45
  12 -14   3    2.71    0.72
  12  14   3    1.55    0.55
  12 -14   2    0.28    0.45
  12  14   2    0.39    0.42
  12 -14   1    0.07    0.46
  12  14   1   -0.10    0.35
  12 -14   0    0.29    0.45
  12  14   0    0.64    0.42
  12 -14  -1    0.01    0.40
  12  14  -1   -0.05    0.34
 -12 -14   2    0.22    0.21
  12 -14  -2    0.30    0.41
  12  14  -2    0.21    0.42
 -12 -14   3   10.32    1.01
  12 -14  -3    8.29    1.01
  12  14  -3    7.13    0.96
  12 -14  -4    0.71    0.45
 -12 -14   4   -0.10    0.21
  12  14  -4    0.61    0.46
 -12 -14   5   -0.16    0.23
  12 -14  -5    0.07    0.35
 -12  14   5   -0.14    0.24
  12  14  -5    0.32    0.51
 -12 -14   6   -0.04    0.22
  12 -14  -6    0.01    0.33
  12  14  -6   -0.77    0.42
 -12  14   6   -0.11    0.32
 -12 -14   7    2.24    0.55
  12 -14  -7    2.54    0.61
 -12  14   7    2.15    0.58
 -12 -14   8    1.27    0.43
  12 -14  -8    1.60    0.56
 -12  14   8    1.46    0.50
  12 -14  -9    0.36    0.38
 -12 -14   9    0.30    0.30
 -12  14   9    0.24    0.36
 -12 -14  10    0.84    0.40
 -12  14  10    0.45    0.41
 -12  14  10    0.62    0.46
 -12 -14  11    1.04    0.38
 -12  14  11    1.19    0.51
 -12 -14  12    0.29    0.31
 -12  14  12    0.16    0.35
 -12  14  13    1.15    0.54
 -12  14  14    0.29    0.45
  12  16   6   -0.57    0.40
  12 -16   5   -0.75    0.39
  12  16   5   -0.06    0.40
  12 -16   4    0.46    0.50
  12  16   4   -0.08    0.40
  12 -16   3    0.45    0.48
  12  16   3    0.07    0.43
  12 -16   2    0.34    0.52
  12  16   2   -0.01    0.40
  12 -16   1    0.85    0.56
  12  16   1    0.60    0.49
  12 -16   0    0.92    0.55
  12  16   0    0.65    0.46
  12 -16  -1    0.52    0.47
  12  16  -1    0.57    0.46
  12 -16  -2   -0.01    0.41
  12  16  -2    0.39    0.41
  12 -16  -3    0.94    0.51
 -12 -16   3    0.78    0.35
  12  16  -3    0.89    0.54
  12 -16  -4   -0.35    0.38
 -12 -16   4   -0.11    0.24
  12  16  -4   -0.33    0.45
  12 -16  -5    0.33    0.42
 -12 -16   5    0.49    0.33
  12  16  -5    0.57    0.58
  12 -16  -6    0.19    0.42
 -12 -16   6    0.25    0.28
 -12  16   6    0.62    0.42
  12  16  -6    0.18    0.64
 -12 -16   7    2.69    0.60
  12 -16  -7    2.06    0.59
 -12  16   7    3.29    0.72
 -12 -16   8    0.57    0.36
  12 -16  -8    0.24    0.39
 -12  16   8    0.88    0.46
  12 -16  -9    0.40    0.44
 -12 -16   9   -0.07    0.23
 -12  16   9   -0.04    0.36
 -12 -16  10    0.57    0.38
 -12  16  10    0.50    0.43
 -12 -16  11    0.35    0.36
 -12  16  11   -0.18    0.35
 -12  16  12   -0.52    0.35
 -12  16  13   -0.03    0.42
  12  18   5    0.23    0.45
  12  18   4    0.51    0.50
  12  18   3    0.61    0.52
  12 -18   2    0.05    0.41
  12  18   2    0.15    0.46
  12 -18   1   -0.14    0.40
  12  18   1   -0.02    0.46
  12 -18   0    0.38    0.51
  12  18   0    0.51    0.53
  12 -18  -1    0.33    0.45
  12  18  -1    1.52    0.59
  12 -18  -2    0.43    0.50
  12  18  -2   -0.53    0.38
  12 -18  -3   -0.07    0.39
 -12 -18   3    0.24    0.29
  12  18  -3   -0.41    0.49
  12 -18  -4    1.25    0.60
 -12 -18   4    1.43    0.45
  12  18  -4    0.19    0.57
 -12 -18   5    0.64    0.38
  12 -18  -5    0.35    0.51
  12  18  -5    0.78    0.62
  12 -18  -6    0.96    0.51
 -12 -18   6    0.53    0.35
  12  18  -6    0.23    0.62
 -12  18   6    1.33    0.54
  12 -18  -7   -0.09    0.42
 -12 -18   7    0.45    0.35
 -12  18   7    0.41    0.42
  12 -18  -8    0.55    0.49
 -12 -18   8    0.76    0.40
 -12  18   8    0.43    0.46
 -12 -18   9    0.39    0.34
 -12  18   9    0.03    0.41
 -12  18  10    0.11    0.39
 -12  18  11    0.82    0.56
 -12  18  12    0.25    0.51
  12  20   3    0.39    0.57
  12  20   2   -0.65    0.44
  12  20   1    0.14    0.48
  12  20   0    0.38    0.55
  12  20  -1    0.55    0.58
  12 -20  -2    2.28    0.73
  12  20  -2    0.75    0.65
  12 -20  -3    0.78    0.59
  12  20  -3    0.53    0.66
 -12 -20   4    0.10    0.32
  12  20  -4    0.57    0.69
 -12 -20   5    0.64    0.37
  12 -20  -5   -0.94    0.43
  12  20  -5   -0.73    0.63
  12 -20  -6   -0.75    0.43
 -12 -20   6    0.40    0.40
  12 -20  -7    1.01    0.60
 -12 -20   7    0.45    0.38
 -12  20   7    0.35    0.45
 -12  20   8    0.45    0.50
 -12  20   9   -0.16    0.37
  12  22  -1    1.06    0.75
  12  22  -2    0.44    0.66
  12  22  -3   -0.88    0.59
  12  22  -4    0.34    0.73
 -12 -22   5    0.13    0.33
  12  22  -5    0.38    0.81
  13  -1  10    0.19    0.38
  13   1  10    0.32    0.43
  13  -1   9    1.16    0.45
  13   1   9    0.38    0.38
  13  -1   8    0.11    0.29
  13   1   8    0.58    0.36
  13  -1   7    0.47    0.34
  13   1   7    0.39    0.35
  13  -1   6    1.58    0.46
  13   1   6    0.43    0.30
  13  -1   5    0.07    0.26
  13   1   5   -0.47    0.18
  13  -1   4    1.73    0.43
  13   1   4    0.93    0.37
  13  -1   3    1.41    0.37
  13   1   3    1.62    0.40
  13   1   3    1.96    0.51
  13  -1   2   38.14    1.66
 -13  -1  -2   38.61    1.63
  13   1   2   39.54    1.80
  13   1   2   38.75    1.63
 -13   1  -2   38.34    1.67
 -13  -1  -1    1.15    0.37
  13  -1   1    1.04    0.35
  13  -1   1    1.48    0.37
  13   1   1    0.96    0.35
  13   1   1    1.26    0.32
 -13   1  -1    0.41    0.26
  13  -1   0    0.06    0.22
 -13  -1   0   -0.02    0.22
  13   1   0    0.03    0.20
 -13   1   0   -0.08    0.23
  13   1   0   -0.09    0.21
 -13  -1   1    2.10    0.44
  13  -1  -1    2.12    0.39
 -13   1   1    1.86    0.42
  13   1  -1    2.32    0.42
 -13  -1   2    0.88    0.30
  13  -1  -2    0.63    0.26
  13   1  -2    1.23    0.33
 -13   1   2    1.13    0.35
 -13  -1   3    0.22    0.23
  13  -1  -3    0.50    0.23
 -13   1   3    0.15    0.24
  13   1  -3    0.37    0.25
 -13  -1   4    0.22    0.22
  13  -1  -4    0.23    0.22
 -13   1   4    0.41    0.25
  13   1  -4    0.12    0.23
 -13  -1   5    2.42    0.47
 -13   1   5    1.34    0.38
  13   1  -5    2.14    0.39
 -13  -1   6    0.76    0.31
 -13   1   6    2.22    0.34
  13   1  -6    2.37    0.44
 -13   1   6    1.18    0.36
 -13  -1   7    0.77    0.31
 -13   1   7    0.89    0.33
  13   1  -7    1.03    0.42
 -13   1   7    0.77    0.26
 -13  -1   8    0.13    0.23
 -13   1   8   -0.19    0.18
 -13   1   8   -0.30    0.19
 -13  -1   9    4.06    0.64
 -13   1   9    4.39    0.64
 -13   1   9    3.81    0.51
 -13  -1  10   13.35    0.97
 -13   1  10   14.30    1.01
 -13  -1  11    0.10    0.27
 -13   1  11    0.42    0.30
 -13  -1  12    0.80    0.35
 -13   1  12   -0.13    0.19
 -13  -1  13    2.47    0.54
 -13   1  13    1.41    0.44
 -13  -1  14    1.01    0.38
 -13   1  14    0.85    0.37
 -13  -1  15    0.80    0.38
  13  -3  10    2.34    0.63
  13   3  10    1.83    0.58
  13  -3   9    0.23    0.36
  13   3   9    1.33    0.48
  13  -3   8    0.59    0.33
  13   3   8    0.05    0.32
  13  -3   7    0.11    0.28
  13   3   7    0.58    0.37
  13  -3   6    0.48    0.33
  13   3   6    0.61    0.41
  13   3   6    0.95    0.37
  13  -3   5    0.27    0.28
  13   3   5    0.61    0.32
  13   3   5   -0.05    0.30
  13  -3   4    0.36    0.28
  13   3   4    0.06    0.29
  13  -3   3    3.36    0.58
  13  -3   3    2.79    0.51
  13   3   3    2.48    0.53
  13  -3   2    1.13    0.36
  13   3   2    1.04    0.38
 -13   3  -2    0.46    0.35
 -13  -3  -1    0.56    0.29
 -13   3  -1    0.16    0.30
  13   3   1    0.28    0.30
 -13  -3   0    0.02    0.18
  13  -3   0   -0.13    0.21
  13   3   0   -0.09    0.19
 -13   3   0    0.24    0.27
  13  -3  -1    0.41    0.23
 -13  -3   1    0.45    0.26
 -13   3   1    0.42    0.29
  13   3  -1    0.04    0.26
 -13  -3   2    9.46    0.74
  13  -3  -2   11.60    0.68
 -13   3   2   10.86    0.83
  13   3  -2   11.06    0.78
 -13  -3   3    0.56    0.26
 -13   3   3    0.52    0.30
  13   3  -3    0.57    0.29
 -13  -3   4    0.16    0.21
  13   3  -4    0.43    0.29
 -13   3   4    0.10    0.23
 -13  -3   5    0.34    0.25
  13   3  -5    0.14    0.29
 -13   3   5    0.69    0.32
 -13  -3   6   10.00    0.93
  13   3  -6   10.38    0.88
 -13   3   6   10.12    0.79
 -13   3   6    8.81    0.63
 -13  -3   7    2.34    0.46
 -13   3   7    1.97    0.38
  13   3  -7    1.84    0.52
 -13   3   7    3.12    0.53
 -13  -3   8   -0.19    0.14
 -13   3   8   -0.16    0.17
 -13   3   8    0.01    0.20
 -13  -3   9    1.93    0.49
 -13   3   9    1.50    0.40
 -13   3   9    1.82    0.45
 -13  -3  10    2.80    0.56
 -13   3  10    4.27    0.58
 -13   3  10    3.76    0.63
 -13  -3  11    1.29    0.42
 -13   3  11    1.66    0.44
 -13  -3  12    0.00    0.21
 -13   3  12    0.17    0.24
 -13   3  12   -0.04    0.24
 -13  -3  13    0.28    0.30
 -13   3  13   -0.04    0.30
 -13   3  13    0.16    0.28
 -13  -3  14    2.01    0.50
 -13   3  14    2.67    0.57
 -13   3  14    1.54    0.45
 -13  -3  15   -0.07    0.24
 -13   3  15   -0.13    0.29
  13  -5   9    0.85    0.46
  13   5   9    0.99    0.53
  13  -5   8   -0.05    0.27
  13   5   8   -0.25    0.32
  13  -5   7    0.24    0.31
  13   5   7   -0.20    0.29
  13  -5   6    0.49    0.30
  13   5   6    0.10    0.34
  13  -5   5    0.18    0.27
  13   5   5    0.01    0.30
  13  -5   4    0.06    0.25
  13  -5   4    0.31    0.34
  13   5   4    0.70    0.35
  13  -5   3    1.23    0.37
  13  -5   3    0.54    0.37
  13   5   3    0.93    0.38
  13  -5   2    0.05    0.29
  13   5   2    0.04    0.28
  13   5   1    7.91    0.86
 -13   5  -1    7.45    0.86
 -13  -5   0    3.14    0.48
  13   5   0    2.61    0.52
 -13   5   0    2.16    0.51
  13   5  -1    3.44    0.55
 -13   5   1    3.00    0.58
 -13  -5   2    0.13    0.20
 -13   5   2    0.24    0.32
  13   5  -2    0.05    0.24
 -13  -5   3    1.33    0.36
 -13   5   3    0.63    0.33
  13   5  -3    0.32    0.27
 -13  -5   4    1.07    0.35
  13   5  -4    1.25    0.40
 -13   5   4    2.05    0.49
 -13  -5   5    0.09    0.20
 -13   5   5    0.26    0.27
  13   5  -5    0.34    0.34
 -13  -5   6    5.39    0.70
  13   5  -6    4.07    0.64
 -13   5   6    4.09    0.64
 -13  -5   7    0.95    0.34
  13   5  -7    0.72    0.45
 -13   5   7    0.43    0.32
 -13   5   7    0.37    0.24
 -13  -5   8    0.05    0.22
 -13   5   8    0.10    0.27
 -13   5   8   -0.03    0.22
 -13  -5   9   -0.10    0.22
 -13   5   9   -0.11    0.26
 -13   5   9   -0.13    0.24
 -13  -5  10    1.25    0.39
 -13   5  10    1.44    0.45
 -13   5  10    1.12    0.39
 -13  -5  11    0.45    0.33
 -13   5  11    0.06    0.25
 -13   5  11    0.15    0.32
 -13  -5  12   -0.16    0.22
 -13   5  12    0.19    0.32
 -13   5  12    0.21    0.26
 -13  -5  13    0.73    0.35
 -13   5  13   -0.07    0.29
 -13   5  13    0.04    0.26
 -13  -5  14    1.20    0.45
 -13   5  14    0.42    0.37
 -13  -5  15    0.43    0.32
 -13   5  15   -0.42    0.32
 -13  -5  16    0.02    0.28
 -13   5  16   -0.10    0.35
 -13   5  17    0.69    0.47
  13  -7   9    0.16    0.28
  13   7   9    0.08    0.39
  13  -7   8    0.97    0.48
  13   7   8    0.59    0.44
  13  -7   7    0.04    0.26
  13   7   7   -0.05    0.35
  13  -7   6    0.03    0.26
  13   7   6   -0.30    0.23
  13  -7   5    0.30    0.30
  13   7   5    0.65    0.38
  13  -7   4    0.61    0.35
  13  -7   4    0.03    0.37
  13   7   4   -0.05    0.30
  13  -7   3    0.53    0.36
  13   7   3    0.56    0.36
  13  -7   2    1.97    0.50
  13   7   2    1.40    0.45
  13  -7   1    1.29    0.46
  13   7   1    1.02    0.42
 -13  -7   0    0.53    0.26
  13   7   0    0.02    0.30
 -13   7   0    1.09    0.43
 -13  -7   1    0.52    0.24
 -13   7   1    0.13    0.32
  13   7  -1    0.18    0.31
 -13  -7   2    0.01    0.22
  13   7  -2   -0.16    0.28
 -13   7   2    0.11    0.31
 -13  -7   3    1.09    0.35
  13   7  -3    1.57    0.43
 -13   7   3    1.69    0.47
 -13  -7   4    0.73    0.32
 -13   7   4    0.64    0.36
  13   7  -4    0.08    0.27
 -13  -7   5    0.80    0.33
 -13   7   5    0.75    0.30
 -13   7   5    1.02    0.37
  13   7  -5    1.38    0.48
 -13  -7   6    1.78    0.45
  13   7  -6    1.73    0.52
 -13   7   6    1.66    0.41
 -13   7   6    1.49    0.44
 -13  -7   7    1.80    0.44
  13   7  -7    2.38    0.62
 -13   7   7    1.85    0.44
 -13   7   7    1.64    0.46
 -13  -7   8    0.15    0.24
 -13   7   8    0.12    0.28
 -13   7   8    0.03    0.25
 -13  -7   9    1.69    0.44
 -13   7   9    1.81    0.44
 -13   7   9    1.78    0.48
 -13  -7  10    6.56    0.86
 -13   7  10    5.38    0.75
 -13   7  10    6.89    0.86
 -13  -7  11   -0.17    0.23
 -13   7  11    0.33    0.32
 -13   7  11    0.04    0.29
 -13  -7  12    0.03    0.24
 -13   7  12    0.03    0.28
 -13   7  12    0.08    0.28
 -13  -7  13    0.33    0.30
 -13   7  13   -0.32    0.28
 -13  -7  14    0.53    0.34
 -13   7  14   -0.22    0.31
 -13  -7  15    0.07    0.28
 -13   7  15    0.80    0.45
 -13  -7  16   -0.20    0.28
 -13   7  16   -0.26    0.41
 -13   7  17    0.61    0.49
  13  -9   8    0.51    0.40
  13   9   8    0.38    0.38
  13  -9   7    0.69    0.41
  13   9   7    0.01    0.32
  13  -9   6    0.32    0.36
  13   9   6    0.12    0.37
  13  -9   5    1.63    0.55
  13  -9   5    1.74    0.52
  13   9   5    1.37    0.49
  13  -9   4   -0.08    0.38
  13   9   4    0.23    0.33
  13  -9   3    0.76    0.44
  13   9   3    2.04    0.58
  13  -9   2    0.05    0.32
  13   9   2    0.34    0.38
  13  -9   1    4.27    0.71
  13   9   1    3.09    0.61
  13  -9   0    4.35    0.72
  13   9   0    3.05    0.61
  13  -9  -1    2.22    0.57
 -13  -9   1    1.82    0.40
  13   9  -1    0.89    0.42
 -13  -9   2    3.90    0.59
  13   9  -2    3.44    0.63
 -13   9   2    3.62    0.67
 -13  -9   3    2.30    0.47
  13   9  -3    2.19    0.53
 -13   9   3    2.50    0.58
 -13  -9   4    2.72    0.52
  13   9  -4    2.83    0.59
 -13   9   4    3.46    0.62
 -13  -9   5    0.17    0.25
 -13   9   5   -0.27    0.27
 -13   9   5   -0.26    0.21
  13   9  -5    0.58    0.41
 -13  -9   6    4.23    0.67
 -13   9   6    4.94    0.68
  13   9  -6    5.70    0.82
 -13   9   6    3.75    0.67
 -13  -9   7    1.91    0.47
 -13   9   7    1.48    0.45
 -13   9   7    1.52    0.44
  13   9  -7    1.62    0.62
 -13  -9   8    0.46    0.30
 -13   9   8    0.54    0.33
 -13   9   8    0.20    0.31
 -13  -9   9    1.95    0.50
 -13   9   9    1.55    0.49
 -13   9   9    2.00    0.50
 -13  -9  10    0.26    0.25
 -13   9  10    0.29    0.30
 -13   9  10   -0.11    0.27
 -13  -9  11    0.29    0.27
 -13   9  11    0.01    0.30
 -13   9  11   -0.18    0.30
 -13  -9  12    0.77    0.35
 -13   9  12    0.25    0.32
 -13   9  12    0.15    0.35
 -13  -9  13    1.47    0.47
 -13   9  13    1.20    0.48
 -13  -9  14    0.10    0.24
 -13   9  14   -0.40    0.29
 -13  -9  15    0.08    0.30
 -13   9  15    0.21    0.43
 -13   9  16   -0.04    0.39
  13 -11   8   -0.06    0.34
  13  11   8   -0.22    0.40
  13 -11   7    0.23    0.34
  13  11   7    0.14    0.40
  13 -11   6    1.27    0.52
  13  11   6    0.74    0.42
  13 -11   5    1.01    0.54
  13  11   5    1.20    0.50
  13 -11   4    0.48    0.46
  13  11   4    0.46    0.42
  13 -11   3    0.19    0.38
  13  11   3    1.57    0.53
  13 -11   2    4.56    0.80
  13  11   2    3.72    0.71
  13 -11   1    0.44    0.40
  13  11   1    0.25    0.36
  13 -11   0    0.39    0.39
  13  11   0    0.12    0.38
  13 -11  -1    0.01    0.31
  13  11  -1    0.08    0.34
 -13 -11   2    5.82    0.71
  13 -11  -2   10.91    1.13
  13  11  -2    8.77    0.96
 -13 -11   3    0.06    0.22
  13 -11  -3    0.17    0.36
  13  11  -3    0.00    0.37
 -13 -11   4    4.13    0.65
  13  11  -4    3.57    0.69
 -13  11   4    3.13    0.66
 -13 -11   5    3.14    0.59
  13  11  -5    3.27    0.71
 -13  11   5    3.30    0.65
 -13 -11   6    6.12    0.79
  13  11  -6    5.81    0.86
 -13  11   6    6.08    0.79
 -13  11   6    4.60    0.76
 -13 -11   7    7.67    0.92
 -13  11   7    7.28    0.93
 -13  11   7    8.21    0.93
  13  11  -7    6.43    0.98
 -13 -11   8    1.28    0.42
 -13  11   8    0.38    0.38
 -13  11   8    0.19    0.30
 -13 -11   9    1.51    0.47
 -13  11   9    0.17    0.37
 -13  11   9    0.83    0.40
 -13 -11  10    1.86    0.50
 -13  11  10    1.48    0.49
 -13  11  10    1.68    0.51
 -13 -11  11    0.03    0.21
 -13  11  11    0.09    0.32
 -13  11  11   -0.44    0.28
 -13 -11  12    0.00    0.22
 -13  11  12   -0.21    0.34
 -13 -11  13   -0.07    0.21
 -13  11  13    0.14    0.36
 -13 -11  14    0.40    0.32
 -13  11  14    1.81    0.57
 -13  11  15    0.03    0.38
  13 -13   7    1.06    0.50
  13  13   7    1.34    0.57
  13 -13   6    0.12    0.34
  13 -13   6   -0.46    0.39
  13  13   6    0.45    0.47
  13 -13   5    0.24    0.46
  13  13   5    0.27    0.39
  13 -13   4    1.34    0.57
  13  13   4    1.02    0.47
  13 -13   3    1.89    0.60
  13  13   3    2.17    0.60
  13 -13   2    1.37    0.60
  13  13   2    1.09    0.51
  13 -13   1    0.98    0.53
  13  13   1   -0.04    0.35
  13 -13   0   -0.35    0.37
  13  13   0    0.24    0.39
  13 -13  -1    3.78    0.74
  13  13  -1    4.87    0.82
  13 -13  -2    3.51    0.69
  13  13  -2    3.03    0.67
  13 -13  -3    1.95    0.57
 -13 -13   3    1.48    0.44
  13  13  -3    1.22    0.52
  13 -13  -4    0.21    0.40
 -13 -13   4    0.90    0.35
  13  13  -4    0.56    0.48
 -13 -13   5    3.75    0.66
  13 -13  -5    3.63    0.72
  13  13  -5    3.55    0.76
  13 -13  -6    1.74    0.50
 -13 -13   6    0.94    0.39
 -13  13   6    1.45    0.50
 -13  13   6    0.72    0.43
  13  13  -6    1.33    0.63
 -13 -13   7    0.15    0.28
  13  13  -7   -0.06    0.54
 -13  13   7    0.11    0.39
 -13  13   7    0.38    0.34
 -13 -13   8    0.25    0.29
 -13  13   8    0.19    0.33
 -13  13   8    0.04    0.33
 -13 -13   9    0.01    0.24
 -13  13   9   -0.18    0.32
 -13  13   9    0.66    0.39
 -13 -13  10    0.32    0.30
 -13  13  10    0.23    0.37
 -13  13  10    0.10    0.34
 -13 -13  11    0.45    0.34
 -13  13  11    0.62    0.39
 -13 -13  12    0.03    0.23
 -13  13  12    0.87    0.47
 -13 -13  13    0.45    0.37
 -13  13  13    0.91    0.46
 -13  13  14   -0.39    0.38
  13 -15   6   -0.01    0.31
  13  15   6   -0.13    0.42
  13 -15   5    0.09    0.48
  13  15   5    0.48    0.49
  13 -15   4    0.73    0.51
  13  15   4    0.43    0.44
  13 -15   3   -0.12    0.39
  13  15   3   -0.05    0.41
  13 -15   2    0.41    0.48
  13  15   2   -0.66    0.31
  13 -15   1    0.33    0.48
  13  15   1    0.38    0.45
  13 -15   0    0.03    0.43
  13  15   0   -0.30    0.37
  13 -15  -1    0.76    0.51
  13  15  -1    0.22    0.46
  13 -15  -2    0.91    0.51
  13  15  -2    0.84    0.49
 -13 -15   3    0.87    0.36
  13 -15  -3    0.80    0.46
  13  15  -3    0.02    0.42
 -13 -15   4    0.19    0.30
  13 -15  -4    0.15    0.41
  13  15  -4    0.61    0.54
 -13 -15   5    1.52    0.46
  13 -15  -5    2.42    0.65
  13  15  -5    1.06    0.59
 -13 -15   6    1.00    0.39
  13 -15  -6    0.24    0.43
  13  15  -6    1.82    0.70
 -13  15   6    0.74    0.43
 -13 -15   7    0.19    0.29
  13 -15  -7    0.22    0.40
 -13  15   7    0.28    0.35
  13  15  -7   -0.29    0.59
  13 -15  -8   -0.14    0.36
 -13 -15   8    0.17    0.26
 -13  15   8    0.58    0.39
  13 -15  -9    0.98    0.54
 -13 -15   9    0.54    0.35
 -13  15   9    1.52    0.54
 -13 -15  10    0.52    0.32
  13 -15 -10    0.29    0.44
 -13  15  10   -0.08    0.37
 -13 -15  11    0.58    0.35
 -13  15  11    0.37    0.39
 -13  15  12   -0.03    0.36
 -13  15  13   -0.25    0.33
  13  17   5    2.74    0.78
  13  17   4    0.15    0.45
  13  17   3    0.34    0.52
  13 -17   2   -0.18    0.39
  13  17   2    0.28    0.47
  13 -17   1    1.11    0.56
  13  17   1    0.49    0.46
  13 -17   0    1.72    0.60
  13  17   0    1.39    0.60
  13 -17  -1   -0.20    0.43
  13  17  -1   -0.13    0.45
  13 -17  -2    0.59    0.53
  13  17  -2   -0.08    0.49
  13 -17  -3   -0.50    0.39
  13  17  -3    0.05    0.44
  13 -17  -4   -0.17    0.40
 -13 -17   4    0.23    0.26
  13  17  -4    0.37    0.56
  13 -17  -5   -0.63    0.31
 -13 -17   5    0.79    0.37
  13  17  -5   -0.73    0.49
 -13 -17   6    0.70    0.38
  13 -17  -6   -0.01    0.40
  13  17  -6    0.76    0.70
 -13 -17   7    0.47    0.33
  13 -17  -7    0.27    0.45
 -13  17   7   -0.23    0.29
 -13 -17   8    0.04    0.27
  13 -17  -8    0.15    0.40
 -13  17   8    0.59    0.44
 -13 -17   9    0.47    0.35
  13 -17  -9   -0.11    0.46
 -13  17   9   -0.21    0.37
 -13  17  10   -0.60    0.34
 -13  17  11   -0.34    0.34
 -13  17  12   -0.50    0.33
  13  19   3    0.27    0.57
  13  19   2   -0.93    0.41
  13  19   1    0.10    0.52
  13  19   0    0.29    0.49
  13 -19  -1   -0.05    0.41
  13  19  -1   -0.35    0.44
  13 -19  -2    0.01    0.44
  13  19  -2   -0.46    0.48
  13 -19  -3    0.68    0.53
  13  19  -3   -0.13    0.55
  13 -19  -4   -0.34    0.44
 -13 -19   4    0.20    0.31
  13  19  -4    0.12    0.59
 -13 -19   5    0.27    0.33
  13 -19  -5    0.11    0.52
  13  19  -5    0.07    0.59
  13 -19  -6    0.21    0.54
 -13 -19   6    0.44    0.33
  13  19  -6   -0.87    0.59
 -13 -19   7    0.32    0.34
  13 -19  -7   -0.42    0.43
 -13  19   7    0.73    0.47
  13 -19  -8    0.05    0.47
 -13 -19   8    0.01    0.31
 -13  19   8    0.05    0.42
 -13  19   9   -0.10    0.38
 -13  19  10    0.03    0.43
  13  21   0   -0.64    0.54
  13  21  -1   -0.25    0.51
  13  21  -2   -0.10    0.60
  13  21  -3    0.31    0.68
  13  21  -4    0.23    0.63
 -13 -21   5    2.35    0.59
  13  21  -5    1.06    0.82
  14   0   9   -0.02    0.34
  14   0   8    0.65    0.41
  14   0   7    0.17    0.30
  14   0   6    0.15    0.31
  14   0   5   -0.08    0.26
  14   0   4    0.99    0.33
  14   0   3   -0.11    0.19
  14   0   3    0.20    0.29
 -14   0  -2   11.39    0.83
  14   0   2   10.52    0.78
  14   0   2   10.62    0.99
  14   0   1   -0.15    0.21
  14   0   1    0.22    0.25
 -14   0  -1   -0.12    0.13
  14   0   0   38.99    1.68
 -14   0   0   35.76    1.66
  14   0  -1    0.39    0.26
 -14   0   1   -0.26    0.23
 -14   0   2    8.92    0.89
  14   0  -2    7.34    0.71
  14   0  -3   -0.24    0.17
 -14   0   3   -0.24    0.18
  14   0  -4   16.75    0.92
 -14   0   4   17.20    1.05
 -14   0   5   -0.07    0.20
 -14   0   6    0.13    0.24
 -14   0   7   -0.13    0.17
 -14   0   8   10.93    0.86
 -14   0   9   -0.12    0.19
 -14   0  10    3.87    0.65
 -14   0  11   -0.01    0.23
 -14   0  12    2.23    0.52
 -14   0  13   -0.02    0.25
 -14   0  14   -0.06    0.25
 -14   0  15    0.12    0.27
  14  -2   9    1.49    0.53
  14   2   9    0.88    0.45
  14  -2   8    0.05    0.30
  14   2   8   -0.28    0.29
  14  -2   7    0.49    0.35
  14  -2   6    1.43    0.44
  14   2   6    0.88    0.49
  14  -2   5    0.16    0.26
  14   2   5    0.64    0.42
  14  -2   4    0.62    0.32
  14   2   4    0.08    0.31
  14  -2   3    2.61    0.49
  14   2   3    2.96    0.60
  14  -2   2    9.64    0.76
  14   2   2   10.58    1.00
 -14  -2  -1    0.03    0.25
  14  -2   1    0.13    0.27
 -14   2  -1    0.34    0.33
  14   2   1   -0.08    0.24
  14  -2   0    1.67    0.40
  14   2   0    2.37    0.49
 -14   2   0    2.30    0.51
  14  -2  -1   19.80    1.05
 -14  -2   1   20.64    1.14
  14   2  -1   20.44    1.15
 -14   2   1   19.62    1.16
 -14  -2   2    0.44    0.25
  14  -2  -2    0.20    0.23
  14   2  -2    0.61    0.30
 -14   2   2    0.64    0.30
 -14  -2   3    1.40    0.38
  14   2  -3    1.69    0.40
 -14   2   3    1.93    0.46
 -14  -2   4    1.30    0.39
 -14   2   4    0.83    0.35
  14   2  -4    1.36    0.37
 -14  -2   5    5.35    0.69
  14   2  -5    6.36    0.65
 -14   2   5    6.02    0.76
 -14  -2   6    1.98    0.45
  14   2  -6    1.32    0.43
 -14   2   6    1.31    0.40
 -14  -2   7    4.16    0.64
  14   2  -7    4.22    0.61
 -14   2   7    3.29    0.58
 -14  -2   8    1.40    0.42
 -14   2   8    1.22    0.38
 -14  -2   9    6.38    0.81
 -14   2   9    7.30    0.86
 -14  -2  10    1.28    0.42
 -14   2  10    1.50    0.44
 -14  -2  11    1.12    0.39
 -14   2  11    1.41    0.43
 -14  -2  12   -0.16    0.24
 -14   2  12   -0.60    0.17
 -14  -2  13    0.02    0.24
 -14   2  13   -0.05    0.26
 -14  -2  14   -0.02    0.25
 -14   2  14   -0.08    0.27
 -14  -2  15    0.26    0.33
 -14  -2  16    0.30    0.36
  14  -4   9    0.54    0.41
  14   4   9    0.29    0.43
  14  -4   8    0.20    0.33
  14   4   8    0.07    0.33
  14  -4   7    0.40    0.35
  14   4   7    0.16    0.38
  14  -4   6    1.48    0.47
  14   4   6    1.61    0.58
  14  -4   5   -0.08    0.25
  14   4   5    0.15    0.36
  14  -4   4    2.37    0.51
  14   4   4    2.56    0.59
  14  -4   3    0.04    0.25
  14  -4   3    0.16    0.31
  14   4   3    0.22    0.30
  14  -4   2    6.64    0.80
  14   4   2    6.13    0.82
  14   4   1    3.05    0.58
 -14   4  -1    4.46    0.68
 -14  -4   0    5.38    0.64
  14  -4   0    4.94    0.58
 -14   4   0    3.96    0.63
  14   4   0    3.54    0.59
 -14  -4   1    4.92    0.65
 -14   4   1    6.09    0.76
  14   4  -1    4.28    0.63
 -14  -4   2   16.82    1.04
  14   4  -2   19.04    1.09
 -14   4   2   18.97    1.13
 -14  -4   3    0.07    0.18
  14   4  -3    0.08    0.27
 -14   4   3    0.02    0.25
 -14  -4   4    0.34    0.26
 -14   4   4    0.06    0.26
  14   4  -4   -0.21    0.25
 -14  -4   5    2.06    0.48
  14   4  -5    2.04    0.46
 -14   4   5    2.00    0.48
 -14  -4   6    1.65    0.43
 -14   4   6    1.16    0.32
 -14   4   6    1.44    0.42
  14   4  -6    1.41    0.46
 -14  -4   7    1.48    0.42
 -14   4   7    2.04    0.49
  14   4  -7    0.77    0.44
 -14   4   7    1.09    0.32
 -14  -4   8    2.16    0.50
 -14   4   8    1.87    0.42
 -14   4   8    2.54    0.55
 -14  -4   9    3.07    0.56
 -14   4   9    2.16    0.44
 -14   4   9    3.57    0.62
 -14  -4  10    0.24    0.27
 -14   4  10    0.24    0.18
 -14   4  10    0.25    0.31
 -14  -4  11    0.97    0.38
 -14   4  11    0.91    0.38
 -14   4  11    0.00    0.18
 -14  -4  12    0.46    0.34
 -14   4  12   -0.18    0.23
 -14   4  12   -0.10    0.28
 -14  -4  13    0.57    0.34
 -14   4  13   -0.11    0.27
 -14   4  13    0.00    0.30
 -14  -4  14    0.35    0.29
 -14   4  14   -0.18    0.28
 -14   4  14   -0.11    0.26
 -14  -4  15    0.13    0.29
 -14  -4  16    0.15    0.28
  14  -6   8    0.08    0.34
  14   6   8    0.40    0.44
  14  -6   7    0.20    0.32
  14   6   7    0.47    0.42
  14  -6   6    0.64    0.40
  14   6   6    0.05    0.36
  14  -6   5    0.27    0.31
  14   6   5    0.31    0.35
  14  -6   4    0.11    0.26
  14   6   4   -0.18    0.24
  14  -6   3    0.84    0.40
  14   6   3    1.86    0.49
  14  -6   2    0.32    0.34
  14   6   2   -0.16    0.24
  14  -6   1    0.43    0.35
  14   6   1    0.24    0.32
 -14  -6   0    8.14    0.79
  14   6   0    7.86    0.88
 -14   6   0    7.71    0.89
  14   6  -1    3.30    0.58
 -14   6   1    5.12    0.73
 -14  -6   2    3.34    0.55
 -14   6   2    3.61    0.64
  14   6  -2    3.12    0.56
 -14  -6   3    0.78    0.33
 -14   6   3    0.81    0.40
  14   6  -3    0.41    0.32
 -14  -6   4    0.03    0.20
 -14   6   4    0.42    0.30
  14   6  -4   -0.47    0.26
 -14  -6   5    1.07    0.36
 -14   6   5    0.73    0.39
  14   6  -5    1.34    0.45
 -14  -6   6    0.48    0.30
  14   6  -6    0.34    0.40
 -14   6   6    0.55    0.29
 -14   6   6    0.80    0.35
 -14  -6   7    0.35    0.28
 -14   6   7    0.00    0.25
  14   6  -7    0.01    0.44
 -14   6   7   -0.23    0.20
 -14  -6   8    1.50    0.43
 -14   6   8    1.43    0.39
 -14   6   8    2.46    0.55
 -14  -6   9    1.72    0.45
 -14   6   9    2.17    0.47
 -14   6   9    1.20    0.43
 -14  -6  10    1.08    0.39
 -14   6  10    1.75    0.45
 -14   6  10    1.92    0.52
 -14  -6  11    1.10    0.39
 -14   6  11    1.01    0.40
 -14   6  11    0.45    0.34
 -14  -6  12   -0.11    0.22
 -14   6  12    0.45    0.35
 -14   6  12    0.14    0.29
 -14  -6  13    0.61    0.36
 -14   6  13   -0.29    0.27
 -14   6  13    0.53    0.38
 -14  -6  14    0.01    0.23
 -14   6  14   -0.07    0.34
 -14  -6  15    0.46    0.33
 -14   6  15    0.43    0.40
 -14  -6  16    0.08    0.30
 -14   6  16    0.27    0.41
 -14   6  17    0.35    0.44
  14  -8   8    0.34    0.40
  14   8   8    0.52    0.42
  14  -8   7    0.68    0.40
  14   8   7    0.56    0.45
  14  -8   6    0.52    0.38
  14   8   6    0.31    0.40
  14  -8   5    0.39    0.31
  14   8   5    0.25    0.35
  14  -8   4   -0.12    0.40
  14  -8   4    0.77    0.35
  14   8   4   -0.01    0.33
  14  -8   3    3.27    0.67
  14   8   3    2.88    0.64
  14  -8   2    2.26    0.57
  14   8   2    2.79    0.64
  14  -8   1   -0.01    0.34
  14   8   1    0.20    0.33
  14  -8   0    0.17    0.35
  14   8   0    0.38    0.34
 -14  -8   1   14.86    0.98
  14   8  -1   17.49    1.18
 -14   8   1   16.18    1.15
 -14  -8   2    0.84    0.32
 -14   8   2    0.57    0.38
  14   8  -2    0.47    0.38
 -14  -8   3    0.39    0.28
  14   8  -3    0.60    0.40
 -14   8   3    0.88    0.44
 -14  -8   4    0.31    0.26
  14   8  -4   -0.38    0.32
 -14   8   4   -0.02    0.31
 -14  -8   5    0.32    0.27
 -14   8   5    0.20    0.31
  14   8  -5   -0.04    0.37
 -14  -8   6   -0.13    0.19
 -14   8   6    0.18    0.26
 -14   8   6   -0.16    0.23
  14   8  -6    0.22    0.44
 -14  -8   7    3.09    0.58
 -14   8   7    4.86    0.73
 -14   8   7    5.08    0.69
  14   8  -7    3.19    0.73
 -14  -8   8    1.29    0.41
 -14   8   8    1.12    0.41
 -14   8   8    1.92    0.49
 -14  -8   9    0.31    0.28
 -14   8   9    0.18    0.28
 -14   8   9    0.51    0.35
 -14  -8  10    1.55    0.43
 -14   8  10    1.03    0.40
 -14   8  10    1.22    0.42
 -14  -8  11    0.27    0.27
 -14   8  11    0.18    0.31
 -14   8  11    0.10    0.29
 -14  -8  12    1.01    0.39
 -14   8  12   -0.09    0.30
 -14   8  12   -0.25    0.23
 -14  -8  13    0.97    0.40
 -14   8  13    0.75    0.39
 -14   8  13    1.04    0.44
 -14  -8  14    0.78    0.43
 -14   8  14    0.38    0.39
 -14  -8  15    0.12    0.30
 -14   8  15    0.25    0.38
 -14   8  16    0.27    0.43
  14 -10   7   -0.04    0.32
  14  10   7    0.11    0.40
  14 -10   6    0.68    0.42
  14  10   6   -0.03    0.37
  14 -10   5    0.20    0.34
  14  10   5    0.22    0.35
  14 -10   4   -0.27    0.37
  14  10   4   -0.10    0.32
  14 -10   3    1.07    0.49
  14  10   3    2.69    0.66
  14 -10   2    0.57    0.47
  14  10   2    0.10    0.30
  14 -10   1    0.49    0.39
  14  10   1    0.49    0.39
  14 -10   0    5.45    0.83
  14  10   0    3.39    0.65
  14 -10  -1    0.17    0.35
  14  10  -1   -0.57    0.25
 -14 -10   2    0.22    0.22
  14 -10  -2    0.08    0.37
  14  10  -2    0.29    0.36
 -14 -10   3    0.02    0.23
  14  10  -3    0.12    0.37
 -14  10   3    0.09    0.34
 -14 -10   4    4.24    0.65
 -14  10   4    5.54    0.82
  14  10  -4    5.44    0.78
 -14 -10   5    1.26    0.40
 -14  10   5    0.76    0.45
  14  10  -5    0.34    0.44
 -14 -10   6    0.67    0.34
 -14  10   6    0.38    0.40
 -14  10   6    0.73    0.38
  14  10  -6    1.28    0.53
 -14 -10   7    1.03    0.39
 -14  10   7    0.88    0.39
 -14  10   7    0.69    0.42
  14  10  -7    0.45    0.56
 -14 -10   8    2.25    0.55
 -14  10   8    3.01    0.62
 -14  10   8    2.98    0.61
 -14 -10   9    1.46    0.49
 -14  10   9    1.71    0.50
 -14  10   9    2.19    0.57
 -14 -10  10    0.47    0.32
 -14  10  10   -0.31    0.27
 -14  10  10    0.11    0.28
 -14 -10  11    0.52    0.30
 -14  10  11    0.35    0.38
 -14  10  11    0.30    0.35
 -14 -10  12    0.58    0.34
 -14  10  12   -0.23    0.32
 -14  10  12   -0.52    0.25
 -14 -10  13    0.25    0.30
 -14  10  13    0.73    0.45
 -14 -10  14    0.48    0.34
 -14  10  14    0.09    0.40
 -14  10  15    0.19    0.42
  14 -12   7    2.66    0.69
  14  12   7    2.25    0.74
  14 -12   6    0.54    0.41
  14  12   6    0.29    0.39
  14 -12   5    0.15    0.47
  14  12   5    0.57    0.46
  14 -12   4    0.19    0.42
  14  12   4    0.22    0.39
  14 -12   3    0.97    0.47
  14  12   3    0.73    0.49
  14 -12   2    3.92    0.78
  14  12   2    2.43    0.61
  14 -12   1    0.76    0.50
  14  12   1    0.76    0.44
  14 -12   0    1.79    0.57
  14  12   0    1.08    0.50
  14 -12  -1    3.00    0.70
  14  12  -1    2.50    0.64
  14 -12  -2   -0.18    0.28
 -14 -12   2    0.01    0.18
  14  12  -2    0.80    0.47
 -14 -12   3    1.04    0.38
  14 -12  -3    0.78    0.42
  14  12  -3    0.14    0.40
 -14 -12   4    0.10    0.27
  14 -12  -4    0.27    0.37
  14  12  -4   -0.16    0.36
 -14 -12   5    5.41    0.77
 -14  12   5    6.32    0.92
  14  12  -5    6.58    0.95
 -14 -12   6    2.17    0.52
 -14  12   6    1.76    0.51
  14  12  -6    0.67    0.54
 -14  12   6    0.61    0.44
 -14 -12   7    0.10    0.26
  14  12  -7    0.21    0.51
 -14  12   7   -0.05    0.29
 -14  12   7    0.71    0.45
 -14 -12   8    2.20    0.55
 -14  12   8    1.36    0.53
 -14  12   8    2.27    0.56
 -14 -12   9    0.66    0.36
 -14  12   9    0.30    0.34
 -14  12   9   -0.02    0.36
 -14 -12  10    0.17    0.28
 -14  12  10    0.07    0.32
 -14  12  10    0.64    0.39
 -14 -12  11    0.73    0.35
 -14  12  11    0.34    0.40
 -14  12  11    0.50    0.39
 -14 -12  12    0.02    0.26
 -14  12  12    0.09    0.34
 -14 -12  13    0.37    0.34
 -14  12  13    0.72    0.42
 -14  12  14    0.27    0.46
 -14  12  15    0.38    0.46
  14 -14   6    2.40    0.70
  14  14   6    0.69    0.55
  14 -14   5    0.46    0.49
  14  14   5   -0.32    0.39
  14 -14   4    0.53    0.50
  14  14   4    0.14    0.43
  14 -14   3    0.23    0.51
  14  14   3   -0.36    0.30
  14 -14   2    0.69    0.54
  14  14   2    0.22    0.40
  14 -14   1    0.54    0.51
  14  14   1    0.52    0.50
  14 -14   0    1.91    0.60
  14  14   0    1.58    0.60
  14 -14  -1    0.51    0.48
  14  14  -1    0.34    0.41
  14 -14  -2   -0.05    0.39
  14  14  -2    0.03    0.38
 -14 -14   3    0.20    0.29
  14 -14  -3    0.25    0.42
  14  14  -3    0.09    0.47
 -14 -14   4    0.81    0.38
  14 -14  -4    0.51    0.43
  14  14  -4    0.48    0.51
 -14 -14   5    4.80    0.74
  14 -14  -5    4.66    0.82
  14  14  -5    6.64    0.98
  14 -14  -6    0.21    0.42
 -14 -14   6    0.29    0.30
  14  14  -6   -0.86    0.48
  14 -14  -7    0.40    0.42
 -14 -14   7    0.02    0.28
  14  14  -7   -0.39    0.55
 -14  14   7   -0.33    0.27
 -14 -14   8    0.14    0.31
  14 -14  -8    0.75    0.45
 -14  14   8   -0.05    0.34
 -14  14   8   -0.29    0.30
 -14 -14   9    1.58    0.50
 -14  14   9    0.68    0.46
 -14  14   9    0.56    0.43
 -14 -14  10   -0.11    0.22
 -14  14  10    0.00    0.35
 -14  14  10   -0.36    0.40
 -14 -14  11    0.26    0.34
 -14  14  11    0.47    0.44
 -14  14  11    0.09    0.41
 -14  14  12    0.26    0.40
 -14  14  13    0.14    0.40
 -14  14  14    0.21    0.44
  14  16   4   -0.06    0.43
  14  16   3    0.87    0.56
  14 -16   2    0.93    0.57
  14  16   2    0.24    0.47
  14 -16   1    1.47    0.61
  14  16   1    0.28    0.43
  14 -16   0    0.64    0.51
  14  16   0    0.36    0.45
  14 -16  -1    0.24    0.44
  14  16  -1    0.59    0.50
  14 -16  -2    0.21    0.40
  14  16  -2    0.09    0.44
  14 -16  -3    0.69    0.51
  14  16  -3   -0.09    0.48
  14 -16  -4   -0.06    0.38
 -14 -16   4    0.45    0.30
  14  16  -4   -0.48    0.40
 -14 -16   5   -0.01    0.29
  14 -16  -5   -0.16    0.36
  14  16  -5   -0.49    0.47
  14 -16  -6    0.01    0.39
 -14 -16   6    0.15    0.31
  14  16  -6   -0.19    0.55
  14 -16  -7    0.54    0.44
 -14 -16   7    0.79    0.39
 -14  16   7    0.20    0.39
  14  16  -7    0.30    0.65
 -14 -16   8    0.14    0.32
  14 -16  -8   -0.24    0.37
 -14  16   8    0.20    0.37
 -14 -16   9    0.05    0.27
  14 -16  -9    0.95    0.51
 -14  16   9    0.80    0.47
 -14 -16  10    0.25    0.35
  14 -16 -10    0.10    0.42
 -14  16  10    0.10    0.41
 -14  16  11    0.32    0.43
 -14  16  12   -0.66    0.30
  14  18   2    0.88    0.61
  14  18   1    0.89    0.60
  14  18   0    0.28    0.52
  14 -18  -1   -0.43    0.41
  14  18  -1   -0.11    0.42
  14 -18  -2    0.04    0.46
  14  18  -2   -0.66    0.45
  14 -18  -3   -0.11    0.44
  14  18  -3   -0.36    0.42
  14 -18  -4    1.34    0.65
  14  18  -4    0.63    0.64
  14 -18  -5   -0.52    0.42
 -14 -18   5    0.48    0.36
  14  18  -5    0.76    0.68
 -14 -18   6    0.03    0.30
  14 -18  -6   -0.34    0.45
  14  18  -6   -0.20    0.63
 -14 -18   7    0.01    0.31
  14 -18  -7   -0.17    0.47
  14 -18  -8    0.66    0.52
 -14 -18   8    0.15    0.33
 -14  18   8    0.06    0.41
  14 -18  -9    0.35    0.51
 -14  18   9    0.56    0.47
 -14  18  10    0.08    0.39
 -14  18  11    1.10    0.58
  14  20   0   -0.26    0.50
  14  20  -1   -0.57    0.53
  14  20  -2   -0.23    0.56
  14  20  -3   -0.90    0.48
  14  20  -4   -0.62    0.54
  14  20  -5    0.12    0.69
 -14 -20   6    0.54    0.41
  14  20  -6   -1.17    0.61
 -14  20   8    0.64    0.53
  15  -1   8    0.63    0.43
  15  -1   7    0.45    0.39
  15  -1   6    0.27    0.33
  15   1   6    0.10    0.33
  15  -1   5    0.95    0.37
  15   1   5    0.48    0.41
  15  -1   4    0.20    0.25
  15   1   4    0.40    0.38
  15  -1   3   -0.01    0.28
  15  -1   3    0.12    0.25
  15   1   3    0.03    0.31
  15  -1   2    0.96    0.32
  15  -1   2    0.50    0.31
  15   1   2    0.14    0.31
 -15  -1  -1    1.79    0.44
  15  -1   1    1.51    0.42
  15   1   1    2.41    0.50
 -15   1  -1    0.45    0.30
  15  -1   0    9.63    0.88
 -15  -1   0    9.88    0.80
  15   1   0   10.39    0.95
 -15   1   0   12.00    0.86
  15  -1  -1   10.37    0.80
 -15  -1   1   11.13    0.84
 -15   1   1   10.58    0.99
  15   1  -1   10.51    0.83
 -15  -1   2    4.49    0.66
  15  -1  -2    5.42    0.60
 -15   1   2    4.11    0.64
  15   1  -2    4.40    0.60
 -15  -1   3    0.31    0.26
  15   1  -3    0.77    0.32
 -15   1   3    1.15    0.42
 -15  -1   4    0.28    0.28
 -15   1   4   -0.06    0.23
  15   1  -4   -0.05    0.24
 -15  -1   5    8.19    0.88
 -15   1   5    9.74    0.97
  15   1  -5    9.03    0.79
 -15  -1   6    5.07    0.70
 -15   1   6    4.82    0.71
 -15  -1   7   -0.03    0.22
 -15   1   7   -0.01    0.27
 -15  -1   8    0.50    0.31
 -15   1   8   -0.12    0.20
 -15  -1   9    1.13    0.42
 -15   1   9    0.20    0.28
 -15  -1  10    0.86    0.38
 -15   1  10    0.39    0.30
 -15  -1  11    1.41    0.45
 -15   1  11    1.43    0.45
 -15  -1  12    2.30    0.53
 -15   1  12    2.89    0.59
 -15  -1  13    0.52    0.33
 -15   1  13    0.12    0.25
 -15  -1  14   -0.35    0.22
 -15   1  14    0.01    0.26
 -15  -1  15    0.19    0.33
 -15   1  15    0.66    0.39
 -15  -1  16   -0.07    0.30
  15  -3   8    1.44    0.54
  15   3   8    1.15    0.58
  15  -3   7    2.18    0.58
  15   3   7    1.43    0.61
  15  -3   6    0.88    0.41
  15   3   6    1.54    0.57
  15  -3   5    1.22    0.42
  15   3   5    1.16    0.52
  15  -3   4    0.57    0.35
  15   3   4    0.36    0.34
  15  -3   3    0.19    0.26
  15   3   3    0.26    0.33
  15  -3   2    0.85    0.34
 -15   3  -2   -0.14    0.27
  15   3   2    0.72    0.39
  15  -3   1    0.26    0.28
 -15   3  -1   -0.19    0.29
  15   3   1    0.56    0.36
 -15  -3   0    4.83    0.66
  15  -3   0    3.93    0.57
  15   3   0    4.74    0.67
 -15   3   0    4.50    0.70
 -15  -3   1    1.57    0.40
 -15   3   1    3.09    0.60
  15   3  -1    2.25    0.49
 -15  -3   2    0.44    0.29
  15   3  -2    0.04    0.28
 -15   3   2    0.37    0.31
 -15  -3   3    0.18    0.23
 -15   3   3    0.11    0.26
  15   3  -3    0.15    0.30
 -15  -3   4    3.34    0.57
 -15   3   4    2.52    0.55
  15   3  -4    2.37    0.48
 -15  -3   5    0.00    0.21
 -15   3   5   -0.03    0.25
  15   3  -5    0.40    0.33
 -15  -3   6    2.66    0.55
 -15   3   6    2.40    0.54
  15   3  -6    2.96    0.54
 -15  -3   7    2.31    0.51
  15   3  -7    0.93    0.46
 -15   3   7    2.02    0.49
 -15  -3   8    0.42    0.33
 -15   3   8    0.12    0.27
 -15  -3   9   -0.32    0.19
 -15   3   9    0.19    0.26
 -15  -3  10    0.10    0.25
 -15   3  10    0.18    0.27
 -15  -3  11    1.17    0.40
 -15   3  11    1.17    0.43
 -15  -3  12    0.76    0.39
 -15   3  12    0.72    0.38
 -15  -3  13    0.51    0.34
 -15   3  13    0.75    0.38
 -15  -3  14   -0.20    0.25
 -15   3  14    1.04    0.45
 -15  -3  15    0.19    0.29
 -15   3  15    0.02    0.30
 -15  -3  16    0.09    0.34
  15  -5   8    0.94    0.48
  15   5   8    0.61    0.50
  15  -5   7    0.82    0.43
  15   5   7    1.05    0.53
  15  -5   6   -0.09    0.29
  15   5   6    0.40    0.39
  15  -5   5    0.12    0.27
  15   5   5    0.16    0.35
  15  -5   4    0.14    0.26
  15   5   4    0.33    0.35
  15  -5   3    2.20    0.50
  15  -5   3    1.27    0.45
  15   5   3    1.54    0.51
  15  -5   2   -0.08    0.30
  15   5   2   -0.08    0.31
 -15   5  -1    2.12    0.53
  15   5   1    0.47    0.36
  15   5   0    1.25    0.42
 -15   5   0    0.59    0.40
 -15   5   1    4.08    0.69
  15   5  -1    3.71    0.62
 -15  -5   2    0.48    0.31
  15   5  -2    1.23    0.42
 -15   5   2    0.67    0.39
 -15  -5   3    0.15    0.25
 -15   5   3   -0.08    0.28
  15   5  -3   -0.19    0.29
 -15  -5   4    1.43    0.41
  15   5  -4    1.80    0.46
 -15   5   4    2.27    0.52
 -15  -5   5    3.16    0.57
  15   5  -5    3.64    0.58
 -15   5   5    3.13    0.60
 -15  -5   6    1.87    0.48
  15   5  -6    0.65    0.42
 -15   5   6    0.91    0.40
 -15  -5   7    1.77    0.45
 -15   5   7    1.07    0.40
  15   5  -7    1.89    0.55
 -15   5   7    1.99    0.41
 -15  -5   8    0.69    0.34
  15   5  -8    1.22    0.53
 -15   5   8    1.60    0.48
 -15   5   8    0.59    0.27
 -15  -5   9    2.80    0.61
 -15   5   9    2.86    0.62
 -15  -5  10    0.65    0.33
 -15   5  10    0.53    0.39
 -15   5  10    0.03    0.15
 -15  -5  11    6.52    0.87
 -15   5  11    7.73    0.96
 -15  -5  12    0.47    0.33
 -15   5  12   -0.19    0.25
 -15   5  12    0.48    0.35
 -15  -5  13    0.74    0.40
 -15   5  13    1.11    0.46
 -15  -5  14    0.49    0.36
 -15   5  14   -0.13    0.30
 -15  -5  15    0.26    0.28
 -15  -5  16    0.00    0.31
  15  -7   7    0.18    0.37
  15   7   7    0.41    0.41
  15  -7   6    0.36    0.40
  15   7   6    0.67    0.49
  15  -7   5   -0.25    0.23
  15   7   5   -0.21    0.34
  15  -7   4    0.45    0.32
  15   7   4    1.27    0.50
  15  -7   3   -0.29    0.30
  15   7   3   -0.35    0.26
  15  -7   2    1.98    0.56
  15   7   2    1.47    0.51
  15  -7   1    0.22    0.37
  15   7   1   -0.05    0.29
  15  -7   0    7.19    0.95
  15   7   0    7.13    0.90
 -15   7   0    6.89    0.92
 -15  -7   1   -0.17    0.21
 -15   7   1    0.19    0.37
  15   7  -1    0.13    0.31
 -15  -7   2    1.69    0.43
 -15   7   2    1.79    0.52
  15   7  -2    1.18    0.43
 -15  -7   3    1.68    0.43
  15   7  -3    0.80    0.39
 -15   7   3    0.50    0.37
 -15  -7   4    1.76    0.46
 -15   7   4    2.07    0.51
  15   7  -4    1.90    0.50
 -15  -7   5    2.22    0.50
 -15   7   5    1.32    0.44
  15   7  -5    1.71    0.50
 -15  -7   6    0.58    0.31
 -15   7   6    0.24    0.34
  15   7  -6    0.53    0.44
 -15  -7   7    0.50    0.31
  15   7  -7   -0.39    0.35
 -15   7   7   -0.05    0.26
 -15   7   7    0.29    0.28
 -15  -7   8    1.92    0.49
 -15   7   8    1.46    0.42
  15   7  -8    1.32    0.59
 -15   7   8    1.82    0.51
 -15  -7   9    0.75    0.39
 -15   7   9    0.59    0.37
 -15   7   9    1.26    0.41
 -15  -7  10    0.27    0.29
 -15   7  10   -0.01    0.27
 -15   7  10    0.23    0.33
 -15  -7  11   -0.11    0.21
 -15   7  11    0.22    0.30
 -15   7  11    0.34    0.32
 -15  -7  12    1.18    0.43
 -15   7  12    0.70    0.40
 -15   7  12    2.06    0.54
 -15  -7  13    0.08    0.30
 -15   7  13    0.43    0.34
 -15   7  13    0.30    0.36
 -15  -7  14    0.14    0.31
 -15   7  14    0.16    0.35
 -15  -7  15    0.60    0.38
 -15   7  15    0.50    0.42
 -15   7  16    0.16    0.40
  15  -9   7    1.07    0.52
  15   9   7    1.25    0.54
  15  -9   6    0.15    0.32
  15   9   6    0.59    0.48
  15  -9   5   -0.09    0.29
  15   9   5   -0.58    0.31
  15  -9   4    0.77    0.51
  15  -9   4    0.32    0.30
  15   9   4    0.08    0.32
  15  -9   3    3.58    0.75
  15   9   3    5.31    0.84
  15  -9   2   -0.22    0.33
  15   9   2    0.05    0.31
  15  -9   1    1.12    0.46
  15   9   1    0.42    0.38
  15  -9   0    0.49    0.41
  15   9   0    0.30    0.37
  15  -9  -1    9.60    1.07
  15   9  -1    7.93    0.95
 -15  -9   2   -0.06    0.20
 -15   9   2   -0.17    0.33
  15   9  -2   -0.29    0.32
 -15  -9   3    6.19    0.74
 -15   9   3    4.65    0.76
  15   9  -3    4.78    0.76
 -15  -9   4    2.00    0.49
  15   9  -4    1.40    0.51
 -15   9   4    1.52    0.53
 -15  -9   5    7.33    0.87
  15   9  -5   10.08    1.05
 -15   9   5    7.96    0.98
 -15  -9   6    4.55    0.71
 -15   9   6    4.74    0.77
  15   9  -6    4.74    0.81
 -15  -9   7    2.38    0.54
 -15   9   7    3.53    0.67
 -15   9   7    2.79    0.56
  15   9  -7    3.18    0.71
 -15  -9   8   -0.26    0.17
  15   9  -8    0.31    0.53
 -15   9   8   -0.08    0.29
 -15   9   8   -0.11    0.24
 -15  -9   9    3.17    0.62
 -15   9   9    3.71    0.71
 -15   9   9    3.66    0.66
 -15  -9  10    0.01    0.25
 -15   9  10    0.06    0.33
 -15   9  10    0.32    0.30
 -15  -9  11    0.96    0.40
 -15   9  11    0.97    0.45
 -15   9  11    1.53    0.50
 -15  -9  12    0.25    0.28
 -15   9  12    0.47    0.38
 -15   9  12    0.31    0.32
 -15  -9  13    0.72    0.39
 -15   9  13    0.23    0.33
 -15   9  13    0.32    0.40
 -15  -9  14    0.36    0.35
 -15   9  14    0.06    0.37
 -15   9  15    0.28    0.39
  15 -11   6    0.70    0.41
  15  11   6    1.01    0.51
  15 -11   5    0.22    0.32
  15  11   5   -0.04    0.37
  15 -11   4    0.06    0.44
  15  11   4    0.34    0.44
  15 -11   3    0.55    0.48
  15  11   3    0.04    0.38
  15 -11   2    0.86    0.49
  15  11   2    0.84    0.46
  15 -11   1    1.54    0.53
  15  11   1    1.66    0.57
  15 -11   0    0.15    0.35
  15  11   0    0.18    0.38
  15 -11  -1    0.06    0.39
  15  11  -1    0.48    0.39
  15 -11  -2   -0.42    0.31
  15  11  -2    0.01    0.34
  15 -11  -3    1.42    0.52
 -15 -11   3    1.35    0.43
  15  11  -3    2.14    0.57
 -15 -11   4    1.08    0.40
  15  11  -4    0.76    0.47
 -15  11   4   -0.27    0.29
 -15 -11   5    4.11    0.68
  15  11  -5    4.48    0.81
 -15  11   5    4.23    0.77
 -15 -11   6    0.22    0.27
  15  11  -6    1.10    0.59
 -15  11   6    0.12    0.34
 -15 -11   7    1.75    0.50
 -15  11   7    2.53    0.61
  15  11  -7    2.80    0.74
 -15  11   7    1.73    0.47
 -15 -11   8    1.92    0.52
 -15  11   8    1.87    0.48
  15  11  -8    1.28    0.67
 -15  11   8    1.24    0.50
 -15 -11   9    0.15    0.30
 -15  11   9    0.14    0.33
 -15 -11  10    0.69    0.37
 -15  11  10    0.07    0.34
 -15  11  10    0.05    0.32
 -15 -11  11   -0.12    0.25
 -15  11  11    0.43    0.36
 -15  11  11   -0.37    0.31
 -15 -11  12    0.49    0.28
 -15  11  12    0.60    0.43
 -15  11  12    0.44    0.40
 -15 -11  13    0.41    0.32
 -15  11  13    0.03    0.34
 -15  11  14    0.10    0.37
 -15  11  15   -0.09    0.41
  15 -13   5   -0.01    0.43
  15 -13   5    0.47    0.38
  15  13   5    0.35    0.39
  15 -13   4    0.60    0.55
  15  13   4    0.99    0.54
  15 -13   3    2.37    0.69
  15  13   3    1.49    0.58
  15 -13   2    0.14    0.46
  15  13   2    0.02    0.40
  15 -13   1    0.10    0.40
  15  13   1   -0.10    0.36
  15 -13   0    0.04    0.41
  15  13   0   -0.32    0.35
  15 -13  -1    2.40    0.64
  15  13  -1    1.31    0.56
  15 -13  -2    0.58    0.47
  15  13  -2    1.03    0.50
  15 -13  -3    0.91    0.44
 -15 -13   3    1.46    0.47
  15  13  -3    0.61    0.51
  15 -13  -4    0.24    0.38
 -15 -13   4    0.28    0.30
  15  13  -4    0.79    0.50
 -15 -13   5    2.29    0.55
  15 -13  -5    1.39    0.53
  15  13  -5    1.47    0.66
 -15 -13   6   -0.01    0.24
  15  13  -6   -0.47    0.49
 -15  13   6   -0.18    0.35
 -15 -13   7    0.88    0.41
 -15  13   7   -0.10    0.36
  15  13  -7    1.24    0.67
 -15  13   7    1.30    0.48
 -15 -13   8    0.78    0.39
 -15  13   8    0.61    0.39
  15  13  -8   -0.14    0.54
 -15  13   8    0.65    0.45
 -15 -13   9    0.01    0.27
 -15  13   9   -0.04    0.38
 -15  13   9    0.26    0.36
 -15 -13  10    0.24    0.31
 -15  13  10    0.36    0.44
 -15  13  10    0.08    0.31
 -15 -13  11    0.26    0.36
 -15  13  11   -0.12    0.41
 -15  13  11    0.54    0.44
 -15 -13  12    0.07    0.23
 -15  13  12    0.29    0.40
 -15  13  13    0.64    0.45
 -15  13  14    0.00    0.40
  15  15   4   -0.18    0.46
  15  15   3   -0.57    0.36
  15 -15   2    0.58    0.55
  15  15   2    1.03    0.56
  15 -15   1    0.23    0.49
  15  15   1   -0.48    0.39
  15 -15   0   -0.16    0.43
  15  15   0   -0.17    0.38
  15 -15  -1    0.18    0.45
  15  15  -1   -0.74    0.33
  15 -15  -2   -0.23    0.37
  15  15  -2    0.15    0.45
  15 -15  -3    0.12    0.39
  15  15  -3    0.31    0.51
  15 -15  -4    0.29    0.44
 -15 -15   4    0.13    0.31
  15  15  -4   -0.22    0.41
 -15 -15   5    0.28    0.27
  15 -15  -5    0.12    0.44
  15  15  -5   -0.68    0.42
 -15 -15   6    0.41    0.33
  15 -15  -6    0.03    0.41
  15  15  -6    0.05    0.55
 -15 -15   7   -0.13    0.23
  15 -15  -7    0.20    0.42
  15  15  -7    0.17    0.59
 -15 -15   8    0.69    0.39
  15 -15  -8    0.65    0.47
 -15  15   8    0.68    0.42
  15 -15  -9    0.76    0.48
 -15 -15   9    0.37    0.34
 -15  15   9    0.45    0.38
  15 -15 -10    0.60    0.49
 -15 -15  10    0.68    0.42
 -15  15  10    0.38    0.38
  15 -15 -11    0.28    0.43
 -15  15  11   -0.26    0.37
 -15  15  12    0.03    0.40
 -15  15  13   -0.14    0.33
  15  17   2   -0.61    0.41
  15  17   1    0.29    0.53
  15  17   0    0.45    0.50
  15  17  -1    0.00    0.46
  15 -17  -2   -0.44    0.43
  15  17  -2    0.05    0.53
  15 -17  -3   -0.01    0.47
  15  17  -3    0.14    0.50
  15 -17  -4    0.09    0.44
  15  17  -4   -0.02    0.50
  15 -17  -5   -0.38    0.40
 -15 -17   5    0.55    0.35
  15  17  -5    0.27    0.64
  15 -17  -6    0.25    0.46
 -15 -17   6    0.28    0.35
  15  17  -6   -0.05    0.59
 -15 -17   7    0.20    0.33
  15 -17  -7   -0.31    0.38
  15  17  -7   -0.20    0.60
  15 -17  -8    0.83    0.54
 -15 -17   8    0.40    0.37
 -15  17   8    0.42    0.45
  15 -17  -9    0.70    0.55
 -15  17   9    0.13    0.42
  15 -17 -10    0.24    0.48
 -15  17  10    0.18    0.47
 -15  17  11   -0.26    0.37
  15  19   0   -0.43    0.45
  15  19  -1   -0.54    0.48
  15  19  -2    0.78    0.67
  15  19  -3    0.10    0.58
  15  19  -4    0.43    0.67
  15  19  -5    0.85    0.75
 -15 -19   6    0.42    0.41
  15  19  -6    0.90    0.78
  16   0   7    0.19    0.42
  16   0   6   -0.15    0.36
  16   0   5   -0.07    0.33
  16   0   4   22.70    1.51
  16   0   3   -0.17    0.28
  16   0   2    1.33    0.42
 -16   0  -1    0.02    0.24
  16   0   1   -0.12    0.25
 -16   0   0   11.02    0.87
  16   0   0   11.82    0.90
 -16   0   1   -0.36    0.24
  16   0  -1   -0.12    0.23
 -16   0   2   -0.01    0.28
  16   0  -2    0.53    0.33
 -16   0   3    0.06    0.27
 -16   0   4    3.59    0.62
 -16   0   5   -0.05    0.21
 -16   0   6    2.66    0.55
 -16   0   7    0.02    0.23
 -16   0   8    6.57    0.83
 -16   0   9    0.40    0.29
 -16   0  10    1.12    0.41
 -16   0  11    0.02    0.25
 -16   0  12    0.89    0.39
 -16   0  13    0.11    0.26
 -16   0  14    0.16    0.30
 -16   0  15    0.25    0.33
 -16   0  16   -0.03    0.30
  16  -2   7    0.42    0.39
  16   2   7    0.35    0.44
  16  -2   6    0.15    0.30
  16   2   6   -0.02    0.34
  16  -2   5    1.38    0.44
  16   2   5    1.30    0.52
  16  -2   4    0.28    0.31
  16   2   4    0.64    0.37
  16  -2   3    2.99    0.62
  16   2   3    4.12    0.72
  16  -2   2    0.44    0.34
  16   2   2    0.86    0.42
  16  -2   1    0.06    0.28
  16   2   1   -0.22    0.24
 -16   2  -1   -0.06    0.31
  16  -2   0    0.23    0.24
 -16  -2   0   -0.11    0.15
  16   2   0   -0.34    0.23
 -16   2   0   -0.07    0.26
 -16  -2   1   -0.11    0.25
 -16   2   1   -0.20    0.26
  16   2  -1   -0.22    0.24
 -16  -2   2    1.26    0.39
  16   2  -2    1.63    0.42
 -16   2   2    1.95    0.49
 -16  -2   3    1.53    0.43
 -16   2   3    1.43    0.44
  16   2  -3    1.24    0.40
 -16  -2   4    2.00    0.48
 -16   2   4    3.13    0.60
  16   2  -4    2.03    0.45
 -16  -2   5    0.89    0.36
  16   2  -5    0.57    0.36
 -16   2   5    0.59    0.34
 -16  -2   6    1.33    0.41
 -16   2   6    2.06    0.50
 -16  -2   7    0.58    0.33
 -16   2   7    0.31    0.30
 -16  -2   8    1.19    0.39
 -16   2   8    0.23    0.31
 -16  -2   9    1.29    0.42
 -16   2   9   -0.09    0.23
 -16  -2  10    0.14    0.28
 -16   2  10    0.24    0.32
 -16  -2  11    0.98    0.39
 -16   2  11    1.67    0.49
 -16  -2  12    0.80    0.40
 -16   2  12    0.57    0.36
 -16  -2  13    0.11    0.32
 -16   2  13   -0.15    0.24
 -16  -2  14    0.05    0.27
 -16   2  14    0.08    0.28
 -16  -2  15    1.14    0.48
 -16   2  15    0.85    0.44
 -16  -2  16   -0.05    0.31
  16  -4   7   -0.03    0.31
  16   4   7    0.74    0.54
  16  -4   6   -0.25    0.25
  16   4   6    0.41    0.43
  16  -4   5    0.81    0.39
  16   4   5    0.66    0.44
  16  -4   4    0.61    0.34
  16   4   4    0.61    0.41
  16  -4   3    2.69    0.57
  16   4   3    0.83    0.43
  16  -4   2    0.31    0.34
  16  -4   2    0.32    0.30
  16   4   2    0.36    0.35
  16   4   1    0.21    0.30
 -16   4  -1    0.22    0.37
  16   4   0    0.28    0.30
 -16   4   0    0.42    0.34
 -16  -4   1    0.16    0.25
  16   4  -1   -0.31    0.21
 -16   4   1    0.14    0.34
 -16  -4   2    2.86    0.51
 -16   4   2    3.44    0.63
  16   4  -2    3.36    0.59
 -16  -4   3   -0.03    0.23
 -16   4   3    0.01    0.30
  16   4  -3    0.38    0.34
 -16  -4   4   14.79    1.03
  16   4  -4   15.18    1.03
 -16   4   4   14.02    1.05
 -16  -4   5    0.15    0.27
  16   4  -5    0.21    0.34
 -16   4   5    0.44    0.35
 -16  -4   6    0.36    0.31
 -16   4   6    0.26    0.30
  16   4  -6    0.08    0.37
 -16  -4   7    0.70    0.37
 -16   4   7    0.46    0.33
  16   4  -7    0.22    0.41
 -16  -4   8    2.30    0.55
 -16   4   8    3.47    0.67
 -16  -4   9    0.17    0.28
 -16   4   9   -0.09    0.26
 -16  -4  10    0.27    0.26
 -16   4  10    0.69    0.38
 -16  -4  11   -0.28    0.21
 -16   4  11    0.06    0.28
 -16  -4  12    0.77    0.39
 -16   4  12    1.39    0.45
 -16  -4  13   -0.09    0.25
 -16   4  13   -0.21    0.28
 -16  -4  14    0.16    0.30
 -16   4  14    0.25    0.34
 -16  -4  15    0.07    0.35
 -16   4  15    0.27    0.32
  16  -6   7    0.16    0.36
  16   6   7    0.47    0.48
  16  -6   6   -0.26    0.27
  16   6   6    0.14    0.39
  16  -6   5    0.28    0.28
  16   6   5    0.25    0.45
  16  -6   4    0.52    0.34
  16   6   4    0.36    0.40
  16  -6   3    1.65    0.47
  16   6   3    0.71    0.45
  16  -6   2    0.05    0.33
  16   6   2    0.09    0.34
  16  -6   1    0.31    0.38
  16   6   1    0.61    0.40
  16   6   0   -0.17    0.27
 -16   6   0    0.01    0.30
 -16  -6   1   -0.06    0.21
 -16   6   1   -0.19    0.31
  16   6  -1   -0.02    0.32
 -16  -6   2   -0.27    0.21
  16   6  -2    0.13    0.33
 -16   6   2    0.09    0.34
 -16  -6   3    1.61    0.43
 -16   6   3    1.65    0.53
  16   6  -3    1.69    0.48
 -16  -6   4    0.33    0.26
 -16   6   4   -0.18    0.28
  16   6  -4    0.22    0.35
 -16  -6   5    0.03    0.25
 -16   6   5    0.45    0.32
  16   6  -5    0.11    0.36
 -16  -6   6   -0.09    0.23
 -16   6   6    0.20    0.32
  16   6  -6    0.05    0.39
 -16  -6   7    0.53    0.32
  16   6  -7    0.98    0.51
 -16   6   7    0.18    0.28
 -16  -6   8    3.88    0.67
 -16   6   8    3.21    0.64
  16   6  -8    4.85    0.82
 -16  -6   9    0.46    0.29
 -16   6   9    0.04    0.17
 -16   6   9    0.45    0.34
 -16  -6  10    0.04    0.21
 -16   6  10    0.02    0.31
 -16   6  10    0.12    0.21
 -16  -6  11    0.28    0.26
 -16   6  11   -0.24    0.21
 -16  -6  12    0.54    0.35
 -16   6  12   -0.24    0.30
 -16  -6  13    0.12    0.28
 -16   6  13   -0.33    0.28
 -16  -6  14   -0.17    0.26
 -16   6  14   -0.37    0.30
 -16  -6  15    0.02    0.32
  16  -8   6    0.02    0.32
  16   8   6    0.68    0.46
  16  -8   5    0.40    0.35
  16   8   5   -0.25    0.34
  16  -8   4    0.75    0.40
  16   8   4    0.46    0.43
  16  -8   3    0.62    0.43
  16   8   3   -0.15    0.36
  16  -8   2    0.19    0.36
  16   8   2    0.60    0.41
  16  -8   1    1.22    0.51
  16   8   1    0.95    0.48
  16  -8   0    0.09    0.33
  16   8   0    0.31    0.36
  16   8  -1    0.18    0.36
 -16   8   1    0.50    0.43
 -16  -8   2   -0.34    0.20
  16   8  -2    0.00    0.34
 -16   8   2   -0.45    0.28
 -16  -8   3   -0.08    0.24
 -16   8   3   -0.08    0.34
  16   8  -3    0.22    0.37
 -16  -8   4    3.72    0.63
 -16   8   4    2.44    0.61
  16   8  -4    3.76    0.65
 -16  -8   5    0.56    0.32
  16   8  -5   -0.42    0.36
 -16   8   5    0.41    0.39
 -16  -8   6    1.47    0.47
 -16   8   6    0.04    0.31
  16   8  -6    1.23    0.51
 -16  -8   7   -0.05    0.26
  16   8  -7   -0.33    0.42
 -16   8   7    0.27    0.32
 -16  -8   8    0.32    0.31
 -16   8   8    1.00    0.39
 -16   8   8    1.54    0.49
  16   8  -8    1.59    0.63
 -16  -8   9    0.12    0.26
 -16   8   9    0.00    0.30
 -16   8   9    0.68    0.39
 -16  -8  10    0.36    0.29
 -16   8  10    0.31    0.31
 -16   8  10    0.43    0.36
 -16  -8  11    0.71    0.37
 -16   8  11    0.33    0.38
 -16   8  11    0.39    0.34
 -16  -8  12    0.64    0.37
 -16   8  12   -0.62    0.25
 -16   8  12    0.10    0.30
 -16  -8  13    0.27    0.31
 -16   8  13   -0.09    0.34
 -16   8  13   -0.08    0.31
 -16  -8  14    0.36    0.36
 -16   8  14    0.14    0.40
 -16   8  15    0.17    0.42
  16 -10   5    0.52    0.42
  16  10   5   -0.05    0.45
  16 -10   4    0.62    0.40
  16  10   4    0.72    0.48
  16 -10   3    0.14    0.45
  16  10   3    0.21    0.40
  16 -10   2   -0.22    0.37
  16  10   2   -0.15    0.34
  16 -10   1    1.97    0.58
  16  10   1    1.78    0.55
  16 -10   0    5.37    0.88
  16  10   0    5.25    0.83
  16 -10  -1    1.17    0.50
  16  10  -1   -0.27    0.31
  16 -10  -2    0.77    0.46
  16  10  -2    0.24    0.42
 -16 -10   3   -0.18    0.24
 -16  10   3    0.44    0.41
  16  10  -3    0.18    0.38
 -16 -10   4    0.23    0.28
  16  10  -4    0.29    0.42
 -16  10   4   -0.13    0.32
 -16 -10   5    2.16    0.53
  16  10  -5    1.85    0.56
 -16  10   5    2.50    0.61
 -16 -10   6    0.25    0.29
  16  10  -6    0.03    0.44
 -16  10   6    0.41    0.38
 -16 -10   7   -0.08    0.24
  16  10  -7   -0.20    0.45
 -16  10   7    0.47    0.40
 -16 -10   8   -0.16    0.23
 -16  10   8   -0.02    0.39
 -16  10   8    0.27    0.32
  16  10  -8   -0.42    0.50
 -16 -10   9   -0.18    0.24
 -16  10   9   -0.10    0.29
 -16  10   9    0.45    0.42
 -16 -10  10    0.20    0.31
 -16  10  10    0.11    0.32
 -16  10  10   -0.07    0.35
 -16 -10  11    0.76    0.41
 -16  10  11    0.74    0.43
 -16  10  11    1.04    0.47
 -16 -10  12    0.42    0.30
 -16  10  12    0.05    0.37
 -16  10  12   -0.13    0.30
 -16 -10  13   -0.06    0.25
 -16  10  13    0.27    0.37
 -16  10  13   -0.04    0.34
 -16  10  14   -0.17    0.35
 -16  10  15    0.39    0.43
  16 -12   5    0.15    0.38
  16  12   5    0.05    0.43
  16 -12   4    0.16    0.52
  16  12   4   -0.66    0.38
  16 -12   3   -0.36    0.41
  16  12   3    0.13    0.43
  16 -12   2    0.12    0.43
  16  12   2    0.06    0.37
  16 -12   1   -0.30    0.35
  16  12   1   -0.17    0.36
  16 -12   0    1.09    0.54
  16  12   0    0.32    0.45
  16 -12  -1    0.29    0.41
  16  12  -1    0.09    0.42
  16 -12  -2    0.31    0.41
  16  12  -2    0.27    0.45
 -16 -12   3    0.78    0.37
  16 -12  -3   -0.14    0.33
  16  12  -3    0.41    0.47
 -16 -12   4    1.66    0.47
  16 -12  -4    2.42    0.64
  16  12  -4    2.62    0.70
 -16 -12   5    0.01    0.28
  16  12  -5   -0.14    0.41
 -16  12   5   -0.05    0.36
 -16 -12   6    0.10    0.28
  16  12  -6    0.14    0.49
 -16  12   6   -0.21    0.34
 -16 -12   7    1.36    0.48
 -16  12   7    0.34    0.42
  16  12  -7   -0.16    0.54
 -16 -12   8    0.74    0.38
 -16  12   8    0.34    0.37
 -16  12   8    1.48    0.59
  16  12  -8    0.96    0.70
 -16 -12   9    0.14    0.30
 -16  12   9    0.10    0.36
 -16  12   9    0.36    0.37
 -16 -12  10    0.20    0.33
 -16  12  10    0.05    0.37
 -16  12  10   -0.40    0.25
 -16 -12  11    0.11    0.29
 -16  12  11   -0.01    0.36
 -16  12  11   -0.03    0.34
 -16  12  12    1.77    0.59
 -16  12  12    1.01    0.48
 -16  12  13   -0.03    0.35
 -16  12  14   -0.08    0.38
  16  14   3    0.15    0.43
  16 -14   2   -0.45    0.42
  16  14   2    0.53    0.51
  16 -14   1    0.56    0.50
  16  14   1    0.24    0.47
  16 -14   0    0.73    0.50
  16  14   0    1.59    0.60
  16 -14  -1    1.68    0.63
  16  14  -1    1.19    0.56
  16 -14  -2   -0.30    0.33
  16  14  -2    0.22    0.44
  16 -14  -3    1.68    0.59
  16  14  -3    0.15    0.46
  16 -14  -4   -0.34    0.32
 -16 -14   4    0.15    0.33
  16  14  -4    0.24    0.52
 -16 -14   5    0.15    0.33
  16 -14  -5    0.09    0.38
  16  14  -5   -0.35    0.48
 -16 -14   6    0.57    0.33
  16 -14  -6   -0.39    0.30
  16  14  -6   -0.72    0.47
 -16 -14   7    0.40    0.34
  16 -14  -7    0.49    0.44
  16  14  -7    0.30    0.60
 -16 -14   8    0.06    0.29
 -16  14   8   -0.25    0.40
  16  14  -8   -0.65    0.49
 -16  14   8    0.19    0.34
 -16 -14   9    0.82    0.44
 -16  14   9   -0.43    0.42
 -16  14   9    0.26    0.40
 -16 -14  10    0.13    0.32
 -16  14  10   -0.02    0.39
 -16  14  10    0.71    0.44
 -16  14  11    0.24    0.42
 -16  14  11   -0.32    0.35
 -16  14  12    0.50    0.47
 -16  14  13    0.45    0.48
  16  16   2   -0.02    0.50
  16  16   1    0.52    0.57
  16  16   0    0.31    0.53
  16  16  -1   -0.23    0.47
  16 -16  -2   -0.15    0.43
  16  16  -2   -0.48    0.47
  16 -16  -3    0.25    0.49
  16  16  -3   -0.12    0.49
  16 -16  -4    0.57    0.53
  16  16  -4   -0.66    0.48
 -16 -16   5    0.27    0.38
  16 -16  -5    0.45    0.46
  16  16  -5   -0.12    0.53
 -16 -16   6    0.77    0.41
  16 -16  -6    1.17    0.60
  16  16  -6   -0.28    0.58
 -16 -16   7    0.11    0.34
  16 -16  -7    1.29    0.59
  16  16  -7   -0.38    0.65
 -16 -16   8    0.00    0.27
  16 -16  -8    0.08    0.44
  16 -16  -9   -0.30    0.38
 -16  16   9    0.03    0.40
  16 -16 -10    1.13    0.59
 -16  16  10    0.90    0.53
  16 -16 -11    0.17    0.50
 -16  16  11    0.48    0.45
  16  18  -1   -0.83    0.39
  16  18  -2   -0.77    0.44
  16  18  -3    0.10    0.54
  16  18  -4   -0.99    0.51
  16  18  -5   -0.30    0.62
 -16 -18   6    1.03    0.46
  16  18  -6   -0.13    0.66
  16  18  -7   -0.57    0.58
  17  -1   6    0.79    0.50
  17   1   6    0.42    0.43
  17  -1   5    3.14    0.69
  17   1   5    2.42    0.66
  17  -1   4    3.57    0.71
  17   1   4    3.11    0.70
  17  -1   3    4.53    0.77
  17   1   3    4.80    0.78
  17  -1   2    1.02    0.42
  17   1   2    1.23    0.46
  17  -1   1    1.40    0.44
  17   1   1    0.80    0.40
 -17  -1   0    1.29    0.42
 -17   1   0    0.97    0.44
  17   1   0    0.89    0.38
 -17  -1   1    0.08    0.29
 -17   1   1    0.30    0.32
  17   1  -1    0.95    0.38
 -17  -1   2    5.13    0.74
  17   1  -2    4.60    0.66
 -17   1   2    3.89    0.68
 -17  -1   3    1.82    0.50
 -17   1   3    1.41    0.48
 -17  -1   4    0.07    0.27
 -17   1   4    0.08    0.32
 -17  -1   5    0.31    0.30
 -17   1   5    1.33    0.45
 -17  -1   6    2.35    0.53
 -17   1   6    1.39    0.43
 -17  -1   7    2.60    0.57
 -17   1   7    2.62    0.55
 -17  -1   8    1.78    0.49
 -17   1   8    1.26    0.43
 -17  -1   9    0.23    0.27
 -17   1   9    0.50    0.34
 -17  -1  10    0.55    0.32
 -17   1  10    0.93    0.42
 -17  -1  11    0.14    0.26
 -17   1  11    0.33    0.32
 -17  -1  12    0.23    0.30
 -17   1  12    0.38    0.34
 -17  -1  13    0.21    0.30
 -17   1  13    0.30    0.31
 -17  -1  14    0.36    0.35
 -17   1  14    0.10    0.30
 -17  -1  15    0.01    0.32
 -17   1  15    0.20    0.32
 -17   1  16   -0.07    0.29
  17   3   6    1.33    0.58
  17   3   5    0.95    0.47
  17  -3   4    3.16    0.68
  17   3   4    3.16    0.70
  17  -3   3    0.76    0.45
  17   3   3    0.56    0.43
  17   3   2    0.07    0.34
  17   3   1    1.28    0.46
 -17   3  -1    1.21    0.48
 -17   3   0    1.12    0.48
  17   3   0    0.94    0.42
 -17  -3   1   -0.08    0.25
 -17   3   1   -0.12    0.30
  17   3  -1    0.29    0.31
 -17  -3   2    2.41    0.55
  17   3  -2    3.63    0.60
 -17   3   2    3.56    0.64
 -17  -3   3    3.69    0.62
 -17   3   3    4.33    0.72
  17   3  -3    4.29    0.63
 -17  -3   4    0.32    0.33
 -17   3   4    0.56    0.36
  17   3  -4    0.23    0.32
 -17  -3   5    0.44    0.28
 -17   3   5   -0.23    0.27
  17   3  -5    0.02    0.31
 -17  -3   6    4.75    0.73
 -17   3   6    4.79    0.76
 -17  -3   7    4.43    0.73
 -17   3   7    4.73    0.78
 -17  -3   8    0.48    0.33
 -17   3   8    0.24    0.31
 -17  -3   9    1.88    0.52
 -17   3   9    2.36    0.56
 -17  -3  10   -0.18    0.21
 -17   3  10   -0.21    0.23
 -17  -3  11   -0.21    0.22
 -17   3  11   -0.02    0.30
 -17  -3  12    0.15    0.29
 -17   3  12    0.21    0.30
 -17  -3  13   -0.09    0.28
 -17   3  13   -0.36    0.22
 -17  -3  14    0.26    0.30
 -17   3  14    0.11    0.33
 -17  -3  15    0.05    0.32
 -17   3  15   -0.26    0.29
  17  -5   6   -0.10    0.31
  17   5   6    0.15    0.41
  17  -5   5    0.20    0.34
  17   5   5    0.93    0.54
  17  -5   4    0.69    0.38
  17   5   4    1.00    0.48
  17  -5   3   -0.17    0.28
  17   5   3   -0.37    0.23
  17  -5   2   -0.06    0.28
  17   5   2   -0.15    0.31
  17  -5   1    1.22    0.47
 -17   5  -1    1.06    0.49
  17   5   1    1.75    0.52
  17   5   0    0.57    0.39
 -17   5   0    0.21    0.36
  17   5  -1    0.53    0.38
 -17   5   1    0.14    0.36
 -17  -5   2    0.62    0.34
  17   5  -2    0.14    0.33
 -17   5   2    0.61    0.42
 -17  -5   3    1.39    0.42
 -17   5   3    2.11    0.55
 -17  -5   4   -0.01    0.24
 -17   5   4   -0.26    0.24
  17   5  -4   -0.51    0.27
 -17  -5   5    0.83    0.38
  17   5  -5    0.17    0.36
 -17   5   5    0.61    0.39
 -17  -5   6    0.15    0.27
  17   5  -6    0.09    0.38
 -17   5   6    0.84    0.43
 -17  -5   7    1.32    0.44
  17   5  -7    1.31    0.53
 -17   5   7    2.28    0.57
 -17  -5   8    0.21    0.27
 -17   5   8    0.30    0.33
 -17  -5   9    0.62    0.38
 -17   5   9    0.13    0.30
 -17  -5  10    1.44    0.45
 -17   5  10   -0.11    0.30
 -17  -5  11    0.01    0.27
 -17   5  11   -0.10    0.29
 -17  -5  12   -0.45    0.19
 -17   5  12   -0.10    0.27
 -17  -5  13   -0.17    0.24
 -17   5  13    0.50    0.41
 -17  -5  14    0.49    0.40
 -17   5  14    0.14    0.39
 -17   5  15   -0.04    0.39
  17  -7   5    0.34    0.35
  17   7   5    0.09    0.42
  17  -7   4    0.69    0.40
  17   7   4    1.40    0.58
  17  -7   3   -0.38    0.23
  17   7   3    0.38    0.39
  17  -7   2    0.46    0.40
  17   7   2    0.28    0.41
  17  -7   1   -0.38    0.24
  17   7   1    0.19    0.34
  17  -7   0    0.41    0.44
  17   7   0    0.25    0.39
 -17   7   1    1.00    0.48
  17   7  -1    0.64    0.40
 -17  -7   2    1.33    0.43
 -17   7   2    1.44    0.52
  17   7  -2    1.75    0.53
 -17  -7   3    0.46    0.30
 -17   7   3    0.12    0.36
  17   7  -3   -0.08    0.33
 -17  -7   4    0.13    0.30
  17   7  -4   -0.43    0.29
 -17   7   4   -0.04    0.31
 -17  -7   5   -0.08    0.24
  17   7  -5   -0.65    0.30
 -17   7   5    0.13    0.35
 -17  -7   6   -0.06    0.24
 -17   7   6    0.61    0.40
  17   7  -6   -0.79    0.32
 -17  -7   7    0.28    0.31
  17   7  -7    0.55    0.49
 -17   7   7    0.32    0.33
 -17  -7   8    0.61    0.37
 -17   7   8    0.63    0.42
  17   7  -8    0.20    0.58
 -17   7   8    0.95    0.37
 -17  -7   9    0.37    0.33
 -17   7   9    0.32    0.35
 -17  -7  10    0.29    0.29
 -17   7  10   -0.28    0.28
 -17  -7  11    0.24    0.28
 -17   7  11   -0.45    0.23
 -17  -7  12    1.12    0.42
 -17   7  12    0.31    0.38
 -17  -7  13   -0.06    0.26
 -17   7  13   -0.26    0.27
 -17   7  14   -0.42    0.28
  17  -9   5    0.91    0.47
  17   9   5    1.10    0.56
  17  -9   4    0.31    0.37
  17   9   4   -0.39    0.32
  17  -9   3    0.31    0.45
  17   9   3    0.40    0.44
  17  -9   2   -0.46    0.33
  17   9   2    0.08    0.41
  17  -9   1    4.17    0.77
  17   9   1    4.81    0.82
  17  -9   0    1.28    0.52
  17   9   0    0.64    0.42
  17  -9  -1    0.97    0.48
  17   9  -1   -0.11    0.34
 -17   9   2    0.49    0.48
  17   9  -2    0.96    0.46
 -17  -9   3    0.20    0.30
 -17   9   3    0.32    0.40
  17   9  -3    0.42    0.42
 -17  -9   4   -0.21    0.22
 -17   9   4   -0.45    0.31
  17   9  -4   -0.04    0.37
 -17  -9   5   -0.37    0.21
  17   9  -5    0.28    0.43
 -17   9   5    0.07    0.34
 -17  -9   6    0.35    0.29
  17   9  -6    0.51    0.45
 -17   9   6   -0.06    0.32
 -17  -9   7    0.07    0.27
  17   9  -7    0.10    0.48
 -17   9   7   -0.10    0.29
 -17  -9   8    0.15    0.29
 -17   9   8    0.23    0.30
 -17   9   8   -0.23    0.31
  17   9  -8    0.34    0.57
 -17  -9   9    0.00    0.26
 -17   9   9   -0.08    0.27
 -17   9   9    0.19    0.40
 -17  -9  10    0.44    0.34
 -17   9  10    0.54    0.37
 -17   9  10   -0.07    0.30
 -17  -9  11    0.66    0.38
 -17   9  11    0.82    0.43
 -17   9  11    1.22    0.48
 -17  -9  12    0.31    0.28
 -17   9  12   -0.12    0.29
 -17   9  12    0.16    0.36
 -17   9  13    0.27    0.39
 -17   9  13   -0.28    0.33
  17 -11   4    0.71    0.46
  17  11   4    0.37    0.52
  17 -11   3    0.72    0.57
  17  11   3    1.11    0.56
  17 -11   2    1.79    0.65
  17  11   2    0.61    0.52
  17 -11   1    0.44    0.50
  17  11   1   -0.34    0.40
  17 -11   0    0.75    0.49
  17  11   0    0.29    0.50
  17 -11  -1    0.42    0.45
  17  11  -1   -0.21    0.37
  17 -11  -2    1.77    0.58
  17  11  -2    1.46    0.58
  17 -11  -3    0.59    0.46
  17  11  -3    0.69    0.47
 -17 -11   4   -0.06    0.27
 -17  11   4    0.13    0.40
  17  11  -4   -0.05    0.44
 -17 -11   5    0.33    0.30
  17  11  -5   -0.03    0.44
 -17  11   5    0.22    0.38
 -17 -11   6    1.77    0.51
 -17  11   6    2.07    0.62
  17  11  -6    2.41    0.68
 -17 -11   7    0.17    0.30
 -17  11   7    0.49    0.42
  17  11  -7    0.43    0.55
 -17 -11   8    0.30    0.35
 -17  11   8    0.04    0.35
  17  11  -8   -0.62    0.52
 -17 -11   9   -0.18    0.24
 -17  11   9    0.08    0.30
 -17  11   9    0.31    0.39
 -17 -11  10    0.47    0.36
 -17  11  10    1.15    0.50
 -17  11  10    0.85    0.43
 -17 -11  11    0.31    0.31
 -17  11  11    0.52    0.42
 -17  11  11   -0.01    0.38
 -17  11  12   -0.05    0.33
 -17  11  12    0.07    0.40
 -17  11  13    0.19    0.40
 -17  11  13    0.01    0.40
 -17  11  14    0.63    0.44
  17  13   3    0.07    0.47
  17  13   2    0.11    0.47
  17 -13   1    1.22    0.62
  17  13   1    1.53    0.66
  17 -13   0   -0.40    0.36
  17  13   0   -0.47    0.33
  17 -13  -1    0.11    0.38
  17  13  -1   -0.16    0.38
  17 -13  -2    0.05    0.44
  17  13  -2   -0.50    0.39
  17 -13  -3    6.71    1.04
  17  13  -3    3.77    0.83
  17 -13  -4    0.03    0.36
 -17 -13   4   -0.01    0.31
  17  13  -4    0.28    0.50
  17 -13  -5    0.28    0.40
 -17 -13   5    0.58    0.38
  17  13  -5   -0.12    0.48
  17 -13  -6    0.14    0.38
 -17 -13   6    0.41    0.37
  17  13  -6    0.24    0.57
 -17  13   6    0.12    0.42
 -17 -13   7    1.22    0.47
  17  13  -7    2.27    0.75
 -17  13   7    1.05    0.56
 -17 -13   8    0.66    0.38
 -17  13   8    0.07    0.36
  17  13  -8    0.13    0.66
 -17 -13   9    0.16    0.35
 -17  13   9    0.18    0.43
 -17  13   9    0.11    0.35
 -17 -13  10    0.15    0.31
 -17  13  10   -0.15    0.35
 -17  13  10    0.51    0.40
 -17  13  11   -0.36    0.40
 -17  13  11    0.16    0.36
 -17  13  12    0.28    0.39
 -17  13  12   -0.13    0.39
 -17  13  13    0.49    0.47
  17  15   1    1.61    0.71
  17  15   0    0.68    0.58
  17  15  -1   -0.03    0.48
  17  15  -2   -0.14    0.48
  17 -15  -3   -0.33    0.32
  17  15  -3   -0.59    0.40
  17 -15  -4   -0.12    0.40
  17  15  -4    0.83    0.58
 -17 -15   5   -0.09    0.32
  17 -15  -5   -0.46    0.36
  17  15  -5   -0.39    0.55
 -17 -15   6    0.77    0.40
  17 -15  -6   -0.06    0.38
  17  15  -6    0.12    0.60
  17 -15  -7    0.11    0.44
 -17 -15   7    0.47    0.39
  17  15  -7    1.82    0.78
  17 -15  -8    0.28    0.48
 -17 -15   8    0.19    0.38
  17  15  -8   -0.09    0.66
  17 -15  -9   -0.19    0.45
 -17  15   9    0.15    0.38
 -17  15  10    0.70    0.49
 -17  15  11    0.21    0.42
  17  17  -1   -0.79    0.47
  17  17  -2    0.18    0.60
  17  17  -3   -0.23    0.58
  17  17  -4   -0.04    0.58
  17  17  -5    0.48    0.66
 -17 -17   6    0.53    0.38
  17  17  -6   -0.23    0.61
  17  17  -7   -0.09    0.73
  18   0   5    0.55    0.46
  18   0   4   -0.10    0.35
  18   0   3    0.34    0.39
  18   0   2    4.75    0.77
  18   0   1    0.07    0.32
 -18   0   1    0.00    0.32
 -18   0   2    0.12    0.31
 -18   0   3    0.16    0.31
 -18   0   4    1.82    0.53
 -18   0   5   -0.20    0.24
 -18   0   6    0.96    0.40
 -18   0   7    0.27    0.29
 -18   0   8    1.22    0.45
 -18   0   9   -0.03    0.22
 -18   0  10    4.05    0.72
 -18   0  11    0.05    0.26
 -18   0  12    0.32    0.33
 -18   0  13    0.20    0.28
 -18   0  14    0.27    0.34
 -18   0  15   -0.32    0.29
  18  -2   5   -0.01    0.41
  18   2   5    0.28    0.46
  18  -2   4    0.13    0.39
  18   2   4    0.34    0.42
  18   2   3   -0.06    0.35
  18   2   2    1.81    0.55
  18   2   1    3.54    0.69
  18   2   0    1.21    0.46
 -18   2   0    0.53    0.42
 -18  -2   1    0.50    0.36
 -18   2   1    0.45    0.39
  18   2  -1    0.37    0.35
 -18  -2   2    0.39    0.32
 -18   2   2    0.16    0.37
  18   2  -2    0.33    0.34
 -18  -2   3    2.22    0.53
 -18   2   3    2.14    0.53
 -18  -2   4    1.33    0.45
 -18   2   4    1.39    0.47
 -18  -2   5    1.48    0.43
 -18   2   5    2.06    0.56
 -18  -2   6    0.45    0.33
 -18   2   6    0.26    0.36
 -18  -2   7    1.17    0.41
 -18   2   7    1.63    0.52
 -18  -2   8   -0.16    0.22
 -18   2   8    0.19    0.32
 -18  -2   9    0.22    0.29
 -18   2   9    0.46    0.33
 -18  -2  10   -0.01    0.26
 -18   2  10    0.14    0.34
 -18  -2  11   -0.02    0.29
 -18   2  11   -0.02    0.26
 -18  -2  12    0.48    0.35
 -18   2  12    0.11    0.32
 -18  -2  13    0.10    0.30
 -18   2  13    0.12    0.34
 -18  -2  14    0.01    0.26
 -18   2  14   -0.31    0.28
 -18   2  15    0.07    0.33
  18   4   5    0.43    0.48
  18   4   4    0.27    0.37
  18   4   3   -0.10    0.38
  18   4   2    1.49    0.51
 -18   4  -1    0.61    0.47
  18   4   1    0.82    0.44
  18   4   0    1.63    0.53
 -18   4   0    2.76    0.63
  18   4  -1    0.54    0.40
 -18   4   1   -0.05    0.39
 -18  -4   2    1.76    0.50
 -18   4   2    1.09    0.51
  18   4  -2    1.91    0.52
 -18  -4   3    0.42    0.32
 -18   4   3    0.86    0.42
  18   4  -3    1.28    0.45
 -18  -4   4    0.91    0.41
  18   4  -4    1.01    0.44
 -18   4   4    0.85    0.44
 -18  -4   5    0.27    0.32
 -18   4   5    0.20    0.33
 -18  -4   6   -0.15    0.25
 -18   4   6    0.03    0.31
 -18  -4   7    0.82    0.37
 -18   4   7    2.10    0.59
 -18  -4   8    0.66    0.38
 -18   4   8    1.06    0.43
 -18  -4   9    0.19    0.27
 -18   4   9   -0.26    0.23
 -18  -4  10    0.56    0.35
 -18   4  10    0.00    0.32
 -18  -4  11    0.69    0.39
 -18   4  11   -0.18    0.31
 -18  -4  12    0.62    0.35
 -18   4  12   -0.38    0.26
 -18  -4  13    0.36    0.32
 -18   4  13    0.26    0.36
 -18  -4  14   -0.03    0.30
 -18   4  14    0.63    0.46
 -18   4  15   -0.17    0.37
  18  -6   5    0.64    0.47
  18   6   5    0.51    0.54
  18  -6   4    0.47    0.39
  18   6   4    1.72    0.62
  18  -6   3    0.17    0.29
  18   6   3   -0.19    0.35
  18  -6   2    0.11    0.31
  18   6   2   -0.05    0.37
  18  -6   1    1.95    0.60
  18   6   1    1.99    0.61
  18   6   0    0.94    0.46
 -18   6   0    0.16    0.45
  18   6  -1    0.30    0.36
 -18   6   1    0.17    0.41
  18   6  -2   -0.05    0.33
 -18   6   2   -0.13    0.33
 -18  -6   3    0.10    0.31
 -18   6   3    0.20    0.38
  18   6  -3   -0.35    0.31
 -18  -6   4   -0.26    0.25
  18   6  -4    0.57    0.41
 -18   6   4    0.27    0.40
 -18  -6   5    0.61    0.37
 -18   6   5    0.93    0.47
  18   6  -5    0.63    0.46
 -18  -6   6    0.17    0.29
 -18   6   6   -0.11    0.25
  18   6  -6   -0.19    0.40
 -18  -6   7    0.73    0.36
  18   6  -7    0.24    0.47
 -18   6   7    0.26    0.33
 -18  -6   8    0.59    0.37
 -18   6   8    0.64    0.38
 -18  -6   9    2.69    0.63
 -18   6   9    2.22    0.56
 -18  -6  10    0.31    0.34
 -18   6  10   -0.02    0.35
 -18  -6  11    0.33    0.31
 -18   6  11    1.04    0.47
 -18  -6  12   -0.10    0.26
 -18   6  12    0.75    0.44
 -18  -6  13    0.16    0.34
 -18   6  13    0.32    0.36
 -18   6  14    0.51    0.41
  18  -8   4    0.44    0.39
  18   8   4    0.58    0.55
  18  -8   3    0.96    0.47
  18   8   3    0.02    0.41
  18  -8   2    0.40    0.46
  18   8   2    0.24    0.43
  18  -8   1    0.20    0.39
  18   8   1    0.22    0.42
  18  -8   0    0.34    0.39
  18   8   0    0.00    0.36
  18  -8  -1    1.15    0.49
 -18   8   1    0.83    0.50
  18   8  -1    0.17    0.44
  18   8  -2   -0.34    0.35
 -18   8   2    0.16    0.41
 -18  -8   3    0.93    0.40
  18   8  -3    1.91    0.58
 -18   8   3    1.27    0.52
 -18  -8   4    0.29    0.32
 -18   8   4    0.55    0.43
  18   8  -4    1.01    0.50
 -18  -8   5    0.50    0.33
  18   8  -5    0.34    0.46
 -18   8   5    2.12    0.60
 -18  -8   6    0.32    0.34
 -18   8   6    0.86    0.44
  18   8  -6    0.76    0.53
 -18  -8   7    0.67    0.36
 -18   8   7    0.83    0.45
  18   8  -7    0.07    0.49
 -18  -8   8    0.61    0.37
 -18   8   8   -0.28    0.26
  18   8  -8   -0.28    0.49
 -18  -8   9    0.26    0.31
 -18   8   9   -0.03    0.28
 -18  -8  10    0.72    0.38
 -18   8  10    0.75    0.43
 -18  -8  11    0.04    0.27
 -18   8  11    0.20    0.36
 -18  -8  12    0.40    0.35
 -18   8  12   -0.13    0.33
 -18   8  13    0.58    0.43
 -18   8  14   -0.04    0.39
  18 -10   3    1.00    0.45
  18  10   3    0.18    0.46
  18 -10   2    0.46    0.51
  18  10   2    0.40    0.46
  18 -10   1    1.39    0.56
  18  10   1    0.97    0.51
  18 -10   0    0.08    0.39
  18  10   0   -0.42    0.35
  18 -10  -1   -0.04    0.36
  18  10  -1    0.59    0.47
  18 -10  -2    0.86    0.47
  18  10  -2   -0.08    0.42
 -18  10   3    1.74    0.64
  18  10  -3    0.70    0.52
 -18 -10   4    1.06    0.44
 -18  10   4    0.01    0.40
  18  10  -4    0.74    0.49
 -18 -10   5    1.10    0.44
  18  10  -5    0.92    0.54
 -18  10   5    1.94    0.58
 -18 -10   6    1.45    0.50
 -18  10   6    0.59    0.41
  18  10  -6    0.46    0.56
 -18 -10   7    0.98    0.41
  18  10  -7    2.30    0.74
 -18  10   7    1.85    0.62
 -18 -10   8    0.33    0.35
  18  10  -8   -0.04    0.57
 -18  10   8    0.05    0.35
 -18 -10   9    1.37    0.51
 -18  10   9    1.22    0.54
 -18  10   9    2.26    0.55
 -18 -10  10    0.14    0.34
 -18  10  10    0.89    0.45
 -18  10  10    0.94    0.49
 -18 -10  11    0.05    0.34
 -18  10  11    0.33    0.39
 -18  10  11    0.17    0.44
 -18  10  12    0.66    0.42
 -18  10  12    0.04    0.37
 -18  10  13    0.32    0.45
  18  12   2    0.57    0.57
  18  12   1    0.71    0.57
  18 -12   0    0.60    0.46
  18  12   0   -0.15    0.42
  18 -12  -1    1.44    0.58
  18  12  -1    2.99    0.74
  18 -12  -2    0.42    0.45
  18  12  -2    0.62    0.50
  18 -12  -3    2.04    0.63
  18  12  -3    2.10    0.63
  18 -12  -4    0.65    0.47
  18  12  -4   -0.14    0.47
 -18 -12   5    0.45    0.35
  18  12  -5   -0.12    0.46
 -18  12   5   -0.02    0.40
 -18 -12   6    0.48    0.38
 -18  12   6    0.23    0.42
  18  12  -6    0.06    0.52
 -18 -12   7    0.05    0.26
  18  12  -7   -0.01    0.56
 -18  12   7   -0.02    0.36
 -18 -12   8    0.13    0.32
  18  12  -8   -0.84    0.53
 -18  12   8    0.00    0.42
 -18 -12   9   -0.02    0.29
 -18  12   9    0.51    0.39
 -18  12   9    0.50    0.44
 -18 -12  10   -0.27    0.28
 -18  12  10    0.71    0.44
 -18  12  10   -0.19    0.37
 -18  12  11    0.05    0.43
 -18  12  11   -0.48    0.30
 -18  12  12    0.56    0.49
  18  14   1    0.27    0.50
  18  14   0   -0.02    0.45
  18  14  -1   -0.54    0.44
  18  14  -2   -0.25    0.47
  18  14  -3   -0.70    0.41
  18  14  -4   -0.58    0.44
 -18 -14   5    0.81    0.45
  18 -14  -5    1.57    0.61
  18  14  -5    0.22    0.56
  18 -14  -6    0.73    0.51
 -18 -14   6    0.38    0.34
  18  14  -6   -0.32    0.55
  18 -14  -7    0.54    0.50
 -18 -14   7   -0.17    0.33
  18  14  -7   -0.48    0.58
 -18 -14   8    0.70    0.46
  18  14  -8    0.51    0.74
 -18  14  10    0.50    0.44
 -18  14  11    0.10    0.39
  18  16  -2   -0.34    0.51
  18  16  -3    0.09    0.60
  18  16  -4    0.36    0.59
  18  16  -5   -0.02    0.58
 -18 -16   6    0.15    0.41
  18  16  -6    0.16    0.69
  18  16  -7   -0.59    0.67
  18  16  -8   -0.31    0.72
  19  -1   4    0.36    0.44
  19   1   4    0.34    0.43
  19   1   3    0.42    0.47
  19   1   2    4.43    0.81
  19   1   1   -0.39    0.30
 -19  -1   1    0.39    0.38
 -19   1   1    0.03    0.36
 -19  -1   2    0.28    0.36
 -19   1   2    0.69    0.37
 -19  -1   3   -0.04    0.29
 -19   1   3   -0.21    0.30
 -19  -1   4    0.04    0.31
 -19   1   4   -0.07    0.30
 -19  -1   5   -0.22    0.29
 -19   1   5    0.11    0.30
 -19  -1   6    0.53    0.34
 -19   1   6    0.34    0.37
 -19  -1   7   -0.04    0.26
 -19   1   7    0.18    0.31
 -19  -1   8   -0.07    0.30
 -19   1   8    0.39    0.35
 -19  -1   9    0.48    0.34
 -19   1   9    0.50    0.35
 -19  -1  10    1.42    0.46
 -19   1  10    1.15    0.44
 -19  -1  11   -0.04    0.27
 -19   1  11   -0.06    0.28
 -19  -1  12    0.52    0.38
 -19   1  12    0.27    0.37
 -19  -1  13    0.33    0.39
 -19   1  13    0.66    0.41
 -19   1  14    0.31    0.38
  19   3   4    0.01    0.40
  19   3   3    0.15    0.40
  19   3   2    0.99    0.53
  19   3   1    0.36    0.38
  19   3   0    0.39    0.41
 -19   3   0    0.39    0.43
 -19   3   1   -0.43    0.31
  19   3  -1    0.02    0.34
 -19  -3   2    2.86    0.62
  19   3  -2    3.02    0.61
 -19   3   2    3.67    0.73
 -19  -3   3    0.77    0.43
 -19   3   3    0.12    0.34
 -19  -3   4    0.11    0.29
 -19   3   4    0.26    0.35
 -19  -3   5    0.53    0.31
 -19   3   5   -0.07    0.30
 -19  -3   6    0.40    0.33
 -19   3   6    0.57    0.42
 -19  -3   7    0.08    0.29
 -19   3   7    0.26    0.33
 -19  -3   8    0.20    0.32
 -19   3   8   -0.26    0.27
 -19  -3   9    0.54    0.33
 -19   3   9    0.96    0.42
 -19  -3  10    0.30    0.34
 -19   3  10    0.71    0.41
 -19  -3  11   -0.14    0.23
 -19   3  11    0.57    0.43
 -19  -3  12    0.31    0.33
 -19   3  12   -0.16    0.29
 -19  -3  13    0.50    0.39
 -19   3  13    0.10    0.31
  19   5   4    0.12    0.48
  19   5   3    0.03    0.40
  19   5   2    0.13    0.39
  19   5   1    1.05    0.47
  19   5   0    0.62    0.44
 -19   5   0    0.47    0.50
 -19   5   1    0.05    0.38
  19   5  -1    0.44    0.40
  19   5  -2    1.10    0.50
 -19   5   2    1.44    0.57
 -19  -5   3   -0.22    0.27
  19   5  -3    0.03    0.36
 -19   5   3    0.15    0.37
 -19  -5   4    0.65    0.42
 -19   5   4    0.05    0.35
  19   5  -4    1.05    0.49
 -19  -5   5    1.28    0.47
 -19   5   5    0.80    0.42
 -19  -5   6    0.95    0.41
 -19   5   6    0.95    0.46
 -19  -5   7   -0.09    0.26
 -19   5   7    0.30    0.37
 -19  -5   8    0.13    0.29
 -19   5   8   -0.04    0.29
 -19  -5   9    0.36    0.37
 -19   5   9    0.28    0.35
 -19  -5  10    0.22    0.32
 -19   5  10    0.81    0.47
 -19  -5  11    0.60    0.35
 -19   5  11    0.28    0.34
 -19  -5  12    0.22    0.27
 -19   5  12   -0.01    0.33
 -19   5  13    0.39    0.46
  19   7   3    0.00    0.45
  19   7   2    0.19    0.46
  19  -7   1    0.36    0.45
  19   7   1    0.64    0.50
  19  -7   0    1.03    0.50
  19   7   0    0.01    0.38
 -19   7   1    0.85    0.52
  19   7  -1    0.40    0.41
  19   7  -2    0.50    0.43
 -19   7   2    0.92    0.53
 -19  -7   3   -0.03    0.29
  19   7  -3    0.15    0.36
 -19   7   3   -0.38    0.32
 -19  -7   4   -0.02    0.30
  19   7  -4    0.24    0.42
 -19   7   4    0.70    0.44
 -19  -7   5    1.23    0.45
 -19   7   5    0.59    0.44
  19   7  -5    0.36    0.47
 -19  -7   6    1.69    0.53
  19   7  -6    1.80    0.60
 -19   7   6    1.02    0.51
 -19  -7   7   -0.01    0.29
 -19   7   7   -0.57    0.28
  19   7  -7    0.10    0.50
 -19  -7   8    0.16    0.33
 -19   7   8    0.00    0.31
 -19  -7   9    0.39    0.35
 -19   7   9    0.04    0.37
 -19  -7  10   -0.19    0.25
 -19   7  10   -0.01    0.35
 -19  -7  11   -0.12    0.29
 -19   7  11    0.25    0.44
 -19   7  12   -0.54    0.25
 -19   7  13    0.21    0.40
  19   9   2    0.51    0.57
  19  -9   1   -0.01    0.39
  19   9   1   -0.10    0.40
  19  -9   0   -0.04    0.40
  19   9   0   -0.20    0.43
  19  -9  -1    0.57    0.45
  19   9  -1    0.28    0.45
  19  -9  -2    0.71    0.49
  19   9  -2    0.00    0.43
 -19   9   2    0.54    0.53
 -19   9   3    0.00    0.38
  19   9  -3    0.12    0.44
 -19  -9   4    0.43    0.38
 -19   9   4   -0.08    0.40
  19   9  -4   -0.57    0.37
 -19  -9   5    0.42    0.36
 -19   9   5   -0.04    0.40
  19   9  -5    0.26    0.47
 -19  -9   6    0.77    0.40
  19   9  -6    0.90    0.58
 -19   9   6    0.81    0.53
 -19  -9   7    0.23    0.35
 -19   9   7    0.30    0.39
  19   9  -7    0.13    0.54
 -19  -9   8    0.15    0.31
 -19   9   8    0.31    0.43
  19   9  -8    0.00    0.56
 -19  -9   9    0.35    0.35
 -19   9   9    0.06    0.37
  19   9  -9    0.19    0.64
 -19  -9  10   -0.16    0.24
 -19   9  10   -0.10    0.32
 -19   9  11   -0.60    0.25
  19  11   1    0.72    0.57
  19  11   0   -0.21    0.44
  19 -11  -1    0.03    0.42
  19  11  -1    0.20    0.49
  19 -11  -2    0.75    0.49
  19  11  -2    1.33    0.58
  19 -11  -3    0.64    0.48
  19  11  -3   -0.21    0.41
  19  11  -4    0.07    0.46
 -19  11   4    0.36    0.50
 -19 -11   5    0.33    0.37
  19  11  -5    0.15    0.49
 -19  11   5    0.06    0.40
 -19 -11   6    0.39    0.37
 -19  11   6    0.73    0.50
  19  11  -6    0.08    0.53
 -19 -11   7    0.19    0.30
 -19  11   7    0.32    0.41
  19  11  -7   -0.44    0.48
 -19 -11   8    0.73    0.42
 -19  11   8   -0.38    0.32
  19  11  -8   -0.13    0.63
 -19 -11   9    0.11    0.32
 -19  11   9    0.20    0.46
 -19  11  10    0.72    0.40
  19  13   0   -0.17    0.48
  19  13  -1    0.26    0.54
  19  13  -2   -0.29    0.46
  19  13  -3    0.50    0.56
  19  13  -4   -0.09    0.52
  19  13  -5    2.01    0.73
 -19 -13   6    0.64    0.38
  19  13  -6   -0.73    0.49
 -19 -13   7   -0.16    0.30
  19  13  -7   -0.17    0.61
 -19 -13   8    0.12    0.37
  19  13  -8   -0.26    0.58
 -19  13  11    0.09    0.39
  19  15  -3    0.23    0.53
  19  15  -4    0.65    0.67
  19  15  -5   -0.26    0.61
 -19 -15   6    0.37    0.43
  19  15  -6    0.72    0.76
  19  15  -7   -0.85    0.57
  19  15  -8    0.13    0.75
 -20   0   2   -0.07    0.33
 -20   0   3    0.25    0.39
 -20   0   4    0.14    0.35
 -20   0   5   -0.06    0.29
 -20   0   6    0.08    0.31
 -20   0   7    0.25    0.35
 -20   0   8    2.23    0.57
 -20   0   9   -0.31    0.24
 -20   0  10    1.24    0.44
 -20   0  11   -0.42    0.21
 -20   0  12    1.33    0.49
  20   2   3    0.61    0.50
  20   2   2    1.39    0.56
 -20   2   1    1.32    0.51
 -20  -2   2   -0.21    0.32
 -20   2   2   -0.34    0.31
 -20  -2   3    0.23    0.36
 -20   2   3    0.60    0.40
 -20  -2   4    0.22    0.37
 -20   2   4    0.68    0.41
 -20  -2   5    0.83    0.39
 -20   2   5    1.05    0.49
 -20  -2   6   -0.21    0.24
 -20   2   6   -0.24    0.33
 -20  -2   7   -0.09    0.25
 -20   2   7   -0.01    0.34
 -20  -2   8    0.02    0.33
 -20   2   8    0.06    0.34
 -20  -2   9    0.06    0.29
 -20   2   9    0.33    0.36
 -20  -2  10    0.47    0.35
 -20   2  10    0.72    0.42
 -20  -2  11    0.30    0.33
 -20   2  11    0.46    0.38
 -20  -2  12    0.06    0.29
 -20   2  12    0.22    0.31
  20   4   2    0.67    0.49
  20   4   1    0.23    0.42
  20   4   0    0.36    0.44
  20   4  -1    0.25    0.39
 -20   4   1   -0.34    0.37
 -20   4   2   -0.05    0.38
 -20  -4   3   -0.09    0.28
 -20   4   3   -0.49    0.33
 -20  -4   4    1.65    0.52
 -20   4   4    1.55    0.56
 -20  -4   5    0.52    0.37
 -20   4   5    0.04    0.35
 -20  -4   6    0.15    0.30
 -20   4   6    0.06    0.32
 -20  -4   7   -0.10    0.28
 -20   4   7    0.39    0.41
 -20  -4   8    0.86    0.45
 -20   4   8    0.71    0.47
 -20  -4   9   -0.06    0.28
 -20   4   9    0.18    0.33
 -20  -4  10   -0.15    0.29
 -20   4  10    0.20    0.33
 -20  -4  11    0.44    0.37
 -20   4  11    0.88    0.44
 -20   4  12   -0.04    0.38
  20   6   2    0.58    0.51
  20   6   1   -0.42    0.36
  20  -6   0    0.42    0.44
  20   6   0   -0.44    0.33
 -20   6   1    0.25    0.49
  20   6  -1    0.20    0.41
 -20   6   2    0.35    0.44
  20   6  -2    0.44    0.45
  20   6  -3    0.01    0.43
 -20   6   3   -0.55    0.36
 -20  -6   4    0.12    0.37
  20   6  -4    0.44    0.45
 -20   6   4   -0.06    0.36
 -20  -6   5    0.07    0.28
 -20   6   5    0.14    0.39
 -20  -6   6    1.40    0.51
 -20   6   6    1.00    0.49
 -20  -6   7    0.03    0.29
 -20   6   7    0.06    0.32
 -20  -6   8   -0.05    0.27
 -20   6   8   -0.02    0.34
 -20  -6   9    0.04    0.32
 -20   6   9   -0.39    0.28
 -20  -6  10    0.05    0.29
 -20   6  10   -0.31    0.28
 -20  -6  11    0.28    0.37
 -20   6  11   -0.23    0.26
  20  -8   1    0.27    0.42
  20   8   1    0.71    0.54
  20  -8   0    0.75    0.52
  20   8   0    0.78    0.55
  20  -8  -1    0.26    0.46
  20   8  -1    0.63    0.50
  20   8  -2    0.07    0.39
 -20   8   2   -0.07    0.42
 -20   8   3    0.42    0.50
  20   8  -3    0.72    0.50
 -20  -8   4    0.40    0.33
 -20   8   4   -0.23    0.35
  20   8  -4   -0.35    0.39
 -20  -8   5    0.33    0.33
  20   8  -5   -0.36    0.45
 -20   8   5    1.10    0.58
 -20  -8   6   -0.04    0.30
  20   8  -6   -0.41    0.47
 -20   8   6    0.02    0.44
 -20  -8   7    0.53    0.40
 -20   8   7    0.04    0.41
 -20  -8   8    0.38    0.36
 -20   8   8    0.57    0.44
 -20  -8   9    0.17    0.37
 -20   8   9   -0.54    0.27
 -20  -8  10    0.29    0.42
 -20   8  10    0.34    0.40
  20  10   0   -0.05    0.50
  20  10  -1    0.52    0.50
  20  10  -2   -0.32    0.40
  20  10  -3    0.00    0.44
 -20  10   3   -0.10    0.48
 -20  10   4    0.27    0.48
  20  10  -4    1.04    0.56
 -20 -10   5   -0.04    0.32
 -20  10   5   -0.20    0.38
  20  10  -5   -0.05    0.46
 -20 -10   6    0.50    0.41
 -20  10   6   -0.23    0.35
  20  10  -6   -0.73    0.44
 -20 -10   7   -0.16    0.33
  20  10  -7    0.10    0.57
 -20  10   7    0.15    0.39
 -20 -10   8   -0.45    0.28
  20  10  -8   -1.47    0.47
 -20 -10   9   -0.29    0.28
  20  10  -9    0.30    0.70
  20  12  -1   -0.36    0.48
  20  12  -2    0.50    0.59
  20  12  -3   -0.22    0.51
  20  12  -4    1.63    0.72
  20  12  -5    0.57    0.63
 -20 -12   6   -0.07    0.35
  20  12  -6    0.02    0.59
 -20 -12   7   -0.15    0.28
  20  12  -7   -0.90    0.50
  20  12  -8   -0.93    0.52
  20  12  -9    0.57    0.75
  20  14  -5    1.01    0.64
  20  14  -6   -0.26    0.65
  20  14  -7   -0.58    0.65
 -21   1   2   -0.56    0.29
 -21  -1   3    0.38    0.37
 -21   1   3    0.80    0.45
 -21  -1   4   -0.14    0.31
 -21   1   4   -0.18    0.33
 -21  -1   5    0.13    0.36
 -21   1   5    0.83    0.43
 -21  -1   6   -0.04    0.35
 -21   1   6   -0.47    0.30
 -21  -1   7    0.14    0.38
 -21   1   7    0.56    0.41
 -21  -1   8    1.67    0.53
 -21   1   8    1.89    0.61
 -21  -1   9   -0.03    0.33
 -21   1   9    0.41    0.45
 -21  -1  10    0.63    0.39
 -21   1  10    0.43    0.39
 -21   3   1    0.34    0.43
 -21   3   2    0.11    0.43
 -21  -3   3    0.04    0.37
 -21   3   3    0.59    0.48
 -21  -3   4    1.50    0.53
 -21   3   4    0.48    0.42
 -21  -3   5    0.38    0.38
 -21   3   5   -0.23    0.30
 -21  -3   6   -0.01    0.32
 -21   3   6   -0.35    0.31
 -21  -3   7    0.72    0.40
 -21   3   7    0.66    0.47
 -21  -3   8    0.38    0.39
 -21   3   8    0.21    0.40
 -21  -3   9   -0.01    0.32
 -21   3   9    0.31    0.35
 -21  -3  10    0.51    0.41
 -21   3  10    0.46    0.39
  21   5   1    0.53    0.49
  21   5   0    0.35    0.46
 -21   5   1   -0.35    0.35
  21   5  -1    0.11    0.45
 -21   5   2    0.49    0.48
 -21   5   3    1.80    0.64
 -21  -5   4   -0.12    0.30
 -21   5   4   -0.54    0.33
 -21  -5   5    0.07    0.34
 -21   5   5    0.63    0.48
 -21  -5   6    0.15    0.37
 -21   5   6    0.12    0.41
 -21  -5   7   -0.08    0.29
 -21   5   7   -0.49    0.33
 -21  -5   8   -0.28    0.27
 -21   5   8    0.44    0.38
 -21  -5   9    1.17    0.45
 -21   5   9    1.16    0.51
  21   7   0   -0.16    0.43
  21  -7  -1    0.09    0.42
  21   7  -1   -0.13    0.43
 -21   7   2   -0.20    0.46
  21   7  -2   -0.44    0.36
 -21   7   3   -0.05    0.44
  21   7  -3   -0.20    0.44
 -21   7   4    0.39    0.49
 -21  -7   5   -0.33    0.32
 -21   7   5    0.15    0.42
 -21  -7   6   -0.17    0.30
 -21   7   6    0.41    0.48
 -21  -7   7   -0.26    0.28
 -21   7   7   -0.25    0.39
 -21  -7   8    0.77    0.46
 -21  -7   9    0.23    0.37
  21   9  -1   -0.09    0.50
  21   9  -2   -0.34    0.49
  21   9  -3   -0.06    0.50
  21   9  -4    0.09    0.49
 -21  -9   5    1.00    0.45
  21   9  -5    0.04    0.50
 -21  -9   6   -0.05    0.36
  21   9  -6   -0.40    0.48
 -21  -9   7    1.33    0.56
 -21  -9   8    0.42    0.39
  21  11  -3   -0.13    0.49
  21  11  -4   -0.59    0.47
  21  11  -5   -0.18    0.54
 -21 -11   6    0.25    0.41
  21  11  -6   -0.75    0.51
  21  11  -7   -0.66    0.55
  21  11  -8   -0.15    0.62
 -22   0   3   -0.11    0.31
 -22   0   4    0.22    0.37
 -22   0   5   -0.09    0.37
 -22   0   6   -0.19    0.30
 -22   0   7    0.04    0.33
 -22   0   8    0.16    0.38
 -22   2   2   -0.16    0.44
 -22   2   3    0.17    0.45
 -22  -2   4   -0.22    0.32
 -22   2   4   -0.13    0.37
 -22  -2   5   -0.09    0.38
 -22   2   5   -0.17    0.36
 -22  -2   6   -0.14    0.37
 -22   2   6   -0.35    0.34
 -22  -2   7    0.92    0.49
 -22   2   7    0.68    0.47
 -22  -2   8    0.43    0.38
 -22   2   8   -0.06    0.42
 -22   4   2    0.01    0.44
 -22   4   3   -0.24    0.39
 -22  -4   4    0.21    0.40
 -22   4   4    0.82    0.55
 -22  -4   5   -0.51    0.30
 -22   4   5    0.74    0.53
 -22  -4   6    0.22    0.36
 -22   4   6    0.00    0.38
 -22  -4   7    0.19    0.37
 -22  -4   8   -0.18    0.35
 -22  -6   5   -0.13    0.37
 -22  -6   6   -0.28    0.32
 -22  -6   7   -0.04    0.34
  22   8  -3   -0.05    0.52
 -22  -8   6   -0.14    0.31
 -23  -1   4   -0.48    0.32
 -23  -1   5    0.05    0.39
 -23  -3   5    0.42    0.45
 -23  -5   5    0.30    0.45
   0   0   0    0.00    0.00
;
_shelx_hkl_checksum              23513
loop_
_space_group_symop_operation_xyz
'x, y, z'
'-x, y, -z+1/2'
'x+1/2, y+1/2, z'
'-x+1/2, y+1/2, -z+1/2'
'-x, -y, -z'
'x, -y, z-1/2'
'-x+1/2, -y+1/2, -z'
'x+1/2, -y+1/2, z-1/2'
loop_
_atom_site_label
_atom_site_type_symbol
_atom_site_fract_x
_atom_site_fract_y
_atom_site_fract_z
_atom_site_U_iso_or_equiv
_atom_site_adp_type
_atom_site_occupancy
_atom_site_site_symmetry_order
_atom_site_calc_flag
_atom_site_refinement_flags_posn
_atom_site_refinement_flags_adp
S1 S 0.09436(5) 0.36512(4) 0.61788(7) 0.0490(3) Uani 1 1 d . .
O1 O 0.02925(13) 0.34291(12) 0.6435(2) 0.0658(7) Uani 1 1 d . .
O2 O 0.09900(14) 0.34563(12) 0.52061(17) 0.0632(7) Uani 1 1 d . .
C1 C 0.09569(17) 0.45332(16) 0.6229(3) 0.0418(8) Uani 1 1 d . .
C2 C 0.10700(19) 0.49097(18) 0.5453(3) 0.0537(9) Uani 1 1 d . .
H2 H 0.1143 0.4696 0.4894 0.064 Uiso 1 1 calc R U
C4 C 0.0982(2) 0.5938(2) 0.6328(4) 0.0672(11) Uani 1 1 d . .
C6 C 0.0849(2) 0.48614(19) 0.7050(3) 0.0615(10) Uani 1 1 d . .
H6 H 0.0766 0.4614 0.7575 0.074 Uiso 1 1 calc R U
C5 C 0.0865(2) 0.5557(2) 0.7091(3) 0.0733(12) Uani 1 1 d . .
H5 H 0.0796 0.5774 0.7651 0.088 Uiso 1 1 calc R U
C3 C 0.1074(2) 0.5604(2) 0.5511(3) 0.0650(11) Uani 1 1 d . .
H3 H 0.1142 0.5853 0.4976 0.078 Uiso 1 1 calc R U
C7 C 0.1009(3) 0.6701(2) 0.6390(4) 0.1088(18) Uani 1 1 d . .
H7A H 0.1015 0.6882 0.5745 0.163 Uiso 1 1 calc R U
H7B H 0.1480 0.6840 0.6968 0.163 Uiso 1 1 calc R U
H7C H 0.0547 0.6864 0.6497 0.163 Uiso 1 1 calc R U
C8 C 0.17374(18) 0.32544(15) 0.8192(2) 0.0437(8) Uani 1 1 d . .
H8 H 0.1290 0.3504 0.8251 0.052 Uiso 1 1 calc R U
C11 C 0.09279(19) 0.15284(16) 0.8590(2) 0.0437(8) Uani 1 1 d . .
N2 N 0.04209(17) 0.12999(13) 0.9019(2) 0.0524(7) Uani 1 1 d . .
C9 C 0.16128(18) 0.25195(16) 0.8312(2) 0.0450(8) Uani 1 1 d . .
H9 H 0.1983 0.2220 0.8241 0.054 Uiso 1 1 calc R U
C10 C 0.10201(18) 0.22670(15) 0.8511(2) 0.0409(8) Uani 1 1 d . .
H10 H 0.0649 0.2557 0.8605 0.049 Uiso 1 1 calc R U
O3 O 0.13058(15) 0.11387(12) 0.8268(2) 0.0631(7) Uani 1 1 d . .
C13 C 0.0305(2) 0.05786(18) 0.9070(3) 0.0744(12) Uani 1 1 d . .
H13A H 0.0600 0.0344 0.8724 0.112 Uiso 1 1 calc R U
H13B H -0.0251 0.0474 0.8727 0.112 Uiso 1 1 calc R U
H13C H 0.0489 0.0439 0.9794 0.112 Uiso 1 1 calc R U
C14 C -0.0026(2) 0.1718(2) 0.9451(3) 0.0779(13) Uani 1 1 d . .
H14A H 0.0288 0.1810 1.0178 0.117 Uiso 1 1 calc R U
H14B H -0.0506 0.1487 0.9396 0.117 Uiso 1 1 calc R U
H14C H -0.0160 0.2135 0.9066 0.117 Uiso 1 1 calc R U
N1 N 0.17470(14) 0.33800(12) 0.71279(19) 0.0427(7) Uani 1 1 d . .
C20 C 0.3041(2) 0.38880(19) 0.7391(3) 0.0512(9) Uani 1 1 d . .
C15 C 0.24894(19) 0.33732(18) 0.6972(2) 0.0466(8) Uani 1 1 d . .
C19 C 0.3738(2) 0.3869(2) 0.7196(3) 0.0721(12) Uani 1 1 d . .
H19 H 0.4113 0.4211 0.7458 0.086 Uiso 1 1 calc R U
C16 C 0.2637(2) 0.2851(2) 0.6405(3) 0.0626(10) Uani 1 1 d . .
H16 H 0.2269 0.2505 0.6139 0.075 Uiso 1 1 calc R U
C17 C 0.3353(3) 0.2852(3) 0.6236(3) 0.0831(15) Uani 1 1 d . .
H17 H 0.3461 0.2504 0.5855 0.100 Uiso 1 1 calc R U
C18 C 0.3884(3) 0.3359(3) 0.6628(3) 0.0889(16) Uani 1 1 d . .
H18 H 0.4355 0.3358 0.6508 0.107 Uiso 1 1 calc R U
C21 C 0.29111(18) 0.44165(18) 0.8059(3) 0.0496(9) Uani 1 1 d . .
C22 C 0.3044(2) 0.5092(2) 0.7912(3) 0.0652(11) Uani 1 1 d . .
H22 H 0.3201 0.5214 0.7366 0.078 Uiso 1 1 calc R U
C26 C 0.26762(18) 0.42427(17) 0.8885(3) 0.0474(8) Uani 1 1 d . .
C25 C 0.2602(2) 0.47432(19) 0.9539(3) 0.0583(10) Uani 1 1 d . .
H25 H 0.2463 0.4627 1.0102 0.070 Uiso 1 1 calc R U
C23 C 0.2950(2) 0.5581(2) 0.8556(4) 0.0758(12) Uani 1 1 d . .
H23 H 0.3035 0.6031 0.8438 0.091 Uiso 1 1 calc R U
C24 C 0.2730(2) 0.5412(2) 0.9377(3) 0.0714(12) Uani 1 1 d . .
H24 H 0.2667 0.5745 0.9817 0.086 Uiso 1 1 calc R U
C27 C 0.25135(19) 0.35129(17) 0.9044(3) 0.0502(9) Uani 1 1 d . .
H27A H 0.2481 0.3462 0.9729 0.060 Uiso 1 1 calc R U
H27B H 0.2954 0.3239 0.9037 0.060 Uiso 1 1 calc R U
loop_
_atom_site_aniso_label
_atom_site_aniso_U_11
_atom_site_aniso_U_22
_atom_site_aniso_U_33
_atom_site_aniso_U_23
_atom_site_aniso_U_13
_atom_site_aniso_U_12
S1 0.0406(5) 0.0465(6) 0.0501(6) 0.0084(4) 0.0063(4) -0.0053(4)
O1 0.0396(13) 0.0655(17) 0.0838(19) 0.0216(14) 0.0140(13) -0.0128(12)
O2 0.0705(16) 0.0626(17) 0.0413(14) -0.0049(12) 0.0042(12) 0.0046(13)
C1 0.0318(17) 0.043(2) 0.045(2) 0.0092(16) 0.0084(15) 0.0018(15)
C2 0.048(2) 0.055(2) 0.057(2) 0.0129(18) 0.0195(18) -0.0027(18)
C4 0.048(2) 0.050(3) 0.080(3) 0.006(2) -0.002(2) -0.0006(19)
C6 0.067(3) 0.059(3) 0.058(3) 0.008(2) 0.024(2) 0.008(2)
C5 0.071(3) 0.070(3) 0.067(3) -0.010(2) 0.013(2) 0.013(2)
C3 0.056(2) 0.054(3) 0.080(3) 0.022(2) 0.019(2) -0.006(2)
C7 0.097(4) 0.053(3) 0.136(5) -0.005(3) -0.001(3) -0.005(3)
C8 0.0418(19) 0.040(2) 0.051(2) 0.0075(15) 0.0194(16) -0.0007(15)
C11 0.044(2) 0.040(2) 0.042(2) 0.0042(15) 0.0118(16) 0.0019(16)
N2 0.0544(18) 0.0399(18) 0.066(2) 0.0066(14) 0.0260(16) -0.0091(14)
C9 0.045(2) 0.038(2) 0.051(2) 0.0071(15) 0.0181(17) 0.0058(15)
C10 0.0420(18) 0.0346(19) 0.047(2) 0.0022(15) 0.0185(16) 0.0039(15)
O3 0.0762(18) 0.0394(14) 0.0833(19) -0.0035(13) 0.0411(16) 0.0072(13)
C13 0.063(3) 0.046(2) 0.108(3) 0.016(2) 0.026(2) -0.015(2)
C14 0.092(3) 0.070(3) 0.096(3) -0.002(2) 0.063(3) -0.011(2)
N1 0.0391(15) 0.0444(16) 0.0418(16) 0.0089(12) 0.0122(13) -0.0010(13)
C20 0.043(2) 0.066(2) 0.042(2) 0.0109(18) 0.0137(17) 0.0016(18)
C15 0.044(2) 0.055(2) 0.0379(19) 0.0106(16) 0.0134(16) 0.0043(17)
C19 0.046(2) 0.115(4) 0.058(3) 0.002(2) 0.023(2) -0.008(2)
C16 0.071(3) 0.065(3) 0.044(2) 0.0035(19) 0.014(2) 0.015(2)
C17 0.078(3) 0.123(4) 0.049(3) 0.006(3) 0.025(2) 0.046(3)
C18 0.053(3) 0.158(5) 0.056(3) -0.001(3) 0.020(2) 0.015(3)
C21 0.0392(19) 0.056(2) 0.049(2) 0.0058(17) 0.0114(17) -0.0129(17)
C22 0.051(2) 0.070(3) 0.068(3) 0.013(2) 0.015(2) -0.020(2)
C26 0.041(2) 0.049(2) 0.047(2) 0.0059(17) 0.0113(16) -0.0046(16)
C25 0.050(2) 0.061(3) 0.058(2) -0.004(2) 0.0141(19) -0.0054(19)
C23 0.068(3) 0.055(3) 0.089(3) 0.003(3) 0.014(3) -0.018(2)
C24 0.060(3) 0.060(3) 0.079(3) -0.014(2) 0.010(2) -0.007(2)
C27 0.048(2) 0.054(2) 0.047(2) 0.0083(17) 0.0179(17) -0.0009(17)
loop_
_atom_type_symbol
_atom_type_description
_atom_type_scat_dispersion_real
_atom_type_scat_dispersion_imag
_atom_type_scat_source
C C 0.0033 0.0016 'International Tables Vol C Tables 4.2.6.8 and 6.1.1.4'
H H 0.0000 0.0000 'International Tables Vol C Tables 4.2.6.8 and 6.1.1.4'
N N 0.0061 0.0033 'International Tables Vol C Tables 4.2.6.8 and 6.1.1.4'
O O 0.0106 0.0060 'International Tables Vol C Tables 4.2.6.8 and 6.1.1.4'
S S 0.1246 0.1234 'International Tables Vol C Tables 4.2.6.8 and 6.1.1.4'
loop_
_geom_angle_atom_site_label_1
_geom_angle_atom_site_label_2
_geom_angle_atom_site_label_3
_geom_angle
O2 S1 O1 119.92(16)
O2 S1 N1 107.80(14)
O1 S1 N1 105.96(14)
O2 S1 C1 107.66(15)
O1 S1 C1 107.38(15)
N1 S1 C1 107.58(14)
C6 C1 C2 119.1(3)
C6 C1 S1 120.0(3)
C2 C1 S1 120.9(3)
C3 C2 C1 119.7(4)
C3 C4 C5 117.7(4)
C3 C4 C7 121.2(4)
C5 C4 C7 121.1(4)
C1 C6 C5 119.8(4)
C4 C5 C6 121.7(4)
C4 C3 C2 122.0(4)
N1 C8 C9 109.3(3)
N1 C8 C27 110.0(2)
C9 C8 C27 112.0(3)
O3 C11 N2 121.2(3)
O3 C11 C10 120.2(3)
N2 C11 C10 118.6(3)
C11 N2 C14 125.1(3)
C11 N2 C13 119.2(3)
C14 N2 C13 115.6(3)
C10 C9 C8 124.6(3)
C9 C10 C11 121.2(3)
C15 N1 C8 120.3(2)
C15 N1 S1 119.1(2)
C8 N1 S1 119.8(2)
C15 C20 C19 117.7(4)
C15 C20 C21 121.3(3)
C19 C20 C21 120.9(3)
C16 C15 C20 121.2(3)
C16 C15 N1 118.9(3)
C20 C15 N1 119.9(3)
C18 C19 C20 121.3(4)
C15 C16 C17 118.9(4)
C18 C17 C16 120.0(4)
C17 C18 C19 120.9(4)
C22 C21 C26 118.6(3)
C22 C21 C20 121.2(3)
C26 C21 C20 120.2(3)
C23 C22 C21 121.2(4)
C25 C26 C21 119.1(3)
C25 C26 C27 121.5(3)
C21 C26 C27 119.3(3)
C26 C25 C24 121.5(4)
C22 C23 C24 120.5(4)
C23 C24 C25 119.1(4)
C26 C27 C8 112.5(3)
loop_
_geom_bond_atom_site_label_1
_geom_bond_atom_site_label_2
_geom_bond_distance
S1 O2 1.423(2)
S1 O1 1.425(2)
S1 N1 1.633(3)
S1 C1 1.747(3)
C1 C6 1.377(5)
C1 C2 1.378(4)
C2 C3 1.376(5)
C4 C3 1.367(5)
C4 C5 1.370(5)
C4 C7 1.512(6)
C6 C5 1.378(5)
C8 N1 1.488(4)
C8 C9 1.491(4)
C8 C27 1.536(4)
C11 O3 1.221(3)
C11 N2 1.346(4)
C11 C10 1.480(4)
N2 C14 1.435(4)
N2 C13 1.448(4)
C9 C10 1.306(4)
N1 C15 1.443(4)
C20 C15 1.390(5)
C20 C19 1.391(5)
C20 C21 1.467(5)
C15 C16 1.379(5)
C19 C18 1.361(6)
C16 C17 1.404(5)
C17 C18 1.353(6)
C21 C22 1.387(5)
C21 C26 1.398(4)
C22 C23 1.365(6)
C26 C25 1.376(5)
C26 C27 1.506(4)
C25 C24 1.377(5)
C23 C24 1.372(5)
