#------------------------------------------------------------------------------
#$Date: 2017-03-04 14:54:36 +0200 (Sat, 04 Mar 2017) $
#$Revision: 193364 $
#$URL: file:///home/coder/svn-repositories/cod/cif/1/54/54/1545442.cif $
#------------------------------------------------------------------------------
#
# This file is available in the Crystallography Open Database (COD),
# http://www.crystallography.net/
#
# All data on this site have been placed in the public domain by the
# contributors.
#
data_1545442
loop_
_publ_author_name
'Kaneda, Kyosuke'
'Naruse, Risa'
'Yamamoto, Syota'
_publ_section_title
;
 2-Aminobenzenesulfonamide-Containing Cyclononyne as Adjustable Click
 Reagent for Strain-Promoted Azide-Alkyne Cycloaddition.
;
_journal_issue                   5
_journal_name_full               'Organic letters'
_journal_page_first              1096
_journal_page_last               1099
_journal_paper_doi               10.1021/acs.orglett.7b00123
_journal_volume                  19
_journal_year                    2017
_chemical_formula_moiety         'C22 H25 N5 O4 S'
_chemical_formula_sum            'C22 H25 N5 O4 S'
_chemical_formula_weight         455.53
_space_group_crystal_system      monoclinic
_space_group_IT_number           15
_space_group_name_Hall           '-C 2yc'
_space_group_name_H-M_alt        'C 1 2/c 1'
_symmetry_space_group_name_Hall  '-C 2yc'
_symmetry_space_group_name_H-M   'C 1 2/c 1'
_atom_sites_solution_hydrogens   geom
_atom_sites_solution_primary     direct
_atom_sites_solution_secondary   difmap
_cell_angle_alpha                90.0000
_cell_angle_beta                 105.025(2)
_cell_angle_gamma                90.0000
_cell_formula_units_Z            8
_cell_length_a                   20.310(3)
_cell_length_b                   9.9126(15)
_cell_length_c                   22.301(4)
_cell_measurement_reflns_used    6208
_cell_measurement_temperature    93
_cell_measurement_theta_max      27.49
_cell_measurement_theta_min      3.15
_cell_volume                     4336.3(12)
_computing_cell_refinement       CrystalClear
_computing_data_collection       'CrystalClear (Rigaku Inc., 2008)'
_computing_data_reduction        CrystalClear
_computing_molecular_graphics    'CrystalStructure 4.2'
_computing_publication_material  'CrystalStructure 4.2 (Rigaku, 2015)'
_computing_structure_refinement  'SHELXL97 (Sheldrick, 2008)'
_computing_structure_solution    SIR97
_diffrn_ambient_temperature      93
_diffrn_detector_area_resol_mean 7.111
_diffrn_measured_fraction_theta_full 0.984
_diffrn_measured_fraction_theta_max 0.978
_diffrn_measurement_device_type  'Rigaku Saturn724'
_diffrn_measurement_method       \w
_diffrn_radiation_type           'Mo K\a'
_diffrn_radiation_wavelength     0.71075
_diffrn_reflns_av_R_equivalents  0.0484
_diffrn_reflns_Laue_measured_fraction_full 0.984
_diffrn_reflns_Laue_measured_fraction_max 0.978
_diffrn_reflns_limit_h_max       26
_diffrn_reflns_limit_h_min       -26
_diffrn_reflns_limit_k_max       12
_diffrn_reflns_limit_k_min       -12
_diffrn_reflns_limit_l_max       25
_diffrn_reflns_limit_l_min       -28
_diffrn_reflns_number            16734
_diffrn_reflns_point_group_measured_fraction_full 0.984
_diffrn_reflns_point_group_measured_fraction_max 0.978
_diffrn_reflns_theta_full        25.242
_diffrn_reflns_theta_max         27.490
_diffrn_reflns_theta_min         3.146
_diffrn_standards_number         0
_exptl_absorpt_coefficient_mu    0.190
_exptl_absorpt_correction_T_max  0.983
_exptl_absorpt_correction_T_min  0.879
_exptl_absorpt_correction_type   multi-scan
_exptl_absorpt_process_details   'REQAB (Rigaku, 1998)'
_exptl_crystal_colour            colorless
_exptl_crystal_density_diffrn    1.395
_exptl_crystal_density_method    'not measured'
_exptl_crystal_description       prism
_exptl_crystal_F_000             1920.00
_exptl_crystal_size_max          0.630
_exptl_crystal_size_mid          0.090
_exptl_crystal_size_min          0.090
_refine_diff_density_max         0.36
_refine_diff_density_min         -0.46
_refine_ls_extinction_method     none
_refine_ls_goodness_of_fit_ref   1.054
_refine_ls_hydrogen_treatment    mixed
_refine_ls_number_parameters     293
_refine_ls_number_reflns         4870
_refine_ls_number_restraints     0
_refine_ls_R_factor_all          0.0478
_refine_ls_R_factor_gt           0.0417
_refine_ls_shift/su_max          0.001
_refine_ls_structure_factor_coef Fsqd
_refine_ls_weighting_details
'w = 1/[\s^2^(Fo^2^)+(0.0537P)^2^+4.0162P] where P=(Fo^2^+2Fc^2^)/3'
_refine_ls_weighting_scheme      calc
_refine_ls_wR_factor_gt          0.1032
_refine_ls_wR_factor_ref         0.1084
_reflns_Friedel_coverage         0.000
_reflns_number_gt                4281
_reflns_number_total             4870
_reflns_threshold_expression     F^2^>2.0\s(F^2^)
_cod_data_source_file            ol7b00123_si_003.cif
_cod_data_source_block           v16121002
_cod_original_cell_volume        4336.1(12)
_cod_database_code               1545442
_shelxl_version_number           2013-2
_shelx_res_file
;
TITL v16121002
CELL  0.71075 20.30950 9.91260 22.30080 90.00000 105.02500 90.00000
ZERR  8 0.00340 0.00150 0.00360 0.00000 0.00240 0.00000
LATT 7
SYMM    -X,    +Y, .50-Z
SFAC C H N O S
UNIT 176 200 40 32 8
L.S. 5
FMAP 2
PLAN 25
WPDB -2
HTAB
BOND $H
CONF
LIST 4
TEMP -179.8
ACTA
SIZE 0.630 0.090 0.090
WGHT    0.053700    4.016200
FVAR       1.26682
S32   5    0.855419   -0.115449    0.707213    11.00000    0.01366    0.01323 =
         0.01259   -0.00151    0.00357    0.00048
O28   4    0.919316   -0.089402    0.752176    11.00000    0.01693    0.01739 =
         0.01266   -0.00184    0.00219    0.00005
O29   4    0.798712   -0.157156    0.729235    11.00000    0.01826    0.02120 =
         0.01922   -0.00216    0.00900   -0.00109
O30   4    0.837947   -0.419933    0.599937    11.00000    0.01594    0.01638 =
         0.02538   -0.00686    0.00306   -0.00004
O31   4    0.763018   -0.256349    0.609674    11.00000    0.01238    0.01505 =
         0.01821   -0.00293    0.00039   -0.00002
N23   3    0.874004   -0.235879    0.660781    11.00000    0.01095    0.01243 =
         0.01334   -0.00158    0.00241    0.00068
N24   3    0.949986    0.036901    0.646954    11.00000    0.01663    0.01390 =
         0.01455    0.00137    0.00406    0.00041
N25   3    1.022646   -0.171827    0.540884    11.00000    0.02194    0.01894 =
         0.01544    0.00090    0.00651    0.00259
N26   3    1.022546   -0.304695    0.537336    11.00000    0.02409    0.01967 =
         0.01385    0.00142    0.00715    0.00250
N27   3    0.991895   -0.351307    0.579844    11.00000    0.01638    0.01548 =
         0.01132   -0.00038    0.00276    0.00198
C1    1    0.833692    0.024313    0.658001    11.00000    0.01660    0.01124 =
         0.01346   -0.00216    0.00087    0.00105
C2    1    0.882715    0.079085    0.630361    11.00000    0.01850    0.01113 =
         0.01379   -0.00399    0.00180   -0.00073
C3    1    0.861044    0.183574    0.587079    11.00000    0.02578    0.01407 =
         0.01504   -0.00135    0.00101   -0.00055
AFIX  43
H3    2    0.891918    0.220842    0.566034    11.00000   -1.20000
AFIX   0
C4    1    0.795161    0.232453    0.574930    11.00000    0.03030    0.01388 =
         0.01926    0.00023   -0.00457    0.00388
AFIX  43
H4    2    0.781932    0.304959    0.546496    11.00000   -1.20000
AFIX   0
C5    1    0.747792    0.178074    0.603314    11.00000    0.02076    0.02061 =
         0.02720   -0.00424   -0.00356    0.00744
AFIX  43
H5    2    0.702795    0.213301    0.594450    11.00000   -1.20000
AFIX   0
C6    1    0.766750    0.072410    0.644502    11.00000    0.01773    0.01847 =
         0.02374   -0.00487    0.00324    0.00298
AFIX  43
H6    2    0.734623    0.032774    0.663484    11.00000   -1.20000
AFIX   0
C7    1    0.945278   -0.278407    0.667472    11.00000    0.01177    0.01267 =
         0.01328    0.00082    0.00223    0.00126
AFIX  23
H7A   2    0.948595   -0.376633    0.675733    11.00000   -1.20000
H7B   2    0.974657   -0.232509    0.704187    11.00000   -1.20000
AFIX   0
C8    1    0.972832   -0.249562    0.612235    11.00000    0.01149    0.01383 =
         0.01150   -0.00106    0.00041    0.00144
C9    1    0.992818   -0.134647    0.586478    11.00000    0.01458    0.01679 =
         0.01289    0.00097    0.00293    0.00062
C10   1    0.989739    0.012593    0.602368    11.00000    0.02132    0.01507 =
         0.02002    0.00091    0.01000   -0.00154
AFIX  23
H10A  2    1.036673    0.046564    0.619656    11.00000   -1.20000
H10B  2    0.969414    0.063824    0.563915    11.00000   -1.20000
AFIX   0
C11   1    0.823463   -0.315044    0.620767    11.00000    0.01350    0.01440 =
         0.01272    0.00148    0.00246   -0.00189
C12   1    0.698959   -0.335239    0.584637    11.00000    0.01097    0.01870 =
         0.02018   -0.00239    0.00124   -0.00303
C13   1    0.645165   -0.227795    0.580588    11.00000    0.01425    0.02516 =
         0.03707   -0.00385    0.00063    0.00133
AFIX  33
H13A  2    0.651760   -0.156009    0.552492    11.00000   -1.20000
H13B  2    0.649010   -0.189973    0.621956    11.00000   -1.20000
H13C  2    0.599848   -0.267747    0.564690    11.00000   -1.20000
AFIX   0
C14   1    0.694963   -0.443520    0.631712    11.00000    0.01824    0.03055 =
         0.03276    0.00782    0.00414   -0.00391
AFIX  33
H14A  2    0.734503   -0.503469    0.637652    11.00000   -1.20000
H14B  2    0.653033   -0.495945    0.616524    11.00000   -1.20000
H14C  2    0.694772   -0.401040    0.671348    11.00000   -1.20000
AFIX   0
C15   1    0.695840   -0.393495    0.521025    11.00000    0.02098    0.03362 =
         0.02239   -0.00857    0.00005   -0.00364
AFIX  33
H15A  2    0.731177   -0.462630    0.524812    11.00000   -1.20000
H15B  2    0.703413   -0.321430    0.493475    11.00000   -1.20000
H15C  2    0.650917   -0.434042    0.503711    11.00000   -1.20000
AFIX   0
C16   1    0.990676   -0.496115    0.591708    11.00000    0.02062    0.01148 =
         0.01560   -0.00234    0.00341    0.00115
AFIX  23
H16A  2    1.001168   -0.545746    0.556784    11.00000   -1.20000
H16B  2    0.944299   -0.522454    0.593784    11.00000   -1.20000
AFIX   0
C17   1    1.041432   -0.535957    0.651612    11.00000    0.01506    0.01471 =
         0.01474   -0.00185    0.00583    0.00272
C18   1    1.096467   -0.455005    0.681122    11.00000    0.01771    0.01403 =
         0.01739   -0.00024    0.00562    0.00073
AFIX  43
H18   2    1.102371   -0.369171    0.664292    11.00000   -1.20000
AFIX   0
C19   1    1.142683   -0.499027    0.734931    11.00000    0.01740    0.02241 =
         0.01783   -0.00388    0.00219    0.00021
AFIX  43
H19   2    1.179545   -0.442525    0.755154    11.00000   -1.20000
AFIX   0
C20   1    1.135239   -0.625341    0.759311    11.00000    0.02393    0.02784 =
         0.01792    0.00484    0.00089    0.00486
AFIX  43
H20   2    1.167469   -0.656383    0.795568    11.00000   -1.20000
AFIX   0
C21   1    1.080377   -0.705730    0.730284    11.00000    0.03037    0.02167 =
         0.02586    0.00920    0.00524   -0.00072
AFIX  43
H21   2    1.074915   -0.792016    0.746901    11.00000   -1.20000
AFIX   0
C22   1    1.033477   -0.661162    0.677240    11.00000    0.02156    0.01760 =
         0.02118    0.00020    0.00527   -0.00283
AFIX  43
H22   2    0.995595   -0.716372    0.658184    11.00000   -1.20000
AFIX   0
H33   2    0.965629   -0.006401    0.684062    11.00000    0.02320
HKLF 4

REM  v16121002
REM R1 =  0.0417 for    4281 Fo > 4sig(Fo)  and  0.0478 for all    4870 data
REM    293 parameters refined using      0 restraints

END

WGHT      0.0537      4.0161

REM Instructions for potential hydrogen bonds
HTAB C7 O28
EQIV $1 -x+2, y, -z+3/2
HTAB C7 O28_$1
EQIV $2 -x+2, -y, -z+1
HTAB C10 N25_$2
HTAB C14 O30
HTAB C15 O30
EQIV $3 -x+2, -y-1, -z+1
HTAB C16 N26_$3
HTAB C16 O30
HTAB N24 O28
HTAB N24 O28_$1

REM Highest difference peak  0.359,  deepest hole -0.459,  1-sigma level  0.057
Q1    1   0.8441 -0.0346  0.6814  11.00000  0.05    0.36
Q2    1   0.6741 -0.2839  0.5869  11.00000  0.05    0.35
Q3    1   0.8720  0.1231  0.6008  11.00000  0.05    0.35
Q4    1   1.0675 -0.4967  0.6692  11.00000  0.05    0.30
Q5    1   0.8047  0.0252  0.6396  11.00000  0.05    0.30
Q6    1   0.8066  0.0592  0.6559  11.00000  0.05    0.30
Q7    1   0.8581  0.0543  0.6478  11.00000  0.05    0.29
Q8    1   0.6983 -0.3864  0.6098  11.00000  0.05    0.29
Q9    1   0.9090  0.0554  0.6343  11.00000  0.05    0.28
Q10   1   0.9664  0.0200  0.6224  11.00000  0.05    0.28
Q11   1   0.9529 -0.2583  0.6320  11.00000  0.05    0.28
Q12   1   0.9896 -0.1886  0.6087  11.00000  0.05    0.28
Q13   1   0.6989 -0.3776  0.5566  11.00000  0.05    0.27
Q14   1   1.0330 -0.5775  0.6719  11.00000  0.05    0.27
Q15   1   0.8274  0.1955  0.5777  11.00000  0.05    0.26
Q16   1   1.0009 -0.1440  0.5627  11.00000  0.05    0.26
Q17   1   1.0178 -0.5134  0.6255  11.00000  0.05    0.25
Q18   1   0.7613  0.1762  0.5746  11.00000  0.05    0.25
Q19   1   0.9851 -0.0825  0.5936  11.00000  0.05    0.25
Q20   1   0.7626  0.1394  0.6301  11.00000  0.05    0.25
Q21   1   0.9897 -0.4236  0.5844  11.00000  0.05    0.25
Q22   1   0.8140 -0.1460  0.7102  11.00000  0.05    0.24
Q23   1   0.8523 -0.2604  0.6338  11.00000  0.05    0.24
Q24   1   0.9130 -0.2489  0.6669  11.00000  0.05    0.23
Q25   1   1.1080 -0.4674  0.7185  11.00000  0.05    0.23
;
_shelx_res_checksum              644
_shelx_hkl_file
;
   0   0   5   11.07    5.84
   0   0  -5   16.18   10.01
   0   0  -5    9.02   14.18
   0   0   5   13.65   11.56
   0   0   7   11.49    7.78
   0   0  -7    8.02    6.78
   0   0  -7   10.60   13.54
   0   0   7   11.95   12.56
   0   0   816460.42  369.82
   0   0  -815792.48  353.12
   0   0   816179.19  367.01
   0   0   9   11.79    7.94
   0   0  -9    2.14    9.50
   0   0  -9   10.25   13.38
   0   0   9   26.91   27.20
   0   0  10  283.62   21.95
   0   0 -10  336.58   16.40
   0   0 -10  304.95   74.23
   0   0  10  314.42   64.07
   0   0  11    1.89   15.54
   0   0 -11    7.43    9.01
   0   0 -11   -0.79   20.08
   0   0  11   21.06   18.87
   0   0  1218436.98  447.58
   0   0 -1219032.12  457.69
   0   0  13   16.52    9.97
   0   0  13   13.02    9.63
   0   0 -13    7.20   18.19
   0   0  13    8.54   20.39
   0   0  14 3496.00  203.71
   0   0  14 3762.59  135.02
   0   0 -14 4005.83  177.60
   0   0  14 3800.06  142.81
   0   0  15   -1.21    4.96
   0   0  15    0.46    5.85
   0   0 -15   14.58   18.80
   0   0  15    4.69   13.37
   0   0  1621943.74  527.73
   0   0  1623166.59  560.84
   0   0 -1622816.66  566.16
   0   0  17    8.19    6.87
   0   0  17    9.91    7.41
   0   0 -17   19.05   18.72
   0   0  18 2453.87  135.53
   0   0 -18 2300.53  136.87
   0   0  19    3.84    5.16
   0   0 -19   14.37   30.86
   0   0 -20 1081.57   47.99
   0   0 -21   30.98   24.49
   0   0 -22  843.70   44.54
   0   0 -23   12.32   31.34
   0   0 -24 5976.14  462.58
   0   2   010188.50  243.10
   0   2   010499.37  239.64
   0  -2   010436.55  243.68
   0  -2   010542.76  241.17
   0   2  -1 7331.77  174.60
   0   2  -1 7805.23  182.59
   0   2   1 7855.03  179.99
   0  -2   1 7264.34  184.93
   0  -2   1 7332.57  172.76
   0   2   241240.08  160.31
   0   2  -4  701.80   53.24
   0   2   4  669.46   59.06
   0   2  -4  709.44  356.93
   0  -2  -4  735.37   57.91
   0  -2   4  712.77   52.83
   0  -2   4  753.80   68.29
   0   2  -629055.03  708.55
   0  -2  -628536.93  642.09
   0  -2   630902.19  695.58
   0   2  -7 1791.56  120.29
   0   2   7 1452.36  106.20
   0   2   7 1699.87  114.33
   0   2  -7 1233.75  153.85
   0  -2  -7 1710.58  121.69
   0  -2   7 1510.33  108.67
   0  -2   7 1568.34  106.03
   0   2   816844.32  390.11
   0   2  -817319.18  403.98
   0  -2  -817042.29  377.58
   0   2   9   23.30   15.60
   0   2   9   17.85    9.42
   0   2  -9    7.66   35.57
   0  -2  -9   32.39   11.94
   0  -2   9    7.55   28.38
   0  -2  -9   20.56   14.48
   0   2  10 5413.09  263.55
   0   2 -10 6932.10  337.78
   0   2  10 5608.00  263.81
   0  -2 -10 6089.51  299.38
   0  -2 -10 6113.82  288.76
   0   2  11  341.97   77.70
   0   2  11  266.16   19.05
   0  -2 -11  275.51   28.22
   0  -2 -11  211.06   58.73
   0   2  12   25.01   20.31
   0   2 -12   28.13   12.13
   0   2  12   31.74   12.01
   0  -2 -12   17.65   22.75
   0  -2 -12   12.76    8.74
   0   2  13 5004.01  186.12
   0   2 -13 4835.04  185.65
   0   2  13 5147.16  179.33
   0  -2 -13 4873.78  188.96
   0  -2 -13 5557.27  196.65
   0   2  14 3655.49  181.41
   0   2 -14 3701.56  187.72
   0   2  14 3120.03  147.62
   0  -2 -14 3999.89  194.25
   0  -2 -14 3120.20  153.27
   0   2  15  634.59   73.56
   0   2 -15  796.25  111.52
   0   2  15  612.38   42.84
   0  -2 -15  687.63   56.58
   0  -2 -15  741.13   56.77
   0   2  16   95.86   38.64
   0   2  16  101.72   27.86
   0   2 -16   56.27   34.13
   0  -2 -16  115.24   34.49
   0   2  17  774.64   80.72
   0   2  17 1083.22   33.07
   0   2 -17  936.01  136.94
   0  -2 -17 1011.50   36.77
   0   2  18 5087.96  295.53
   0   2 -18 5616.30  324.23
   0  -2 -18 5342.33  298.60
   0   2  19  556.35   62.01
   0   2 -19  494.01  158.24
   0  -2 -19  607.71   46.94
   0   2  20 8119.80  325.24
   0   2 -20 7026.34  289.91
   0  -2 -20 8227.01  316.18
   0   2  21 3909.22  290.53
   0   2 -21 3386.98  260.73
   0   2 -22  758.64  119.64
   0   2 -23 2971.09  188.64
   0   2 -24 3702.03  297.98
   0   2 -25 1396.32  180.07
   0   2 -26 4292.59  245.31
   0   4   0 2080.13   55.56
   0   4   0 2139.52   45.27
   0  -4   0 2077.15  113.92
   0   4   113160.89  362.15
   0   4  -113246.82  324.66
   0   4   114134.47  326.01
   0   4  -113698.21  319.45
   0  -4   114555.22  339.73
   0  -4  -115801.84  369.94
   0  -4   115066.79  350.94
   0  -4  -115155.04  349.58
   0   4  -2 5644.04  146.00
   0   4   2 5753.58  154.67
   0   4   2 5847.54  145.79
   0   4  -2 5732.45  148.68
   0  -4   2 6236.60  156.47
   0  -4  -2 6294.83  162.19
   0  -4  -2 5974.84  157.72
   0  -4   2 6297.12  171.19
   0   4   3  641.21  321.42
   0   4   3  681.98   25.74
   0   4  -3  739.94   51.57
   0  -4   3  614.21   31.08
   0  -4  -3  685.01   38.24
   0  -4  -3  626.45   28.12
   0  -4   3  662.73   32.49
   0   4  -483979.38  302.58
   0   4  -515797.33  409.13
   0   4   515771.79  540.50
   0   4  -517390.70  578.16
   0   4   516738.66  419.66
   0  -4   517945.49  456.77
   0  -4  -517153.27  430.88
   0   4  -6 5738.70  280.65
   0   4   6 4926.72  245.05
   0   4  -6 4869.68  290.22
   0   4   6 5652.15  267.50
   0  -4   6 5705.78  274.83
   0  -4  -6 5428.05  258.77
   0   4  -7 4919.72  236.62
   0   4   7 4115.21  208.20
   0   4  -7 4667.71  255.56
   0  -4   7 5260.13  259.29
   0  -4  -7 4873.58  230.92
   0  -4  -7 4692.44  221.07
   0   4  -8 1885.72  103.18
   0   4   8 2058.50  125.85
   0   4  -8 1836.50  177.58
   0  -4   8 2040.53  103.47
   0  -4  -8 1973.90   93.41
   0  -4  -8 1953.65   91.74
   0   4  -910029.50  248.66
   0   4   910176.69  273.04
   0   4  -910920.62  292.45
   0  -4   9 9645.13  244.30
   0   4 -10 4446.14  157.60
   0   4  10 4173.84  166.11
   0   4 -10 4877.68  191.23
   0  -4  10 4612.55  164.84
   0   4 -11   20.31    9.22
   0   4  11   38.36   18.96
   0   4 -11    1.18   34.55
   0  -4  11   32.04   10.08
   0   4 -12 5419.79   24.83
   0   4  12 4966.86  248.10
   0   4 -12 5314.08  267.38
   0  -4  12 5270.29  243.91
   0   4  13 1256.46   96.70
   0   4 -13 1030.08   93.56
   0   4  14 3322.01  258.00
   0   4 -14 3912.57  240.98
   0   4  15   43.42   25.21
   0   4 -15   52.34   40.40
   0   4  16  490.70  113.45
   0   4 -16  434.91   92.32
   0   4 -17  523.12  134.49
   0   4  18 9464.28  375.80
   0   4 -18 9158.30  373.71
   0   4  19  334.13  104.26
   0   4 -19  368.23  176.96
   0   4  20   31.42   38.61
   0   4 -20   26.97   18.60
   0   4  21 1080.53  113.38
   0   4 -21 1227.80  115.06
   0   4  22   39.16   41.45
   0   4 -22    7.63   22.93
   0   4 -23 8973.12  649.72
   0   4 -24 5230.44  295.83
   0   4 -25  700.84  253.69
   0   4 -26 6181.29  352.11
   0   6   0  142.70   77.83
   0   6   0   78.23   28.32
   0   6   145912.30 1121.16
   0   6  -145107.96 1100.14
   0   6   146923.94 1145.38
   0   6  -144410.68 1077.90
   0   6  -2 2454.32  132.88
   0   6   2 2725.37  148.24
   0   6   2 2759.40  148.81
   0   6  -2 2570.37  136.55
   0  -6  -2 2495.90  146.34
   0   6   3   10.85   37.85
   0   6   3   16.68   16.31
   0   6  -3   38.02   53.49
   0  -6  -3    7.35   13.91
   0   6  -4 2166.46  151.37
   0   6   4 2243.27  146.94
   0   6   4 2336.47  142.49
   0   6  -4 2346.94  150.33
   0  -6  -4 2638.60  160.01
   0   6  -5  206.37   95.53
   0   6   5  374.58  164.20
   0   6   5  255.39   28.79
   0   6  -5  311.34   93.42
   0  -6  -5  220.86   23.49
   0   6  -6 3513.55  212.54
   0   6   6 3805.36  158.10
   0   6   6 3612.57  215.81
   0   6  -6 3529.30  219.03
   0  -6  -6 3761.75  138.55
   0   6  -7  398.94   95.12
   0   6   7  369.21  164.87
   0   6   7  330.72   43.89
   0   6  -7  279.60  120.18
   0  -6  -7  468.62   35.90
   0   6  -8 4220.26  208.59
   0   6   8 4006.88  208.82
   0   6  -8 4016.12  268.84
   0   6   8 4305.77  202.43
   0  -6   8 3928.08  205.09
   0  -6  -8 4505.41  212.62
   0   6  -9  638.19   53.94
   0   6   9  823.72   77.38
   0   6  -9  711.55   71.27
   0  -6   9  710.44   56.18
   0  -6  -9  760.88   53.62
   0  -6  -9  786.03   56.62
   0   6 -10    1.81   24.47
   0   6  10   12.02   36.69
   0   6 -10    2.53   25.60
   0  -6  10    9.29   14.65
   0  -6 -10   10.95    8.98
   0  -6 -10   19.39    4.91
   0   6 -11 2896.51  202.04
   0   6  11 2795.15  226.60
   0   6 -11 2654.24  197.65
   0  -6  11 2950.51  207.92
   0   6 -12 1442.55   53.84
   0   6  12 1476.67  300.79
   0   6 -12 1438.92  203.70
   0  -6  12 1373.80   42.88
   0   6 -13  734.30   46.42
   0   6  13  841.39  120.56
   0   6 -13  968.83  260.15
   0   6 -14  284.63   28.53
   0   6  14  498.44  144.09
   0   6 -14  395.13  115.83
   0   6  15    9.84   19.17
   0   6 -15   48.16   32.94
   0   6  16 3075.55  220.34
   0   6 -16 3039.60  221.06
   0   6  17   70.04   32.61
   0   6 -17   69.47   56.36
   0   6  18   60.42   62.65
   0   6 -18   81.53   42.71
   0   6  19 1692.39  186.17
   0   6 -19 1777.76  160.11
   0   6  20  706.96   87.12
   0   6 -20  705.21  126.67
   0   6  21  350.54  157.58
   0   6 -21  166.18  106.29
   0   6  22 9917.21  537.82
   0   6 -22 9041.67  491.75
   0   6  23 1919.60   92.57
   0   6 -23 1618.76  227.49
   0   6 -24   25.42   60.48
   0   8   0 2153.15  166.76
   0   8   0 2479.44  226.24
   0   8  -1 1775.24  141.18
   0   8   1 1949.59  156.43
   0   8   1 1725.46  129.54
   0   8  -1 1655.69  127.31
   0   8   2 4391.63  316.94
   0   8  -2 3791.89  274.49
   0   8   2 4384.15  307.93
   0   8  -2 4433.37  315.50
   0   8  -3 1086.73   64.06
   0   8   3 1303.42   96.03
   0   8  -3 1288.02  140.65
   0   8  -4  967.57  130.11
   0   8   4  969.33   65.47
   0   8   4 1138.24   50.11
   0   8  -4 1188.45  112.24
   0   8  -5   49.53   51.99
   0   8   5  -24.55   47.35
   0   8   5   12.82   18.45
   0   8  -5   57.13   41.52
   0   8  -6 2064.26  119.99
   0   8   6 2226.63   57.80
   0   8  -6 2048.02  117.68
   0   8  -7 1233.63  128.65
   0   8   7 1045.93   85.61
   0   8   7 1157.51   72.90
   0   8  -7 1301.71   88.31
   0   8  -8 1177.14   86.48
   0   8   8 1543.81  168.43
   0   8   8 1263.45   85.68
   0   8  -8 1472.87  213.76
   0   8  -9 1829.33  122.47
   0   8   9 1765.50  135.94
   0   8  -9 1292.15   99.42
   0   8 -10 7848.70  309.39
   0   8  10 9075.07  374.14
   0   8 -10 8315.99  343.03
   0  -8 -10 8789.39  331.69
   0   8 -11  426.46   39.23
   0   8  11  315.94  105.76
   0   8 -11  398.96  223.40
   0   8 -12  373.40   48.00
   0   8  12  369.72  137.46
   0   8 -12  386.78  163.10
   0   8 -13   15.49   31.58
   0   8  13  115.21   66.33
   0   8 -13   75.11   39.72
   0   8  14 1261.65  191.52
   0   8 -14 1224.22  118.21
   0   8  15 1176.86   69.91
   0   8 -15 1038.22  336.61
   0   8  16 1263.28  124.44
   0   8 -16 1374.02  137.58
   0   8  17  491.64  234.57
   0   8 -17  567.89  177.75
   0   8  18  749.31  153.65
   0   8 -18  980.23  145.02
   0   8 -19 1024.95  122.36
   0   8  20  683.23   81.95
   0   8 -20  710.75  147.73
   0   8  21 1404.01  283.23
   0   8 -21 1706.68  159.43
   0  10   0   32.58   37.49
   0  10   0   68.41   49.31
   0  10   1 4109.55  175.65
   0  10  -1 3612.23  112.34
   0  10   1 3655.26  111.81
   0  10   2  171.93   97.91
   0  10  -2  152.57   49.72
   0  10   2  270.01  110.83
   0  10  -2  306.65  177.62
   0  10  -3  464.12  208.27
   0  10   3  536.32  259.65
   0  10   3  532.67   90.35
   0  10  -3  491.90  180.94
   0  10  -4 7273.47  271.01
   0  10   4 6659.68  264.30
   0  10   4 7243.25  257.95
   0  10  -4 6826.97  300.67
   0  10  -5   38.84   42.43
   0  10   5   37.85   28.57
   0  10   5   17.68   27.27
   0  10  -5   -3.86   47.86
   0  10  -6 1310.37  120.68
   0  10   6 1322.65  127.95
   0  10   6 1272.33  110.53
   0  10  -6 1335.06  167.88
   0  10  -7 3279.76  187.03
   0  10   7 2652.55  226.15
   0  10  -7 2913.06  211.74
   0  10  -8  319.44  107.72
   0  10   8  205.99  139.79
   0  10  -8  139.11   60.83
   0  10  -9 1945.21  184.44
   0  10   9 1781.69  307.75
   0  10  -9 1780.65  154.73
   0  10 -10  531.52   71.39
   0  10  10  647.82  276.33
   0  10 -10  196.92  121.88
   0  10 -11 3084.18  245.97
   0  10  11 3765.49  316.56
   0  10 -11 3560.65  297.91
   0  10  12 1498.71  320.08
   0  10 -12 1756.93  159.39
   0  10  13 2089.82  391.57
   0  10 -13 2857.25  218.65
   0  10  14  197.35  127.39
   0  10 -14  126.82  105.88
   0  10  15 2997.49  196.43
   0  10 -15 3812.47  236.96
   0  10  16  393.42  124.50
   0  10 -16  191.32  127.66
   0  10  17  104.56   85.74
   0  10 -17   54.92   78.53
   0  12   0 1380.83  137.44
   0  12   0 1488.96  204.59
   0  12   1   77.86   60.82
   0  12  -1  100.58   60.35
   0  12   1   82.41   90.27
   0  12  -1  134.77   57.33
   0  12  -2 2311.62  160.14
   0  12   2 2609.21  175.43
   0  12   2 2319.56  146.65
   0  12  -2 2199.71  172.88
   0  12   3 1226.27  170.58
   0  12  -3 1490.59   93.96
   0  12  -3 1344.02   80.92
   0  12  -4 2603.98  221.00
   0  12   4 2672.40  221.06
   0  12  -4 2536.36  165.26
   0  12  -5   39.30   29.66
   0  12   5  -29.88   59.53
   0  12  -6 4986.63  349.68
   0  12   6 5681.79  392.67
   0  12  -6 5672.70  384.83
   0  12  -7  125.18  113.41
   0  12   7  161.08   72.72
   0  12  -7  106.25   78.60
   0  12  -8 2419.67  179.08
   0  12   8 2643.59  205.22
   0  12  -8 2211.46  289.55
   0  12  -9  105.24   90.14
   0  12   9  207.53  142.15
   0  12  -9  119.27  109.07
   0  12  10  156.32   83.40
   0  12 -10  230.46   93.11
   1   1 -25 1854.69  146.78
   1   1 -24 2316.18  190.92
   1   1 -23 7371.42  384.24
   1   1 -22 2421.95  183.66
   1  -1 -22 2512.69  185.97
   1   1 -21 1107.39   55.88
   1  -1 -21 1101.67   94.50
  -1   1  20  920.94   52.88
   1   1 -20 1034.42   86.52
   1  -1 -20  979.73   40.74
  -1   1  19  247.08   43.61
   1   1 -19  337.49   99.27
   1  -1 -19  285.28   90.55
   1  -1 -19  172.23   50.20
  -1   1  18  260.35   76.35
   1   1 -18  267.11   79.95
  -1   1  18  219.51   73.21
   1  -1 -18  310.87   45.70
   1  -1 -18  308.11   90.28
  -1   1  17 3700.70  256.30
   1   1 -17 3685.99  260.32
  -1   1  17 3647.63  252.63
   1  -1 -17 3817.91  263.69
   1  -1 -17 3459.37  248.16
  -1   1  16  796.33   66.21
   1   1 -16  728.40   64.05
  -1   1  16  817.49   66.81
   1  -1 -16  817.16   62.68
   1  -1 -16  915.88   68.89
  -1   1  15 3166.15  157.97
   1   1 -15 2941.87  172.68
  -1   1  15 2959.90  163.69
   1  -1 -15 2814.33  144.07
   1  -1 -15 2806.08  143.85
  -1   1  14 2312.38  162.06
   1   1 -14 2281.38  144.03
  -1   1  14 2555.98  158.25
   1  -1 -14 2204.21  137.49
   1  -1 -14 2653.86  163.60
  -1   1  13   94.62   37.51
   1   1 -13   60.09   65.31
  -1   1  13   83.65   30.95
   1  -1 -13  106.05   21.62
   1  -1 -13   85.34   30.46
  -1   1  12  309.36   64.77
  -1   1  12  211.06   34.07
   1   1 -12  254.33   80.24
   1  -1 -12  314.48   34.52
  -1  -1  12  228.35   20.18
   1  -1 -12  276.01   34.26
  -1   1  11 4774.08  230.52
  -1   1  11 4525.40  218.93
   1   1 -11 3750.73  187.20
   1  -1 -11 4117.40  205.28
  -1  -1  11 5255.84  256.15
   1  -1 -11 5160.48  249.98
  -1   1  10  127.11   39.40
  -1   1  10  151.81   55.80
   1  -1 -10  167.84   44.15
  -1  -1  10  122.75   30.40
   1  -1 -10  137.98   42.09
  -1   1   921314.00  484.42
  -1   1   921967.80  491.18
   1  -1  -922225.01  500.88
  -1  -1   921740.01  494.55
   1  -1  -921586.68  484.06
  -1   1   8 8472.55  198.72
  -1   1   8 8680.67  197.92
   1   1  -8 7735.36  188.69
   1  -1  -8 8289.34  191.53
  -1  -1   8 8989.34  214.44
   1  -1  -8 8895.64  208.39
   1   1  -7 1126.30   83.88
  -1   1   7 1179.70   81.34
  -1  -1   7 1229.02   89.05
  -1   1   6 5934.33  161.48
   1   1  -6 5770.95  142.45
  -1   1   6 5965.72  136.78
   1  -1  -6 5482.31  132.43
  -1  -1   6 6292.71  154.35
  -1   1   510643.89  243.61
   1   1  -5 9394.31  219.61
   1  -1  -511231.20  257.49
  -1  -1   5 9972.55  237.71
   1  -1  -511257.41  251.63
  -1   1   3 4662.21  111.71
  -1   1   3 4484.71  101.25
   1   1  -3 4563.30  103.36
   1   1  -3 4317.29  104.95
   1  -1  -3 4013.24   97.98
  -1  -1   3 4205.87  220.62
   1  -1  -3 4518.78  102.50
  -1  -1   3 4543.27  102.37
  -1  -1  -2 9852.33  223.54
   1   1   5  479.13   49.03
  -1   1  -5  471.12   54.22
   1   1   5  507.94   36.99
   1  -1   5  516.12   38.01
  -1  -1  -5  470.67   38.94
   1  -1   5  583.50   67.37
   1   1   6 7313.80  175.14
  -1   1  -6 7627.60  184.32
   1   1   6 8810.30  199.08
  -1  -1  -6 8363.37  200.44
   1  -1   6 7576.03  192.31
   1   1   7 8331.07  202.77
   1   1   710124.55  228.85
  -1   1  -7 8358.42  210.65
  -1  -1  -7 9399.53  213.57
   1  -1   7 8867.79  213.01
   1  -1   7 9759.20  217.30
   1   1   8 8044.94  197.83
   1   1   8 8314.04  190.63
  -1   1  -8 7650.97  200.50
   1  -1   8 8710.03  196.12
  -1  -1  -8 7962.79  182.63
   1  -1   8 8345.61  200.82
  -1  -1  -8 8339.51  196.36
   1   1   916767.83  425.25
   1   1   917027.10  427.01
  -1  -1  -918565.56  467.23
  -1  -1  -918792.47  498.79
   1  -1   920473.60  521.76
   1  -1   919010.90  471.52
   1   1  10  765.29   53.81
   1   1  10  734.23   44.84
  -1   1 -10  654.18   55.77
   1  -1  10  665.85    8.84
   1  -1  10  677.55   31.01
  -1  -1 -10  665.73   28.30
   1  -1  10  653.63   35.92
  -1  -1 -10  702.60   43.30
   1   1  11 6720.70  170.86
   1   1  11 6129.16  162.35
  -1   1 -11 6856.94  184.26
   1  -1  11 6248.90  150.02
  -1  -1 -11 6336.50  257.94
  -1  -1 -11 6693.09  170.88
   1  -1  11 7246.51  178.37
   1   1  1232672.51  791.37
   1   1  1234704.49  835.95
  -1   1 -1234770.85  845.22
  -1  -1 -1233543.74  807.39
   1  -1  1235532.26  863.46
  -1  -1 -1236948.01  887.89
   1   1  13 1171.55   90.68
  -1   1 -13 1086.72   87.28
   1   1  13 1185.42   74.54
  -1  -1 -13 1269.15   87.27
   1  -1  13 1186.06   69.09
   1  -1  13 1137.90   69.71
  -1  -1 -13 1086.27   70.90
   1   1  14 4093.51  164.66
  -1   1 -14 3970.04  160.33
   1   1  14 4241.34  154.34
  -1  -1 -14 4040.16  152.89
   1  -1  14 3657.88   19.53
   1  -1  14 3805.49  132.46
  -1  -1 -14 3752.78  144.26
   1   1  15   30.13   23.09
   1   1  15   30.83   24.68
  -1   1 -15   19.59   24.51
  -1  -1 -15    5.37   16.67
   1  -1  15    9.41    4.83
   1   1  16  739.35   56.41
   1   1  16  772.70   67.04
   1   1  16  564.91   47.18
  -1   1 -16  802.66   67.97
  -1  -1 -16  807.48   62.32
   1   1  17 5181.06  224.32
   1   1  17 6132.25  264.86
   1   1  17 5687.03  242.21
  -1   1 -17 6262.31  285.09
  -1  -1 -17 6101.08  269.21
   1   1  18 5253.81  289.47
  -1   1 -18 5920.93  331.94
  -1  -1 -18 5737.34  323.02
   1   1  19 4723.64  308.17
  -1   1 -19 4301.31  288.07
  -1  -1 -19 5271.43  344.73
   1   1  20 3920.93  158.95
  -1   1 -20 3459.13  156.68
  -1  -1 -20 3657.45  152.02
  -1   1 -21 5749.80  356.29
  -1  -1 -21 6091.40  338.60
  -1   1 -22 1920.78  185.12
  -1  -1 -22 1303.30  112.19
  -1   1 -23 6153.57  363.02
  -1   1 -24  308.38  110.20
  -1   1 -25   13.52   26.59
   1   3 -27 2763.43  183.75
   1   3 -26   62.29   35.02
   1   3 -25  786.46   98.55
   1   3 -24   11.37   21.24
   1   3 -23  103.19   49.71
  -1   3  22  783.63   42.37
   1   3 -22  902.32  130.48
  -1   3  21  839.18   54.19
   1   3 -21  793.96   55.03
  -1   3  20  485.68  127.17
   1   3 -20  563.82  198.18
  -1   3  19  277.29   92.69
   1   3 -19  383.14  123.35
   1  -3 -19  375.21   28.19
  -1   3  18   26.99   26.19
   1   3 -18   27.24   45.17
  -1   3  17  835.68   85.60
  -1   3  17  707.63   40.64
   1   3 -17  677.31   79.34
   1  -3 -17  715.29   38.86
  -1   3  16 3595.15  254.64
  -1   3  16 3448.63  234.71
   1   3 -16 3486.51  253.88
   1  -3 -16 3475.43  237.24
  -1   3  15 4943.77  299.47
  -1   3  15 5544.55  312.58
   1   3 -15 5393.15  320.24
   1  -3 -15 5858.13  331.00
  -1   3  14 1537.84  125.15
  -1   3  14 1614.13  101.85
   1   3 -14 1854.37  137.47
   1  -3 -14 1436.41   93.84
  -1   3  13   68.92   56.06
   1   3 -13   93.01   47.98
  -1   3  13   94.37   21.18
   1  -3 -13   74.63   19.98
  -1   3  12  365.07   36.34
   1   3 -12  414.24   65.24
  -1   3  12  342.72   17.78
   1  -3 -12  389.87   36.52
  -1   3  11 1395.28   82.41
   1   3 -11 1280.54   85.89
   1  -3 -11 1306.07   62.54
   1  -3 -11 1287.71   64.41
   1   3 -10  303.87    9.61
  -1   3  10  397.39   78.61
   1   3 -10  249.14   71.40
   1  -3 -10  283.74    8.43
   1  -3 -10  319.61   86.91
   1  -3 -10  244.20   15.29
   1   3  -912036.87  300.56
  -1   3   911597.51  308.26
   1  -3  -911618.49  323.88
  -1  -3   911629.75  290.13
   1  -3  -911981.04  298.09
   1  -3  -911330.75  282.28
   1   3  -8 9902.38  250.53
  -1   3   810070.75  278.35
   1   3  -8 8923.78  262.55
   1  -3  -8 9694.19  242.22
  -1  -3   8 9796.79  247.94
   1  -3  -8 9679.67  241.20
  -1   3   755992.15 1397.99
  -1  -3   759010.21  249.79
   1   3  -624534.95  548.69
  -1   3   622014.55  818.60
   1   3  -622647.31  535.75
  -1  -3   623706.57  529.51
   1  -3  -623611.20  540.68
  -1  -3   626566.66  605.56
  -1   3   4 4255.01  117.25
   1   3  -4 4314.24  420.32
  -1   3   4 4376.53  105.97
  -1  -3   4 4073.30  101.91
   1  -3  -4 4673.88  112.60
   1  -3  -4 4140.35  114.81
  -1  -3   4 4646.75  121.63
  -1   3   3   14.97   19.02
   1   3  -3    7.36   21.67
  -1   3   3    4.02    9.56
   1   3  -3   31.06   48.75
   1  -3  -3   11.57   14.52
  -1  -3   3   18.38   17.29
  -1  -3   3   -3.60   22.98
  -1   3   2   87.42   49.22
   1   3  -2   92.03   73.64
  -1   3   2  185.59   20.82
   1   3  -2   85.80   42.92
   1  -3  -2   78.02   26.72
  -1  -3   2   97.98   25.37
   1  -3  -2  112.53   27.67
  -1  -3   2   95.37   38.27
  -1   3   1  618.99  108.81
   1   3  -1  515.49   46.25
  -1   3   1  492.07   49.99
   1   3  -1  559.71   52.30
   1  -3  -1  602.04   71.46
  -1  -3   1  445.58   39.30
   1  -3  -1  540.96   47.97
  -1  -3   1  540.25   42.32
  -1   3   0  286.40   34.31
   1   3   0  305.37   35.08
  -1   3   0  317.50   31.74
   1   3   0  331.73   35.21
   1  -3   0  338.47   31.86
  -1  -3   0  303.73   29.46
   1  -3   0  351.03   80.32
  -1  -3   0  354.56   64.96
  -1   3  -1   20.15   33.54
   1   3   1   16.78   15.31
   1   3   1  -10.89   29.70
  -1   3  -1   18.18   23.81
  -1  -3  -1    0.74   15.41
   1  -3   1   -3.07   20.27
   1  -3   1   14.32   12.49
  -1  -3  -1   40.96   24.50
  -1   3  -2  850.80   64.40
   1   3   2  916.17   65.80
   1   3   2  992.06   75.96
  -1   3  -2  878.73  102.50
  -1  -3  -2  852.67   64.31
   1  -3   2  823.93   65.13
   1  -3   2  872.15   65.77
  -1   3  -411563.64  275.45
   1   3   4 9220.25  596.07
   1   3   410912.55  247.01
  -1  -3  -410464.25  249.66
   1  -3   410290.37  412.45
   1  -3   410651.13  254.71
  -1  -3  -410674.37  239.83
   1   3   527439.53  624.83
  -1   3  -525188.71  574.46
  -1  -3  -526635.15  605.46
  -1   3  -6  499.37   38.31
   1   3   6  564.30   59.63
  -1   3  -6  519.28   51.95
   1  -3   6  641.97   49.47
  -1  -3  -6  553.46   48.11
   1  -3   6  597.59   49.51
  -1   3  -7 2377.97  115.49
   1   3   7 2441.15  127.41
   1  -3   7 2371.32  116.61
  -1  -3  -7 2383.54  131.18
   1   3   827439.52  697.05
  -1   3  -825087.73  698.41
  -1   3 -10 7986.39  191.38
   1   3  10 7321.41  228.23
  -1   3 -10 6779.19  188.99
   1  -3  10 7467.19  183.60
  -1   3 -11 1137.59   53.55
   1   3  11 1098.19   83.22
  -1   3 -11 1192.74   71.55
   1  -3  11 1095.54   52.25
   1   3  12   12.37   23.55
  -1   3 -12   20.98   24.61
   1   3  13 2027.30  137.66
  -1   3 -13 2382.73  128.47
   1   3  14  512.71   93.47
  -1   3 -14  519.63  107.34
   1   3  15  516.85   59.37
  -1   3 -15  572.08  169.85
  -1   3 -16  337.31   83.23
   1   3  1716730.65  621.24
  -1   3 -1716371.34  627.94
   1   3  18 3167.26  216.78
  -1   3 -18 3189.33  221.95
   1   3  19 2575.57  180.86
  -1   3 -19 2787.74  202.24
   1   3  20 2639.96  204.02
  -1   3 -20 2239.82  212.12
   1   3  21  180.83   60.14
  -1   3 -21  248.71   80.24
  -1   3 -22   26.23   22.18
  -1   3 -23  591.08  101.27
  -1   3 -24 1787.25  173.16
  -1   3 -25 2921.04  177.92
  -1   3 -26  513.33   79.89
   1   5 -26 2159.42  177.51
   1   5 -25   28.16   34.28
   1   5 -24 1810.80   92.37
  -1   5  23   40.03   55.69
   1   5 -23   40.83   49.53
  -1   5  22  964.48  107.59
   1   5 -22 1143.81  137.71
  -1   5  21  421.64   84.84
   1   5 -21  390.03  186.48
  -1   5  20 3358.00  235.20
   1   5 -20 3403.37  209.87
  -1   5  19 7956.04  292.62
   1   5 -19 7182.47  272.72
   1   5 -18   80.73   56.51
  -1   5  17  438.51   51.28
   1   5 -17  338.55  109.27
  -1   5  16 2698.55  200.41
   1   5 -16 2974.94  216.56
  -1   5  1525921.70  955.65
   1   5 -1526131.07  966.84
   1   5 -1419983.39  812.95
   1   5 -1419633.70  798.76
  -1   5  1418824.44  791.47
   1   5 -1421275.18  895.38
   1   5 -13 2122.29  141.45
   1   5 -13 1943.49  130.51
  -1   5  13 1954.90  150.56
   1   5 -13 2185.74  145.28
   1   5 -12  863.44   61.79
  -1   5  12  970.16   86.02
   1   5 -12  955.13  270.73
  -1  -5  12  786.14   55.78
   1   5 -11 2745.57  132.59
  -1   5  11 3194.80  168.87
   1   5 -11 2971.40  165.38
  -1  -5  11 3275.74  156.93
   1   5 -10 1749.09  116.62
  -1   5  10 1997.08  115.47
   1   5 -10 1680.27  128.85
  -1  -5  10 1875.20   60.43
   1  -5 -10 1886.55   30.30
   1  -5 -10 1866.60  116.78
   1   5  -9   90.54   18.40
  -1   5   9   61.77   34.22
   1   5  -9   61.02   45.78
  -1  -5   9   47.18   24.54
   1  -5  -9   41.10   16.35
   1  -5  -9   67.09   15.27
   1   5  -8   31.03   11.21
  -1   5   8   16.63   27.97
   1   5  -8    5.78   24.51
  -1  -5   8   27.84   18.77
   1  -5  -8    9.87   13.74
   1  -5  -8   22.47    8.48
   1   5  -7 3128.09  155.29
  -1   5   7 3208.96  169.13
   1   5  -7 2959.40  156.97
  -1   5   7 3006.46  143.96
  -1  -5   7 3276.70  161.90
   1  -5  -7 3611.47  173.30
  -1   5   6  273.93  153.57
   1   5  -6  409.72   44.77
  -1  -5   6  283.45   32.21
   1  -5  -6  264.52   81.41
   1   5  -524501.43  603.52
  -1   5   523986.56  601.46
   1   5  -524325.35  608.20
  -1   5   525166.15  609.10
  -1  -5   525743.25  629.52
   1  -5  -525410.32  616.44
  -1   5   425929.03  649.93
   1   5  -425300.09  627.26
   1   5  -423394.13  584.90
  -1   5   425458.56  620.59
  -1  -5   425700.51  638.06
   1  -5  -427113.56  658.31
  -1   5   3 7173.52  211.60
   1   5  -3 6603.18  326.42
  -1   5   3 7171.98  193.17
  -1  -5   3 7318.47  222.21
   1  -5  -3 7239.73  197.28
  -1   5   2 2392.37  128.25
   1   5  -2 2746.31  143.37
   1   5  -2 2529.99  134.52
  -1   5   2 2574.35  131.12
  -1  -5   2 2474.15  128.69
   1  -5  -2 2749.82  149.36
  -1   5   1  401.26  100.24
   1   5  -1  428.31  126.91
  -1   5   1  315.38   93.16
   1   5  -1  353.85   29.16
   1  -5  -1  306.38   85.23
  -1  -5   1  274.80  101.85
  -1   5   024398.51  624.35
   1   5   021255.76  566.36
  -1   5   022600.03  583.92
   1   5   023554.47  598.09
   1  -5   025631.65  651.37
  -1  -5   024316.67  616.18
  -1   5  -1 2472.81  131.31
   1   5   1 2410.54  145.53
  -1   5  -1 2857.35  146.71
   1   5   1 2554.58  130.27
   1  -5   1 2474.62  130.74
  -1  -5  -1 2949.22  188.24
   1   5   214821.43  393.67
   1   5   215821.55  405.20
  -1   5  -215316.04  401.01
   1  -5   217328.11  448.62
  -1  -5  -216789.97  429.49
   1   5   317013.49  457.56
  -1   5  -316490.55  430.58
   1   5   317668.89  449.37
   1  -5   315464.51  402.82
  -1  -5  -317887.62  454.58
  -1   5  -4   35.48   23.95
   1   5   4   21.33   18.90
  -1   5  -4   45.75   35.62
   1   5   4   13.76   14.06
   1  -5   4   15.28   14.64
  -1  -5  -4   20.00   14.41
  -1   5  -5 3903.41  192.42
   1   5   5 4286.64  219.87
  -1   5  -5 3771.45  197.58
   1   5   5 4158.58  198.59
   1  -5   5 3599.91  202.65
  -1  -5  -5 3974.81  189.85
  -1   5  -6  143.37   40.49
   1   5   6  123.12   63.68
  -1   5  -6  150.99   72.43
   1   5   6  105.88   13.36
   1  -5   6  200.73   51.60
  -1  -5  -6  138.35   21.78
  -1   5  -7 2384.21  120.42
   1   5   7 2325.25  134.78
  -1   5  -7 2209.08  124.18
   1   5   7 2342.99  112.28
   1  -5   7 2298.92  119.27
  -1  -5  -7 2376.04  113.65
  -1   5  -8  202.63   26.29
   1   5   8  142.65   73.15
  -1   5  -8  193.47  119.04
   1  -5   8  201.25   33.59
  -1  -5  -8  278.78   18.22
  -1  -5  -8  241.69   18.18
  -1   5  -9 2040.27  125.03
   1   5   9 1953.87  132.85
  -1   5  -9 1650.72  116.49
   1  -5   9 2148.28  131.35
  -1   5 -10 1084.77   72.50
   1   5  10 1119.38   94.54
  -1   5 -10  905.20   80.35
   1  -5  10 1004.09   76.86
  -1   5 -11  816.66   55.53
   1   5  11  721.79   65.53
  -1   5 -11 1012.81  251.49
   1  -5  11  937.91   69.37
  -1   5 -12  481.12   34.19
   1   5  12  323.60  168.34
  -1   5 -12  425.57  217.95
   1  -5  12  430.31   36.91
  -1   5 -1324962.46 1016.70
   1   5  1326271.95 1094.89
  -1   5 -1323326.09  977.21
   1  -5  1322592.89  922.95
  -1   5 -1414208.15  509.04
   1   5  1415660.62  591.95
  -1   5 -1416663.48  628.80
   1  -5  1413619.97  489.72
   1   5  15 2733.27  186.72
  -1   5 -15 2579.40  174.37
   1   5  16 4052.85  277.37
  -1   5 -16 3808.06  320.21
   1   5  17 1583.66  216.76
  -1   5 -17 1702.02  207.96
  -1   5 -18 4393.08  260.46
   1   5  19  547.19   57.89
  -1   5 -19  432.08  153.82
   1   5  20  845.69  111.98
  -1   5 -20  708.94  192.88
   1   5  21   14.70   36.59
  -1   5 -21   25.49   25.95
   1   5  22 3901.80  292.10
  -1   5 -22 4734.03  360.41
  -1   5 -23 1212.87  122.66
  -1   5 -24 4053.96  268.52
  -1   5 -25   36.97   32.92
  -1   7  23 1696.45  125.49
   1   7 -23 1527.15  135.96
  -1   7  22   78.66   61.03
   1   7 -22   25.40   55.40
  -1   7  21 2719.17  185.87
   1   7 -21 3544.96  219.14
  -1   7  20  432.32  215.22
   1   7 -20  500.46  185.49
   1   7 -19 4837.23  464.43
  -1   7  18 3692.67  239.86
   1   7 -18 2963.00  207.53
  -1   7  17 9362.29  491.02
   1   7 -17 9310.47  495.46
  -1   7  16   85.18   39.97
   1   7 -16   90.45   65.96
  -1   7  15 1103.97  135.57
   1   7 -15 1215.88  232.00
   1   7 -14   86.40   31.01
  -1   7  14   98.50   68.32
   1   7 -14  145.96   82.79
   1   7 -13 1497.28  105.93
  -1   7  13 1551.36  131.36
   1   7 -13 1150.92  183.56
   1   7 -12 4307.48  290.50
  -1   7  12 4598.88  315.62
   1   7 -12 3738.75  338.61
   1   7 -11 1072.04   62.23
  -1   7  11 1147.64  171.83
   1   7 -11 1065.37   91.45
   1  -7 -11 1236.10   59.28
   1  -7 -11 1176.43   55.74
   1   7 -10  147.98   37.94
  -1   7  10  148.81   64.59
   1   7 -10   52.80   49.69
   1  -7 -10   92.25   25.15
   1  -7 -10  130.02   32.29
   1   7  -9   27.32   20.23
  -1   7   9   20.30   28.09
   1   7  -9   37.45   26.03
   1  -7  -9    6.12   13.59
   1  -7  -9   28.66   15.67
   1   7  -8   41.58   38.92
  -1   7   8   85.66  112.39
  -1   7   8   81.27   35.13
   1   7  -8   66.12   38.69
   1  -7  -8   36.70   17.38
   1   7  -7 3909.18  232.93
  -1   7   7 4153.28  276.68
  -1   7   7 3714.87  215.57
   1   7  -7 3436.18  214.67
   1  -7  -7 3890.57  231.78
  -1   7   6   20.90   35.92
   1   7  -6   17.15   32.56
  -1   7   6   14.51   19.24
   1   7  -6  -37.03   38.76
   1  -7  -6   -0.95   12.31
   1   7  -5 2446.02  153.88
  -1   7   5 2604.38  167.90
  -1   7   5 2783.01  166.43
   1   7  -5 2585.17  165.38
   1  -7  -5 2364.62  142.85
  -1   7   4 2096.17  124.59
   1   7  -4 1858.23  131.91
  -1   7   4 1691.71  117.20
   1   7  -4 1851.01  133.52
  -1   7   3 6736.32  233.70
   1   7  -3 6710.48  238.30
  -1   7   3 6220.26  214.78
   1   7  -3 7017.03  237.00
  -1   7   2  335.59  183.04
   1   7  -2  361.42   86.45
  -1   7   2  404.67   50.21
   1   7  -2  363.73   93.82
  -1   7   142606.75  279.13
   1   7  -138777.44 1177.35
  -1   7   141097.33  240.37
   1   7  -139637.65 1195.51
  -1   7   0   96.23   50.72
   1   7   0   99.94   28.68
  -1   7   0  118.81   46.51
   1   7   0   94.59   34.72
  -1   7  -1 2508.47  143.47
   1   7   1 2707.73  150.02
  -1   7  -1 2684.17  144.49
   1   7   1 2397.55  128.70
  -1   7  -2  315.60   91.30
   1   7   2  356.25  140.54
   1   7   2  444.63   71.55
  -1   7  -2  407.96   62.52
  -1   7  -3 2004.24  111.65
   1   7   3 1827.62  134.63
   1   7   3 2047.02  119.19
  -1   7  -3 1982.73  149.50
  -1   7  -4 1655.25  123.86
   1   7   4 1536.66  134.34
   1   7   4 1474.62  129.07
  -1   7  -4 1787.60  191.52
  -1  -7  -4 1516.06  111.69
  -1   7  -513759.78  359.48
   1   7   511250.70  314.22
   1   7   513641.38  343.25
  -1   7  -511710.52  319.53
  -1  -7  -513538.51  345.96
  -1   7  -6 1251.89   94.16
   1   7   6 1326.69  115.52
   1   7   6 1361.78   96.90
  -1   7  -6 1119.60  112.22
  -1  -7  -6 1295.18   95.19
  -1   7  -7  266.96   31.35
   1   7   7  389.24  188.94
   1   7   7  306.37   43.28
  -1   7  -7  308.96   98.57
  -1  -7  -7  285.28   52.29
  -1   7  -8 4734.70  209.59
   1   7   8 4685.36  224.36
   1   7   8 4369.04  303.35
  -1   7  -8 3935.71  285.20
  -1  -7  -8 4338.75  298.23
  -1   7  -9 1457.07   55.48
   1   7   9 1408.80   88.13
  -1   7  -9 1430.24  484.95
  -1  -7  -9 1497.20   42.78
  -1  -7  -9 1492.18   42.31
  -1   7 -10 8996.26  343.40
   1   7  10 8142.95  329.78
  -1   7 -10 7353.45  303.00
  -1  -7 -10 8997.97  324.51
  -1  -7 -10 8894.20  320.51
  -1   7 -11 3755.58  247.29
   1   7  11 4096.61  283.38
  -1   7 -11 3919.65  274.52
  -1   7 -12  243.42   48.83
   1   7  12  318.46   48.15
  -1   7 -12  164.45   71.01
  -1   7 -13 1232.78   33.69
   1   7  13 1371.57  120.32
  -1   7 -13  902.47   62.32
  -1   7 -14  326.15   25.46
   1   7  14  454.56  158.53
  -1   7 -14  212.33  107.45
   1   7  15 5046.53  209.54
  -1   7 -15 5455.93  224.49
   1   7  16 9118.46  478.96
  -1   7 -1610048.51  529.84
   1   7  17 1881.78  168.12
  -1   7 -17 1840.29  169.28
   1   7  18  617.72   60.01
  -1   7 -18  719.23  107.86
  -1   7 -1912403.32  891.43
   1   7  20 1098.42  127.65
  -1   7 -20 1518.56  169.00
   1   7  21 9672.28  215.04
  -1   7 -21 9666.21  529.19
   1   7  22  157.47   74.76
  -1   7 -22  117.99  115.56
   1   7  23   87.53   54.52
  -1   7 -23   -4.59   47.75
   1   9 -20   67.00   58.36
  -1   9  19 2982.05  287.50
   1   9 -19 2641.33  226.65
  -1   9  18 1150.30   75.80
   1   9 -18 1062.88   98.86
  -1   9  17   54.41   87.20
   1   9 -17  -52.72   51.87
  -1   9  16 1452.46  300.94
   1   9 -16 1419.78  143.80
  -1   9  15  783.74  277.51
   1   9 -15  852.17   76.56
  -1   9  14 1439.50  147.95
   1   9 -14 1560.64  234.84
   1   9 -13  428.57   83.70
  -1   9  13  456.24  114.32
   1   9 -13  481.65  166.97
   1   9 -12   40.33   39.45
  -1   9  12   66.19   33.04
   1   9 -12   47.73   23.61
   1   9 -11  200.19   55.47
  -1   9  11  144.50   62.28
   1   9 -11  112.51   57.31
   1   9 -10 3386.51  248.44
  -1   9  10 3148.96  247.46
   1   9 -10 3032.39  255.04
   1   9  -9 2072.16  167.41
  -1   9   9 2023.64  268.93
   1   9  -9 2024.70  179.24
   1  -9  -9 2021.56  152.15
   1   9  -8  319.47  111.80
  -1   9   8  178.67  121.88
  -1   9   8  295.79   40.30
   1   9  -8  181.90  115.68
  -1   9   7  502.98  160.48
   1   9  -7  569.71   63.87
  -1   9   7  556.08   66.06
   1   9  -7  442.75  188.04
   1   9  -6  112.93   39.30
  -1   9   6   77.34   53.68
  -1   9   6   72.44   34.34
   1   9  -6   78.86   86.14
   1   9  -5  124.09   47.63
  -1   9   5  175.53   61.16
  -1   9   5  118.99   42.01
   1   9  -5   97.05   99.39
  -1   9   4  120.87   48.10
   1   9  -4  118.14   68.87
  -1   9   4  191.80   49.21
   1   9  -4  197.78   66.92
  -1   9   3   33.65   67.08
   1   9  -3   72.35   45.32
  -1   9   3   55.62   28.70
   1   9  -3   84.39   33.87
  -1   9   2 4190.69  290.24
   1   9  -2 3828.75  266.29
   1   9  -2 3813.38  262.20
  -1   9   1  294.59  110.14
   1   9  -1  297.84   83.75
  -1   9   1  281.81  115.35
   1   9  -1  215.06   65.60
  -1   9   0  205.39  150.34
   1   9   0  216.36  107.40
  -1   9   0  284.71  108.11
   1   9   0  171.14   54.49
  -1   9  -1  432.33  128.64
   1   9   1  486.74  204.91
  -1   9  -1  333.64  137.23
  -1   9  -2   54.71   28.68
   1   9   2   23.86   50.99
   1   9   2   51.29   27.03
  -1   9  -2   71.08   42.90
  -1   9  -3  746.17  169.45
   1   9   3  578.13   56.15
   1   9   3  797.70   50.36
  -1   9  -3  584.43   45.79
  -1   9  -4   70.56   34.84
   1   9   4   79.18   34.76
   1   9   4  112.47   24.80
  -1   9  -4  108.64   48.96
  -1   9  -5   56.56   25.23
   1   9   5   51.56   60.64
   1   9   5  121.46   42.38
  -1   9  -5  133.43   53.38
  -1   9  -6 5125.11  219.80
   1   9   6 5319.41  242.80
   1   9   6 5011.32  201.51
  -1   9  -6 4739.60  215.03
  -1   9  -7   79.64   36.67
   1   9   7   70.83   55.31
   1   9   7   42.21   24.26
  -1   9  -7  -11.87   66.37
  -1   9  -8 7133.49  415.47
   1   9   8 7365.00  441.44
  -1   9  -8 7688.58  433.85
  -1   9  -9 8509.96  299.33
   1   9   9 7747.03  302.20
  -1   9  -9 7701.85  292.14
  -1   9 -10 2205.68  166.05
   1   9  10 2387.81  363.64
  -1   9 -10 2108.00  217.06
  -1   9 -11  775.74  106.29
   1   9  11  825.74  301.87
  -1   9 -11  981.82   82.71
  -1   9 -12 1587.48  129.02
   1   9  12 1610.71  155.02
  -1   9 -12 1453.31  135.29
   1   9  13  107.42   76.66
  -1   9 -13   26.36   23.75
   1   9  14  385.69  146.65
  -1   9 -14  450.79  180.74
   1   9  15  114.88   69.39
  -1   9 -15  198.00   96.94
   1   9  16 5099.91  301.17
  -1   9 -16 4565.43  310.87
   1   9  17  916.59  103.16
  -1   9 -17  946.15  347.91
   1   9  18  820.00   93.81
  -1   9 -18  528.46  236.63
   1   9  19  527.26  246.50
  -1   9 -19  390.86  217.20
  -1  11  14  155.36   84.38
   1  11 -14   41.68   68.08
  -1  11  13 2878.97  217.59
   1  11 -13 2873.82  219.93
  -1  11  12  148.89   73.98
   1  11 -12  267.69  110.76
   1  11 -11   69.98   46.78
  -1  11  11   54.68   47.10
   1  11 -11   46.88   54.38
   1  11 -10 2021.47  160.65
  -1  11  10 1641.41  147.95
   1  11 -10 1617.41  156.49
   1  11  -9  439.40   79.88
  -1  11   9  805.89  281.64
   1  11  -9  579.08   91.21
   1  11  -8   73.79   34.93
  -1  11   8   -8.78   34.34
   1  11  -8   36.82   41.34
  -1  11   7  628.40  278.83
   1  11  -7  550.39   47.61
   1  11  -7  518.95  260.11
  -1  11   6  372.65  157.27
   1  11  -6  296.65  112.55
   1  11  -6  353.18  213.57
  -1  11   5 2466.74  210.67
   1  11  -5 2790.78  233.10
  -1  11   5 2700.21  216.13
   1  11  -5 3028.53  254.68
  -1  11   4  154.26   66.31
   1  11  -4  185.45  111.36
  -1  11   4  166.02  104.36
   1  11  -4  127.29   79.47
  -1  11   3 1520.33  163.74
   1  11  -3 1305.75  134.67
  -1  11   3 1385.28  155.43
  -1  11   2   74.31   48.19
   1  11  -2   -8.64   36.47
  -1  11   2   20.72   29.89
   1  11  -2   41.90   34.33
  -1  11   1  226.30  119.11
   1  11  -1   77.63   31.25
  -1  11   1  212.09  136.66
   1  11  -1  272.46  127.49
  -1  11   0  278.51   92.74
   1  11   0  308.48   61.75
  -1  11   0  178.80  101.22
   1  11   0  263.96  133.71
  -1  11  -1    5.48   22.52
   1  11   1   29.36   32.96
  -1  11  -1   64.05   49.13
   1  11   1   15.16   45.56
  -1  11  -2  975.49  110.65
   1  11   2 1216.61  134.73
   1  11   2 1096.06  115.18
  -1  11  -3  965.10  160.47
   1  11   3  807.87  222.69
   1  11   3 1004.96  105.39
  -1  11  -3  793.04  243.40
  -1  11  -4  139.59   62.69
   1  11   4  145.31   71.10
   1  11   4  126.34   82.33
  -1  11  -4  132.92   79.85
  -1  11  -5 3201.80  262.18
   1  11   5 2759.87  239.97
  -1  11  -5 2693.57  226.86
  -1  11  -6  234.10   60.61
   1  11   6  163.71  153.16
  -1  11  -6  238.38  167.20
  -1  11  -7 4330.78  322.67
   1  11   7 3389.39  264.33
  -1  11  -7 4547.47  348.51
  -1  11  -8  134.85   67.64
   1  11   8   50.32   44.50
  -1  11  -8   76.86   74.97
  -1  11  -9 1852.36  148.09
   1  11   9 1561.46  337.73
  -1  11  -9 1938.55  164.63
  -1  11 -10   30.99   44.73
   1  11  10   46.45   49.91
  -1  11 -10   27.13   57.58
   1  11  11 3521.66  228.89
  -1  11 -11 2776.44  189.42
   1  11  12  345.42  119.26
  -1  11 -12  323.31  153.62
   1  11  13   89.22   80.31
  -1  11 -13   54.01   47.87
   1  11  14  621.43  142.03
   2   0 -25   13.32   20.53
   2   0 -24 5026.49  299.47
   2   0 -23   47.51   34.75
   2   0 -22 4590.61  181.65
   2   0 -21    8.90   18.67
   2   0 -20 5753.47   97.33
  -2   0  19   -1.37    4.73
   2   0 -19   25.82   28.71
  -2   0  18 6635.39  274.75
  -2   0  18 6537.19  269.90
   2   0 -18 7145.23  317.51
  -2   0  17    9.98    8.40
   2   0 -17    1.26    9.68
   2   0 -17    2.02   22.62
  -2   0  16 7853.03  239.53
   2   0 -16 7048.66  216.66
   2   0 -16 7403.94  253.52
  -2   0  15    8.39    5.37
   2   0 -15    2.20    5.73
   2   0 -15   21.43   14.39
  -2   0  14 6588.13  229.77
   2   0 -14 6275.00  219.89
   2   0 -14 7342.98  264.84
  -2   0  14 6052.76  220.39
  -2   0  13    8.62   14.76
   2   0 -13    5.95   10.70
   2   0 -13   16.41   13.49
  -2   0  13    1.52   14.43
  -2   0  12 9528.05  233.39
   2   0 -1210106.33  248.51
   2   0 -12 9267.70  238.79
  -2   0  12 9704.01  249.27
  -2   0  11  -21.42   16.11
   2   0 -11    6.00   11.72
   2   0 -11   26.47   19.71
  -2   0  11  -19.35   18.03
   2   0 -1022419.74  559.77
   2   0 -1022583.08  569.25
  -2   0  1022478.17  564.89
  -2   0   9   -3.30   16.11
   2   0  -9    3.30    8.76
  -2   0   9   -7.81   20.06
  -2   0   8 2183.38   54.90
   2   0  -8 2320.65   59.61
   2   0  -8 2074.97   39.02
  -2   0   8 2104.13   36.14
  -2   0   7    4.83    4.88
   2   0  -7   17.15   18.48
  -2   0   7   11.63   18.19
  -2   0   5    4.95    3.64
   2   0  -5   -0.97   10.07
   2   0  -5    3.22   16.30
  -2   0   5   -3.23   14.28
  -2   0   3   46.93   11.40
   2   0  -3    6.61    7.03
   2   0  -3    5.35    8.79
  -2   0   3   -2.73    8.97
  -2   0  -3   -6.63    9.39
   2   0   3   -6.75    5.10
  -2   0  -3   -4.45   12.22
   2   0   3  -11.28   11.89
  -2   0  -417308.90  387.26
   2   0   415594.16  349.69
   2   0   5   32.46   12.19
   2   0   5    2.07    9.07
  -2   0  -5   14.62   10.47
   2   0   5    2.85   11.09
   2   0   6 1753.91  118.91
   2   0   6 1530.93  105.34
  -2   0  -6 1534.37  113.56
   2   0   6 1268.66   90.61
   2   0   7   10.53   10.31
   2   0   7    7.61   10.72
   2   0   7    1.05   10.90
   2   0   9   -7.88   10.95
   2   0   9    9.89   12.26
  -2   0  -9   11.79   13.76
   2   0   9    8.71   15.64
   2   0  10 7129.55  186.45
  -2   0 -10 7195.02  195.80
   2   0  10 7725.12  204.93
   2   0  11    6.64    9.16
   2   0  11   16.19    5.80
  -2   0 -11    3.01   18.24
   2   0  11    6.11   11.33
   2   0  12 4113.62  194.56
   2   0  12 3906.78  191.97
  -2   0 -12 4234.99  218.86
   2   0  12 4225.28  205.73
   2   0  13    1.18    4.48
   2   0  13    7.23   11.86
  -2   0 -13   35.47   17.34
   2   0  13   12.32   11.30
   2   0  14 8370.88  252.50
   2   0  14 7292.12  229.88
  -2   0 -14 8099.27  263.39
   2   0  14 8700.48  274.28
   2   0  15    1.37    7.20
   2   0  15    0.33   11.12
   2   0  15   -3.53   16.54
   2   0  16  706.53   49.84
   2   0  16  796.59   63.07
  -2   0 -16  809.89   84.15
   2   0  17    4.70    9.27
   2   0  17    0.30    9.04
  -2   0 -17   22.36   10.96
   2   0  1819894.43  720.04
  -2   0 -1823517.63  871.68
   2   0  19  -11.55    9.01
  -2   0 -2014104.40  553.25
  -2   0 -21   27.08   24.89
  -2   0 -22  778.09   51.20
  -2   0 -23    7.64   20.60
   2   2 -27 1392.07  151.19
   2   2 -26   63.49   37.42
   2   2 -25  834.73  161.25
   2   2 -24 3201.19  270.52
   2   2 -23   74.08   54.75
   2   2 -22  245.15   78.64
  -2   2  21  797.12   35.29
   2   2 -21  891.13  140.73
   2  -2 -21  820.93   60.75
  -2   2  20 3161.92  214.35
   2   2 -20 3241.58  229.38
   2  -2 -20 3130.73  213.10
  -2   2  19   12.58   16.03
   2   2 -19   38.25   24.98
   2  -2 -19   22.53   25.49
  -2   2  18 2159.05  108.36
   2   2 -18 2401.33  149.57
  -2   2  18 2209.00   39.85
  -2   2  17 1653.73  121.75
   2   2 -17 1448.33   70.63
  -2   2  17 1690.99  118.82
   2  -2 -17 1675.02  120.51
  -2   2  16 2409.05  155.54
   2   2 -16 2645.38  170.10
  -2   2  16 2629.79  152.76
   2  -2 -16 2656.17  163.35
  -2   2  15  484.32   50.24
   2   2 -15  583.45   60.95
  -2   2  15  468.27   48.17
   2  -2 -15  537.87   68.91
   2  -2 -15  355.30   34.27
  -2   2  14 1360.93  100.37
   2   2 -14 1051.91   79.98
  -2   2  14 1372.13   83.73
   2  -2 -14 1193.39  105.16
   2  -2 -14 1355.21   84.24
  -2   2  13 4872.57  181.54
   2   2 -13 5588.25  211.37
  -2   2  13 5316.41  186.55
   2  -2 -13 5263.55  198.13
   2  -2 -13 4877.55  175.40
  -2   2  12 5352.89  148.63
  -2   2  12 5498.36  138.44
   2  -2 -12 5176.96  139.16
   2  -2 -12 4709.72  207.28
  -2   2  11  729.63   80.47
   2   2 -11  756.65   56.58
  -2   2  11  725.10   42.96
   2  -2 -11  884.94   60.45
   2  -2 -11  818.26   50.18
  -2   2  10 8853.01  242.33
   2   2 -10 8331.97  229.74
  -2   2  10 9557.12  241.05
   2  -2 -10 9818.87  251.88
  -2   2   911224.20  294.47
  -2   2   912501.53  312.85
   2   2  -913528.03  359.11
  -2  -2   910673.55  285.21
   2  -2  -911685.29  295.90
   2  -2  -913520.44  349.46
   2   2  -8 5247.29  116.77
  -2   2   8 4742.08  122.53
   2   2  -8 5365.05  122.32
   2   2  -8 4711.14  125.88
  -2   2   8 5459.12  125.85
   2  -2  -8 5346.04  126.51
  -2  -2   8 5318.11  171.13
  -2   2   733085.09  818.16
   2   2  -730707.34  694.40
   2  -2  -732260.18  727.26
  -2  -2   733499.13  752.88
  -2   2   637424.23  839.49
   2  -2  -638822.40  170.71
  -2  -2   638652.84  169.66
  -2   2   331253.30  699.36
  -2  -2   333494.16  747.46
  -2   2   2 5724.19  141.12
   2   2  -2 5186.44  143.34
  -2   2   2 5543.98  130.68
   2   2  -2 6033.91  149.82
   2  -2  -2 6468.28  156.56
  -2  -2   2 5785.16  139.49
   2  -2  -2 5865.66  137.88
  -2  -2   2 6025.55  144.40
  -2   2   1 1833.01  127.45
   2   2  -1 1837.09  127.62
  -2   2   1 1961.92   35.37
   2   2  -1 1915.50  132.42
   2  -2  -1 2217.58   63.19
  -2  -2   1 1807.40  125.11
   2  -2  -1 2115.98   35.27
  -2  -2   1 1956.50   41.72
   2   2   0 6417.58  155.53
   2   2   0 7026.72  169.96
  -2  -2   0 6539.59  159.56
   2  -2   0 7102.20  167.57
   2  -2   0 7029.90  166.35
  -2  -2   0 6726.56  155.69
  -2   2  -123084.19  518.63
  -2  -2  -124725.72  554.42
   2  -2   125318.49  567.74
  -2   2  -2   50.79   44.54
   2   2   2   48.23   33.05
  -2   2  -2   84.19   34.87
   2   2   2  103.55   23.90
   2  -2   2   70.50   24.75
  -2  -2  -2  134.84   61.81
   2  -2   2   54.86   33.91
  -2  -2  -2   66.55   30.94
  -2   2  -325778.55  583.67
   2  -2   326043.77  590.16
   2   2   4 4817.16  125.33
  -2   2  -4 4132.55  109.89
   2   2   4 4684.85  120.56
   2  -2   4 4718.87  112.90
  -2  -2  -4 4484.50  221.02
   2  -2   4 4392.01  113.01
  -2  -2  -4 4440.64   99.91
   2   2   629294.40  660.83
  -2   2  -628790.71  652.47
   2  -2   630294.70  671.98
  -2  -2  -632046.74  718.91
   2  -2   631614.80  713.73
  -2   2  -7 4741.48  107.21
  -2   2  -7 4351.14  160.40
   2   2   7 4406.27  129.52
   2  -2   7 4801.61  112.54
   2  -2   7 4357.64  129.32
  -2   2  -8   70.47    9.91
   2   2   8   61.83   20.71
  -2   2  -8   29.06   30.26
   2   2   8   86.26   10.35
   2  -2   8   52.56   17.24
  -2  -2  -8  123.98   29.29
   2  -2   8    7.39   21.63
  -2   2  -9  495.62   15.36
   2   2   9  429.95   29.59
  -2   2  -9  466.79   35.97
   2  -2   9  536.77   27.67
  -2  -2  -9  499.45   52.51
   2  -2   9  599.95   34.10
  -2   2 -1013576.84  325.27
   2   2  1013721.73  329.62
   2   2  1013587.79  344.68
  -2  -2 -1013612.28  345.18
  -2  -2 -1013385.45  321.60
   2  -2  1013575.02  326.57
   2   2  11  665.29   17.38
   2   2  11  777.40   62.97
  -2   2 -11  645.19   53.71
   2  -2  11  798.94   44.17
  -2  -2 -11  745.06   42.40
  -2  -2 -11  777.06   50.14
   2  -2  11  696.42   34.75
   2   2  12 2634.59  153.84
   2   2  12 3135.65  191.00
  -2   2 -12 2828.83  177.68
   2  -2  12 2715.45  157.17
  -2  -2 -12 3500.39  203.63
  -2  -2 -12 3065.57  222.65
   2  -2  12 2589.84  149.95
   2   2  13 9214.79  402.01
  -2   2 -13 8123.56  296.29
   2   2  13 8555.47  294.78
  -2  -2 -13 8705.18  307.61
  -2  -2 -13 8446.27  291.52
   2   2  14   21.09   13.92
   2   2  14    0.00    0.84
  -2   2 -14   -9.83   34.78
  -2  -2 -14  -14.76   28.96
   2   2  15 4072.82  233.59
  -2   2 -15 4185.97  250.25
  -2  -2 -15 4034.48  235.80
   2   2  16 1547.53   52.36
   2   2  16 1732.43  125.13
  -2   2 -16 1677.19  162.79
  -2  -2 -16 1678.37  118.62
   2   2  17 3021.71  202.59
  -2   2 -17 2391.71  163.80
  -2  -2 -17 2955.41  164.14
   2   2  18 3725.55  248.83
  -2   2 -18 3563.37  265.56
  -2  -2 -18 3552.00  234.49
   2   2  19 3450.90  157.53
  -2   2 -19 3252.67  235.33
  -2  -2 -19 4595.73  179.69
   2   2  20  239.19   92.09
  -2   2 -20  311.27   93.11
  -2   2 -21 1669.39  133.90
  -2   2 -22   36.36   20.40
  -2   2 -23  821.66   52.98
  -2   2 -24  201.97   75.79
  -2   2 -25   12.01   37.91
   2   4 -27  129.59   59.47
   2   4 -26   25.45   28.10
   2   4 -25   25.93   35.69
   2   4 -24  914.80  113.91
  -2   4  23  350.79   89.26
   2   4 -23  384.49  198.50
  -2   4  22    0.52   26.04
   2   4 -22   33.03   30.06
  -2   4  21  364.14  105.13
   2   4 -21  652.69  210.18
  -2   4  20  124.11   31.46
   2   4 -20  149.07   48.13
  -2   4  19 2116.10  157.72
   2   4 -19 2083.22  160.97
  -2   4  18  278.89   88.44
   2   4 -18  182.06  101.82
  -2   4  17 1353.76  130.79
   2   4 -17 1435.94   96.17
  -2   4  16  188.42   64.40
   2   4 -16  177.72   60.96
   2  -4 -16  111.17   13.69
  -2   4  15 3896.98  277.47
   2   4 -15 3609.89  259.53
   2  -4 -15 3699.64  250.63
  -2   4  14 1581.21  126.85
   2   4 -14 1932.64  153.60
   2  -4 -14 1460.04   97.52
  -2   4  13 2146.24  131.06
   2   4 -13 2073.76  136.03
   2  -4 -13 2190.22  103.85
   2  -4 -13 2077.82   99.70
   2   4 -12 5687.97  170.29
   2   4 -12 5445.70   37.24
  -2   4  12 5948.30  204.76
   2   4 -12 5544.98  130.25
   2  -4 -12 5891.24  178.77
   2  -4 -12 5613.69  170.34
   2   4 -11   92.17   18.08
   2   4 -11   90.19   21.44
  -2   4  11   93.72   34.93
   2   4 -11   61.57   37.16
   2  -4 -11   89.20   23.21
   2  -4 -11   81.91   15.74
   2   4 -1019850.84  481.66
  -2   4  1017444.01  450.77
   2   4 -1018868.40  483.00
   2  -4 -1019869.59  478.03
   2  -4 -1019138.44  459.42
  -2   4   911323.08  320.00
   2   4  -912527.19  310.90
   2   4  -912053.89  371.64
   2  -4  -911394.26  278.36
  -2  -4   912568.68  307.17
   2  -4  -912266.29  297.67
  -2   4   826905.53  667.00
   2   4  -823654.82  577.00
   2   4  -826782.15  666.84
   2  -4  -825489.73  612.96
  -2  -4   824734.31  597.07
   2  -4  -823296.97  558.89
  -2   4   7 1611.47   93.14
   2   4  -7 1844.83   95.70
   2   4  -7 2492.15  217.12
   2  -4  -7 2048.63  104.25
  -2  -4   7 1924.78  103.67
   2  -4  -7 1955.02   97.16
  -2   4   635000.01  885.66
   2   4  -630956.29  785.71
  -2  -4   634144.74  851.67
  -2   4   5 4081.70  207.77
   2   4  -5 4131.88  206.15
  -2   4   5 4093.24  199.09
   2   4  -5 4648.44  448.80
  -2  -4   5 4373.13  212.57
   2  -4  -5 4457.16  216.89
  -2   4   4 3758.62  193.75
   2   4  -4 3725.71  188.01
  -2   4   4 3586.49  173.44
  -2  -4   4 3170.18  164.24
   2  -4  -4 3644.65  177.34
   2  -4  -4 3569.75  198.05
  -2  -4   4 3457.86  175.65
   2   4  -3 2487.78  129.15
  -2   4   3 2367.56  118.28
   2   4  -3 2896.27  151.11
   2  -4  -3 2443.23  131.41
  -2  -4   3 3007.49  150.48
   2  -4  -3 2660.54  132.18
  -2  -4   3 2491.57  126.30
  -2   4   2 2577.59   82.31
   2   4  -2 2721.84   83.33
  -2   4   2 2756.10   85.67
   2   4  -2 2617.47   78.18
   2  -4  -2 2548.51   85.82
  -2  -4   2 3006.99   86.29
   2  -4  -2 2798.23   78.59
  -2  -4   2 2496.91   74.22
  -2   4   1 1711.56  126.31
   2   4  -1 1850.15  134.43
   2   4  -1 1657.68  156.66
  -2   4   1 1407.55  100.84
  -2  -4   1 1479.61  107.20
   2  -4  -1 1752.23  129.67
  -2   4   0 5609.05  147.98
   2   4   0 5995.56  163.86
  -2   4   0 5606.35  143.44
   2   4   0 5804.23  147.89
   2  -4   0 5174.13  135.59
  -2  -4   0 5377.49  139.22
   2  -4   0 5336.41  153.90
  -2  -4   0 5489.05  162.22
  -2   4  -1  109.92   42.54
   2   4   1   56.87   32.10
  -2   4  -1   84.15   38.94
   2   4   1  106.74   29.52
   2  -4   1   51.08   26.86
  -2  -4  -1   11.81   23.87
   2  -4   1  157.10   24.63
  -2  -4  -1  123.88   58.12
  -2   4  -2 4165.07  205.48
   2   4   2 4140.06  206.84
   2   4   2 4231.27  245.00
  -2   4  -2 4448.54  220.46
  -2  -4  -2 4156.37  218.61
   2  -4   2 4345.58  213.61
   2  -4   2 4144.89  206.45
  -2  -4  -2 4116.54  198.61
   2   4   3 5151.42  280.93
  -2   4  -3 5194.49  258.24
   2   4   3 6425.00  308.00
   2  -4   3 5464.21  268.60
  -2  -4  -3 4897.12  241.75
   2  -4   3 5650.21  276.28
  -2  -4  -3 5429.88  258.82
  -2   4  -4 3986.37  195.01
  -2   4  -4 4665.45  232.47
   2   4   4 4301.80  219.61
   2   4   4 4089.65  197.87
   2  -4   4 4229.60  213.84
  -2  -4  -4 4028.25  192.47
  -2   4  -5  899.34   51.60
  -2   4  -5  852.97   62.52
   2   4   5  762.39   60.11
   2   4   5  880.75   54.70
   2  -4   5  794.86   49.78
  -2  -4  -5  844.21   49.29
  -2   4  -6 5230.56  253.59
   2   4   6 5614.95  264.93
   2   4   6 5169.83  259.80
  -2   4  -6 4876.11  243.82
   2  -4   6 5600.46  270.51
  -2  -4  -6 5311.94  249.81
  -2   4  -7 9389.70  234.84
  -2   4  -7 9473.40  324.06
   2   4   7 8840.58  239.22
   2  -4   7 9547.63  242.16
  -2   4  -861593.87 2534.72
   2  -4   861568.25 1472.97
  -2   4  -9 9404.16  231.15
  -2   4  -9 7207.54  370.23
   2   4   9 8938.84  269.76
   2  -4   9 9028.06  228.33
  -2   4 -10 5206.33  180.89
  -2   4 -10 4697.43  205.72
   2   4  10 5996.51  227.84
   2  -4  10 5557.02  200.50
  -2   4 -11 7836.66  235.63
   2   4  11 8515.89  337.46
  -2   4 -11 8272.12  274.71
   2  -4  11 8550.47  261.48
  -2   4 -12  415.99   27.44
   2   4  12  371.99   58.77
  -2   4 -12  361.85  128.30
   2  -4  12  426.83   37.63
  -2   4 -13  969.53   65.13
   2   4  13 1296.54  187.01
  -2   4 -13  815.91   75.53
   2  -4  13 1028.66   75.18
   2   4  14 1999.87  155.24
  -2   4 -14 1858.98  142.18
   2   4  15   -3.00   33.56
  -2   4 -15   69.13   50.51
   2   4  16 8889.38  346.88
  -2   4 -16 9864.70  388.04
  -2   4 -17  243.11   83.65
   2   4  18 1682.89  164.97
  -2   4 -18 1538.95  124.21
   2   4  19  501.53   68.28
  -2   4 -19  694.10  210.39
   2   4  20 3257.08  183.52
  -2   4 -20 3111.17  184.44
   2   4  21 1828.99  153.68
  -2   4 -21 2126.80  181.05
   2   4  22   45.75   38.74
  -2   4 -22   12.05   30.35
  -2   4 -23 1889.55  157.70
  -2   4 -24 1681.19  128.28
  -2   4 -25  253.46  137.00
   2   6 -25 2650.15  265.80
  -2   6  24   32.40   34.95
   2   6 -24   23.71   40.20
  -2   6  23   24.22   22.17
   2   6 -23   68.62   68.74
  -2   6  22  673.74   97.04
   2   6 -22  711.18   79.39
  -2   6  21 1966.24  191.50
   2   6 -21 2236.75  197.11
  -2   6  20 1025.59  173.96
   2   6 -20 1128.92  201.77
   2   6 -19  577.16  206.32
  -2   6  18 4488.56  184.94
   2   6 -18 4506.49  193.17
  -2   6  17 4254.84  116.61
   2   6 -17 3519.33  276.14
  -2   6  16 3114.70  302.32
   2   6 -16 3397.88  202.43
   2   6 -15    3.13    5.32
  -2   6  15   23.59   36.98
   2   6 -15   20.70   34.84
   2   6 -14  370.47   19.28
  -2   6  14  367.79   97.69
   2   6 -14  312.19  127.82
   2   6 -1310695.47  389.56
   2   6 -1310472.38  384.20
  -2   6  1311066.15  430.11
   2   6 -1310563.87  414.40
   2   6 -12   15.67   19.62
  -2   6  12   -1.97   28.13
   2   6 -12  -48.85   46.34
  -2  -6  12    8.18   11.27
   2  -6 -12    8.98   10.53
   2  -6 -12   12.67    6.08
   2   6 -11 1951.62  136.00
  -2   6  11 1983.72  150.02
   2   6 -11 2078.23  158.70
  -2  -6  11 1854.12  135.84
   2  -6 -11 1948.58  132.91
   2  -6 -11 1941.35  129.86
  -2   6  10 1240.68  110.05
   2   6 -10 1192.46  100.84
   2   6 -10 1312.96  143.24
  -2  -6  10 1368.62   98.87
   2  -6 -10 1236.86   96.44
   2  -6 -10 1374.15   93.61
  -2   6   9 6285.27  220.43
   2   6  -9 6180.91  200.79
   2   6  -9 5875.29  212.69
  -2  -6   9 6236.48  200.74
   2  -6  -9 6308.88  199.15
   2  -6  -9 6466.16  199.41
  -2   6   8 3697.61  202.37
   2   6  -8 3333.51  166.07
   2   6  -8 2969.70  167.45
   2  -6  -8 3719.75  188.39
   2  -6  -8 3530.13  173.79
  -2   6   7  638.68   64.40
   2   6  -7  751.96   61.24
  -2   6   7  480.97   43.41
   2   6  -7  497.47   64.72
   2  -6  -7  539.81   57.36
  -2   6   6  -49.39   44.68
   2   6  -6   20.19   32.77
  -2   6   6   13.16   17.30
   2   6  -6  -62.62   34.10
   2  -6  -6    1.81   13.76
  -2   6   5 2992.76  196.13
   2   6  -5 2547.69  159.30
  -2   6   5 2897.32  174.88
   2   6  -5 2300.07  225.86
   2  -6  -5 2702.92  166.35
  -2   6   410448.98  383.02
   2   6  -411459.51  408.66
  -2   6   410544.72  370.93
   2   6  -411971.36  428.55
   2  -6  -411122.45  393.79
  -2   6   3 5417.70  309.24
   2   6  -3 5163.42  198.62
  -2   6   3 5270.80  194.25
   2   6  -3 5313.05  205.92
  -2   6   233301.32 1150.92
   2   6  -234895.06  235.35
  -2   6   232816.69 1126.43
   2   6  -232448.66 1117.74
  -2   6   1  790.47  108.44
   2   6  -1  803.19   62.06
  -2   6   1  680.30   55.60
   2   6  -1  710.98   46.50
  -2   6   012180.26  321.26
   2   6   012168.34  328.01
  -2   6   012362.97  319.70
   2   6   011418.88  295.94
  -2   6  -116045.06  564.62
   2   6   116975.27  600.40
  -2   6  -119052.17  664.06
   2   6   116814.32  585.67
  -2  -6  -117382.74  603.04
  -2   6  -2  800.91   86.19
   2   6   2  542.23  155.27
  -2   6  -2  705.66   65.63
   2   6   2  625.13   43.06
  -2  -6  -2  570.14   35.63
  -2   6  -3 9952.77  367.01
   2   6   311371.55  414.02
  -2   6  -311145.88  400.08
   2   6   310575.60  371.42
  -2  -6  -310429.72  365.53
  -2   6  -4 1578.81  114.17
   2   6   4 1305.89  212.54
  -2   6  -4 1864.34  128.94
   2   6   4 1489.01   96.11
  -2  -6  -4 1598.53   99.31
  -2   6  -5  915.45   69.07
   2   6   5  843.70   72.92
  -2   6  -5  910.88   91.27
   2   6   5  896.51   77.52
  -2  -6  -5  936.18   63.68
  -2   6  -6   44.37   25.83
   2   6   6    1.41   29.53
   2   6   6    4.92   14.16
  -2   6  -6  -24.46   47.81
  -2  -6  -6    1.85   10.15
  -2   6  -714762.34  454.15
   2   6   714844.58  477.44
   2   6   714267.87  429.42
  -2   6  -715125.06  479.46
  -2  -6  -714756.80  443.26
  -2   6  -8 1925.95  110.43
   2   6   8 2131.78  127.36
   2   6   8 2061.71   99.74
  -2   6  -8 2079.04  227.26
  -2  -6  -8 2063.64   99.93
  -2   6  -9 3327.60  195.19
   2   6   9 3346.95  234.81
  -2   6  -9 3520.92  221.90
   2  -6   9 3643.13  214.94
  -2   6 -10  301.09   55.37
   2   6  10  339.40  174.59
  -2   6 -10  246.83  118.71
   2  -6  10  275.76   47.27
  -2   6 -11 1491.55   44.15
   2   6  11 1634.82  178.92
  -2   6 -11 1612.34   81.09
   2  -6  11 1206.29   56.71
  -2   6 -12  107.14   35.16
   2   6  12   69.40   54.26
  -2   6 -12  184.41  134.93
  -2   6 -13   32.96   15.43
   2   6  13   28.01   82.13
  -2   6 -13   25.27   34.38
  -2   6 -14   73.56   18.96
   2   6  14   83.39   78.81
  -2   6 -14   54.62   34.09
   2   6  15  996.10   58.42
  -2   6 -15 1420.59  134.95
   2   6  16  835.92  113.55
  -2   6 -16 1019.72   83.98
   2   6  17 3942.93  171.72
  -2   6 -17 3553.12  269.06
   2   6  19 2812.83  229.14
  -2   6 -19 2603.55  284.91
   2   6  20   18.60   36.25
  -2   6 -20   50.27   56.84
   2   6  21   43.20   37.20
  -2   6 -21   13.87   19.75
   2   6  22  539.64  137.14
  -2   6 -22  628.25   68.73
   2   6  23 1020.65  195.17
  -2   6 -23 1204.81  155.52
  -2   6 -24   33.23   48.71
  -2   8  22 1661.76  129.70
   2   8 -22 1561.82  135.33
  -2   8  21   97.23   54.58
   2   8 -21   64.85   35.28
  -2   8  20 1052.22  215.90
   2   8 -20 1178.84  242.56
  -2   8  19 5557.08  316.20
   2   8 -19 4689.26  290.50
  -2   8  18 1593.70  246.34
   2   8 -18 1142.08  215.03
  -2   8  17  809.33   96.00
   2   8 -17  626.58   85.40
  -2   8  16  438.13  185.21
   2   8 -16  593.41  227.67
  -2   8  15 1156.40  183.11
   2   8 -15 1199.13  101.45
   2   8 -14  471.57   29.19
  -2   8  14  611.79  252.75
   2   8 -14  426.30  179.60
   2   8 -13  115.03   46.04
  -2   8  13  114.43   93.87
   2   8 -13  156.32   95.41
   2   8 -12 2015.91  155.84
  -2   8  12 2265.47  232.61
   2   8 -12 2157.02  236.53
   2   8 -11  307.31  111.10
  -2   8  11  327.76   74.82
   2   8 -11  260.87   88.20
   2  -8 -11  345.87   50.93
  -2   8  10 2307.22  171.03
   2   8 -10 2708.13  234.98
   2   8 -10 3103.14  313.58
   2  -8 -10 2930.88  198.81
  -2   8   9  695.47  110.69
   2   8  -9  560.46   45.11
   2   8  -9  752.75   68.78
   2  -8  -9  766.42   59.58
  -2   8   8 2027.96   89.79
   2   8  -8 1925.15  130.92
  -2   8   8 1800.26  109.85
   2   8  -8 1793.82  174.34
  -2   8   7 1477.66  106.99
   2   8  -7 1471.71   90.79
  -2   8   7 1299.72   98.70
   2   8  -7 1510.39   99.32
  -2   8   617707.08  666.65
   2   8  -616869.57  638.01
  -2   8   618147.94  670.96
   2   8  -616306.72  613.85
  -2   8   5 8949.01  357.24
   2   8  -5 9405.61  365.41
  -2   8   5 9546.94  372.61
   2   8  -5 8820.71  348.83
  -2   8   4  347.09  103.35
   2   8  -4  284.45   74.21
   2   8  -4  254.28   77.79
  -2   8   3  547.81   60.98
   2   8  -3  588.66   49.89
  -2   8   3  587.81   57.69
   2   8  -3  636.80   87.38
  -2   8   2  127.89   91.31
   2   8  -2  194.24   45.30
  -2   8   2  173.18   56.06
   2   8  -2  291.49  107.14
  -2   8   1  128.82   35.56
   2   8  -1   32.87   26.34
  -2   8   1   91.10   45.36
   2   8  -1   62.78   41.50
  -2   8   0  379.66  111.88
   2   8   0  308.11   89.53
  -2   8   0  322.90  121.91
   2   8   0  308.94  117.02
  -2   8  -1  895.62  191.39
   2   8   1  781.94   76.34
  -2   8  -1  844.35   53.38
   2   8   1  787.96   65.24
  -2   8  -2 2141.17  169.73
   2   8   2 2175.49  202.92
  -2   8  -2 2045.41  185.41
  -2   8  -3   11.34   24.22
   2   8   3  -27.03   81.08
  -2   8  -3   40.72   45.64
   2   8   3   37.38   30.68
  -2   8  -432700.34 1194.86
   2   8   436128.44  344.68
  -2   8  -434057.23 1266.48
   2   8   433508.93 1222.63
  -2   8  -5  242.61   81.53
   2   8   5  293.40  206.49
   2   8   5  405.24   53.65
  -2   8  -5  322.76  113.09
  -2   8  -6 1105.31   98.94
   2   8   6 1071.26   94.63
   2   8   6 1199.00   65.10
  -2   8  -6 1146.45   83.70
  -2   8  -711648.83  566.63
   2   8   712408.02  603.55
   2   8   712822.86  600.88
  -2   8  -712067.16  584.92
  -2   8  -8  254.95  107.57
   2   8   8  339.16  168.42
   2   8   8  282.80   49.50
  -2   8  -8  298.17   97.73
  -2   8  -9 1913.12  137.53
   2   8   9 1815.09  164.50
  -2   8  -9 1957.62  153.74
  -2   8 -10 2755.07  191.56
   2   8  10 2551.41  247.41
  -2   8 -10 2488.29  188.18
  -2   8 -11  283.76   53.14
   2   8  11  205.85   97.10
  -2   8 -11  276.85  123.57
  -2   8 -12 1199.64   40.94
   2   8  12  968.23  291.95
  -2   8 -12 1433.47  169.71
  -2   8 -13  139.28   56.83
   2   8  13   88.56   54.24
  -2   8 -13   85.54   90.68
   2   8  14  161.13   73.67
  -2   8 -14   87.62   89.58
   2   8  15   60.04   59.28
  -2   8 -15   45.61   51.89
   2   8  16   35.22   36.78
  -2   8 -16  -13.53   66.85
   2   8  17 6745.60  520.31
  -2   8 -17 7804.37  574.62
   2   8  18 2656.39  171.24
  -2   8 -18 2909.58  195.54
  -2   8 -19 3411.93  219.72
   2   8  20 1661.27  234.87
  -2   8 -20 2108.81  171.43
   2   8  21  620.24   67.76
  -2   8 -21  669.04  113.82
  -2  10  18 1334.70  137.33
   2  10 -18 1058.87  103.32
  -2  10  17    4.84   54.36
   2  10 -17  -30.94   58.83
  -2  10  16 2716.20  293.24
   2  10 -16 3215.35  271.25
  -2  10  15 1277.72   86.45
   2  10 -15 1307.95  242.66
  -2  10  14  386.33  214.83
   2  10 -14  261.39  116.82
  -2  10  13 3722.99  289.56
   2  10 -13 4334.77  335.26
   2  10 -12 2244.70  174.13
  -2  10  12 1909.97  275.63
   2  10 -12 1528.07  166.86
   2  10 -11  715.44   47.59
  -2  10  11  677.75  204.19
   2  10 -11  614.98  173.57
   2  10 -10  459.83  172.93
  -2  10  10  397.67  138.27
   2  10 -10  438.19  166.25
   2  10  -9 3555.94  234.70
  -2  10   9 4072.29  278.28
   2  10  -9 3435.93  234.50
  -2  10   8 2301.38  205.34
   2  10  -8 2778.84  227.76
   2  10  -8 2535.48  258.35
  -2  10   7  659.73  206.75
   2  10  -7  899.27   65.91
  -2  10   7  766.00  116.76
   2  10  -7  790.67  243.64
  -2  10   6 1988.41  174.39
   2  10  -6 1923.36  172.28
  -2  10   6 1865.68  170.30
   2  10  -6 2244.43  195.44
  -2  10   5 2069.32  177.02
   2  10  -5 1892.48  153.35
  -2  10   5 1959.88  149.92
   2  10  -5 1881.62  199.77
  -2  10   4 1031.61   73.38
   2  10  -4 1295.97  110.18
  -2  10   4 1320.61   62.01
   2  10  -4 1174.93   94.44
  -2  10   3 3230.99  248.88
   2  10  -3 3196.10  245.30
  -2  10   3 3460.45  256.27
   2  10  -3 2953.83  297.27
  -2  10   2 1056.53  276.23
   2  10  -2 1008.04  164.63
  -2  10   2  977.18   57.73
   2  10  -2 1049.59   59.71
  -2  10   1  554.15   69.16
   2  10  -1  494.99  200.86
  -2  10   1  643.90   59.09
   2  10  -1  459.09   94.23
  -2  10   0   72.29   52.27
   2  10   0   57.50   62.03
   2  10   0   53.65   40.95
  -2  10  -1 5464.71  218.29
   2  10   1 4652.84  192.16
  -2  10  -1 4878.67  194.68
   2  10   1 4967.72  191.41
  -2  10  -2  718.51   98.94
   2  10   2  773.61  117.08
  -2  10  -2  731.57   53.92
   2  10   2  664.98  113.37
  -2  10  -3  198.97  110.77
   2  10   3  235.17  125.03
  -2  10  -3  436.57  122.14
   2  10   3  283.66  103.79
  -2  10  -4   11.01   33.33
   2  10   4   79.88   61.13
   2  10   4   18.86   15.77
  -2  10  -4   64.38   54.10
  -2  10  -5   96.92   51.34
   2  10   5   63.79   62.94
   2  10   5   98.61   44.18
  -2  10  -5   94.99   22.40
  -2  10  -6 1158.46  101.21
   2  10   6  909.54  197.09
  -2  10  -6 1171.22   80.80
  -2  10  -7 1370.50  134.05
   2  10   7 1411.27  151.62
  -2  10  -7 1501.76  142.00
  -2  10  -8   28.60   20.11
   2  10   8  -43.01   53.87
  -2  10  -8   25.01   32.08
  -2  10  -9 3389.06  269.95
   2  10   9 2592.86  266.85
  -2  10  -9 2995.52  282.97
  -2  10 -10  716.74   64.87
   2  10  10  811.61  166.82
  -2  10 -10  843.91   98.26
  -2  10 -11  -13.39   26.68
   2  10  11   74.48   57.47
  -2  10 -11   -0.56   52.63
   2  10  12 1042.94  237.11
  -2  10 -12 1034.19  210.14
   2  10  13  781.45  324.19
  -2  10 -13  922.73  203.77
   2  10  14 4297.86  259.21
  -2  10 -14 4622.07  279.28
   2  10  15  100.83   75.93
  -2  10 -15  -12.93   48.42
   2  10  16  989.41  100.52
  -2  10 -16  660.61  301.66
  -2  12  10  395.19  201.36
   2  12 -10  290.90  203.52
   2  12  -9  906.29   86.44
  -2  12   9  876.45  208.99
   2  12  -9  836.70  176.78
   2  12  -8  771.40   80.93
  -2  12   8  383.37  266.71
   2  12  -8  464.80  252.51
   2  12  -7 1305.51  177.52
  -2  12   7 1471.88  146.22
   2  12  -7 1581.27  147.29
   2  12  -6 2448.77  182.92
  -2  12   6 2502.89  251.13
   2  12  -5  867.35   93.86
  -2  12   5  874.31  124.14
   2  12  -5  792.33  139.32
  -2  12   4   59.87   53.22
   2  12  -4   30.85   60.91
   2  12  -4   22.51   53.29
  -2  12   3   54.06   58.35
   2  12  -3   60.54   78.94
  -2  12   3   18.67   29.00
   2  12  -3   40.29   42.74
  -2  12   2  233.09  118.91
   2  12  -2   60.73  112.74
  -2  12   2  169.45  112.60
   2  12  -2  183.51   82.41
  -2  12   1   24.20   44.71
   2  12  -1   51.92   85.16
  -2  12   1   42.39   45.50
   2  12  -1    5.73   29.26
  -2  12   0  402.27  159.94
   2  12   0  457.72  133.78
  -2  12   0  470.53   68.97
   2  12   0  540.48  177.19
  -2  12  -1   33.58   53.49
   2  12   1   10.27   67.52
  -2  12  -1   30.11   27.27
   2  12   1   -0.06   32.09
  -2  12  -2  433.53   53.93
   2  12   2  378.28  147.45
  -2  12  -2  201.30  155.03
  -2  12  -3  594.72   70.63
   2  12   3  772.52  159.60
  -2  12  -3  380.29  153.77
  -2  12  -4 2563.32  163.73
   2  12   4 2540.71  167.33
  -2  12  -5  710.02  124.75
   2  12   5  424.72  246.66
  -2  12  -5  615.50   70.53
  -2  12  -6 2942.06  210.17
   2  12   6 2874.51  218.02
  -2  12  -6 2858.23  212.78
  -2  12  -7 2467.10  180.48
   2  12   7 2205.51  177.95
  -2  12  -7 2550.24  196.57
  -2  12  -8    8.17   30.88
   2  12   8   62.92   40.70
  -2  12  -8   55.60   37.89
  -2  12  -9   38.34   42.13
   2  12   9   69.91   61.75
  -2  12  -9   39.73   37.02
   3   1 -26  629.96   51.90
   3   1 -25   13.07   37.63
   3   1 -24 5623.76  371.56
   3   1 -23  507.68   54.12
   3  -1 -23  535.01   73.59
   3   1 -22 2559.63  200.47
   3  -1 -22 2719.00  215.17
   3   1 -2116696.85  654.16
   3  -1 -2119118.35  738.57
  -3   1  20  340.76   43.38
   3   1 -20  360.58  123.93
   3  -1 -20  485.32   92.05
  -3   1  19   60.53   27.37
   3   1 -19   88.57   23.89
   3  -1 -19   48.65   17.63
  -3   1  18 1267.02   79.69
   3   1 -18 1361.75   69.74
   3  -1 -18 1122.80   44.34
   3  -1 -18 1146.24   51.16
  -3   1  17 2027.00  139.22
   3   1 -17 2277.52  144.19
   3  -1 -17 2052.11  141.44
   3  -1 -17 2577.89  155.73
  -3   1  16   19.93   12.89
   3   1 -16   36.05   17.81
  -3   1  16    5.76   19.02
   3  -1 -16    8.47    9.71
   3  -1 -16   28.69   18.03
  -3   1  15 1310.86   89.85
   3   1 -15 1292.83   95.05
  -3   1  15 1180.75   80.16
   3  -1 -15 1165.81   84.50
   3  -1 -15 1108.23   77.47
  -3   1  1413429.66  464.43
   3   1 -1411465.73  407.12
  -3   1  1411582.93  402.42
   3  -1 -1411457.09  403.46
   3  -1 -1412022.49  421.14
  -3   1  1317105.47  423.31
  -3   1  1318506.46  452.25
   3   1 -1317300.96  413.71
   3   1 -1318237.03  461.03
   3  -1 -1317904.54  446.70
   3  -1 -1317280.55  429.51
   3   1 -12  658.41   60.07
  -3   1  12  743.75   46.96
   3   1 -12  786.68   40.70
  -3   1  12  677.11   24.01
   3  -1 -12  822.03   67.87
  -3  -1  12  712.67   30.40
  -3  -1  12  712.17   50.54
   3  -1 -12  729.78   53.35
   3   1 -11  623.63   18.72
  -3   1  11  718.10   44.66
  -3   1  11  662.78   39.74
   3  -1 -11  700.22   50.15
  -3  -1  11  710.11   35.39
  -3  -1  11  745.35   80.61
   3  -1 -11  690.92   33.54
  -3   1  10  296.39   19.27
   3   1 -10  325.87   15.85
   3   1 -10  315.29   35.07
  -3  -1  10  311.73    8.58
   3  -1 -10  335.41   48.56
  -3  -1  10  263.83   99.79
   3  -1 -10  251.14   19.96
  -3   1   910342.59  239.82
   3   1  -9 8920.62  215.89
   3  -1  -910099.49  248.51
   3  -1  -9 9646.33  223.74
   3   1  -8  347.41   57.58
   3   1  -8  343.45   27.54
  -3   1   8  393.66   33.79
  -3   1   8  317.68   26.34
   3  -1  -8  440.93   56.81
  -3  -1   8  407.19   47.82
  -3  -1   8  343.57   25.56
  -3   1   7  827.77   60.65
   3   1  -7  906.79   62.27
  -3   1   7  852.29   60.88
   3   1  -7  794.63   65.81
  -3  -1   7  837.93   58.72
   3  -1  -7  839.26   60.22
  -3  -1   7  849.46   69.63
   3   1  -631509.58  705.20
   3  -1  -635483.08  790.42
  -3  -1   634586.04  770.78
  -3   1   418077.05  405.92
  -3  -1   416813.29  379.65
  -3   1   1   18.36   22.85
   3   1  -1   22.37   15.25
   3   1  -1   55.62   28.15
  -3  -1   1   44.85   16.45
   3  -1  -1   44.42   21.13
   3  -1  -1   20.50   30.84
  -3  -1   1   39.26   23.35
   3  -1  -1   30.68   19.38
   3   1   1  262.07   21.86
  -3   1  -1  253.80   22.17
   3   1   1  267.98   21.67
   3   1   1  254.89   28.17
  -3   1  -1  243.62   36.99
   3  -1   1  297.22   26.65
   3  -1   1  310.64   24.86
  -3  -1  -1  268.20   21.44
   3   1   4 5963.41  141.13
  -3   1  -4 5402.32  122.31
   3   1   4 5361.63  139.30
   3   1   4 5591.02  127.58
   3  -1   4 5971.50  135.75
   3  -1   4 5364.65  139.14
   3   1   526591.93  592.30
  -3   1  -527089.33  608.37
   3  -1   526754.44  601.41
   3   1   617495.01  399.98
   3   1   616467.09  374.43
  -3   1  -618644.38  425.16
   3   1   617649.28  395.41
   3  -1   616823.21  384.82
   3   1   7  672.48   52.33
  -3   1  -7  686.90   56.31
   3   1   7  726.68   56.50
   3   1   7  581.67   46.95
  -3   1  -7  549.25   50.02
  -3  -1  -7  584.08   42.39
   3  -1   7  631.79   44.80
   3  -1   7  699.75   55.68
  -3   1  -816963.37  424.67
   3   1   819877.23  498.40
   3   1   820212.74  511.18
   3   1   818104.24  454.39
   3  -1   819407.98  496.99
  -3  -1  -817672.08  442.29
   3   1   9 2157.64  106.90
  -3   1  -9 2359.59  133.56
   3   1   9 2489.39  131.60
   3   1   9 2114.71  105.41
   3  -1   9 2617.96  128.83
   3  -1   9 2526.82  120.35
  -3  -1  -9 2744.67  133.48
   3  -1   9 2704.50  158.24
   3   1  10   17.14   16.85
  -3   1 -10  -19.56   23.44
   3   1  10    7.23   23.47
   3   1  10   31.83   24.15
  -3  -1 -10    4.71   15.91
   3  -1  10   -1.84    6.80
   3  -1  10   35.92   23.64
   3  -1  10   15.57   13.45
   3   1  1116210.04  395.29
   3   1  1115205.18  378.11
   3   1  1116136.24  396.40
  -3   1 -1115601.05  412.51
  -3  -1 -1113916.94  341.84
   3  -1  1114324.38  371.47
   3  -1  1113653.75  332.65
   3   1  12 1177.89   74.38
  -3   1 -12 1004.31   72.13
   3   1  12 1222.95  100.00
   3   1  12 1248.73   78.33
   3  -1  12 1208.61   75.61
   3  -1  12 1097.57   66.11
  -3  -1 -12 1105.68   81.27
   3   1  13   97.62   25.56
  -3   1 -13   73.46   45.56
   3   1  13  101.07   25.47
   3   1  13  110.26   29.20
   3  -1  13   66.69   18.10
   3  -1  13  113.36   15.03
  -3  -1 -13   89.23   35.96
   3   1  1419790.06  595.89
  -3   1 -1419965.07  625.78
   3   1  1420829.43  632.80
   3   1  1419432.93  586.77
   3  -1  1420640.01  618.44
   3  -1  1421077.50  626.67
  -3  -1 -1419637.60  593.62
   3   1  15  366.25   24.03
  -3   1 -15  493.82  144.56
   3   1  15  376.61   23.29
   3   1  15  361.54   68.77
  -3  -1 -15  351.42  141.85
   3  -1  15  379.29   11.90
   3  -1  15  380.52   42.37
   3   1  16 8305.36  345.05
  -3   1 -16 6980.80  313.29
   3   1  16 8043.58  341.25
   3   1  16 7138.27  301.45
   3  -1  16 7878.55  328.49
   3  -1  16 7613.53  312.61
  -3  -1 -16 7401.97  319.49
   3   1  17 5299.58  294.31
  -3   1 -17 4210.44  240.39
   3  -1  17 4946.80  268.17
  -3  -1 -17 5389.82  296.26
   3   1  18  984.81   67.53
  -3   1 -18 1112.60   86.61
  -3  -1 -18 1132.66   75.11
   3   1  19 7708.58  301.55
  -3   1 -19 7476.58  318.23
  -3  -1 -19 7617.71  295.85
  -3   1 -20  245.21  104.42
  -3  -1 -20  281.06   90.55
  -3   1 -21 2050.40  211.97
  -3  -1 -21 2387.39  187.23
  -3   1 -22  235.93  120.72
  -3   1 -24 2709.92  214.08
   3   3 -27 2635.90  195.16
   3   3 -26  221.13  122.72
   3   3 -25  -14.05   33.71
   3   3 -24   19.80   36.80
   3   3 -23  288.45  133.23
  -3   3  22 1767.51  149.09
   3   3 -22 1179.35   60.39
  -3   3  21 1309.46   50.54
   3   3 -21 1310.25  102.82
  -3   3  20  162.93   39.88
   3   3 -20  178.84  151.02
   3  -3 -20  133.58   45.21
  -3   3  19 9536.56  470.11
   3   3 -1910054.79  491.46
   3  -3 -1910057.40  472.91
  -3   3  18  424.83  114.21
   3   3 -18  461.21  147.78
   3  -3 -18  585.15   36.65
   3   3 -17   -1.41   16.66
  -3   3  17    4.34   13.41
   3  -3 -17   13.14   12.24
  -3   3  16   19.42   21.85
   3   3 -16   37.94   30.71
  -3   3  16    8.36    8.02
   3  -3 -16   11.39   10.06
  -3   3  15  207.99   33.29
   3   3 -15  173.74   98.32
  -3   3  15  163.75   25.66
   3  -3 -15  166.06   22.17
  -3   3  14  182.24   66.00
   3   3 -14  221.03   81.31
  -3   3  14  206.06   27.06
   3  -3 -14  207.57   28.66
  -3   3  13  831.46   74.59
   3   3 -13  910.54   87.52
  -3   3  13  856.80   54.16
   3  -3 -13  812.77   55.78
  -3   3  12 5298.18  199.01
   3   3 -12 5020.37  214.39
  -3   3  12 5197.66  181.71
   3  -3 -12 5396.28  192.40
   3   3 -11 5316.01  128.24
  -3   3  11 4596.26  208.74
   3   3 -11 4872.37  202.23
   3   3 -11 4500.57  228.27
  -3   3  11 5623.36  142.10
   3  -3 -11 4664.73  198.78
   3   3 -10 2584.53  121.73
  -3   3  10 2316.02  128.12
   3   3 -10 2468.42  119.50
   3   3 -10 2145.17  122.40
  -3   3  10 2424.45  116.81
   3  -3 -10 2477.06  119.70
  -3   3   942934.73 1081.93
   3   3  -942570.94 1071.17
   3   3  -812051.95  301.79
  -3   3   812557.53  342.47
   3   3  -812276.82  311.20
   3   3  -812350.70  345.47
   3  -3  -812502.96  316.78
   3  -3  -812610.70  316.80
   3   3  -7  156.10   31.56
  -3   3   7   91.52   52.53
   3   3  -7  123.01   29.66
   3   3  -7  113.87   44.64
   3  -3  -7  141.10   30.54
   3  -3  -7  117.24   11.38
  -3  -3   7  184.98   53.30
   3  -3  -7  136.18   29.30
  -3   3   6  184.07   78.58
   3   3  -6  147.97   96.85
   3   3  -6  136.05   35.16
  -3  -3   6  155.80   20.67
   3  -3  -6  183.29   34.23
   3  -3  -6  169.97   54.41
  -3  -3   6  129.76   60.68
   3  -3  -6  135.49   15.39
  -3   3   516540.61  384.40
   3   3  -515808.07  368.94
   3  -3  -517013.14  395.77
   3  -3  -516608.55  375.31
  -3  -3   516109.44  364.31
  -3  -3   516187.03  375.57
   3  -3  -515608.18  351.45
  -3   3   425474.18  589.21
   3   3  -426804.87  607.71
   3   3  -424285.21  550.90
   3  -3  -427411.68  622.08
  -3   3   3  534.77  138.97
   3   3  -3  597.81   63.76
   3   3  -3  423.93  234.25
  -3   3   3  501.84   48.99
  -3  -3   3  429.26   36.29
   3  -3  -3  309.11   31.42
  -3  -3   3  488.83   43.24
  -3   3   220344.80  465.49
   3   3  -221539.87  488.03
  -3   3   219897.65  448.62
   3   3  -218244.62  417.08
   3  -3  -219112.17  437.94
  -3  -3   219722.58  446.75
   3  -3  -220954.51  473.85
  -3  -3   219913.66  451.12
   3   3  -124994.64  627.11
  -3   3   125887.95  583.84
   3  -3  -125077.79  567.91
  -3  -3   125962.82  583.89
   3  -3  -126343.66  592.99
  -3  -3   128569.11  640.11
  -3   3   022045.34  499.78
   3   3   022355.54  509.23
  -3   3   021995.55  498.06
   3   3   023273.91  525.74
   3  -3   024968.60  564.96
  -3  -3   022749.98  520.43
   3  -3   021725.02  492.76
  -3   3  -1  675.62   55.46
   3   3   1  605.36   55.58
  -3   3  -1  706.29   56.51
   3   3   1  413.83  167.37
   3  -3   1  618.13   59.36
  -3  -3  -1  747.81   57.13
   3  -3   1  725.27   82.50
  -3   3  -2 2775.46   77.02
   3   3   2 3291.72   97.45
  -3   3  -2 2828.86   86.59
   3   3   2 3007.72   80.39
   3  -3   2 3178.33   87.63
  -3  -3  -2 3196.06  104.44
   3  -3   2 3145.93   89.55
  -3  -3  -2 2865.56   71.61
  -3   3  -3 7028.51  167.77
   3   3   3 6656.04  170.46
  -3   3  -3 6136.91  171.02
   3   3   3 7350.70  169.95
   3  -3   3 6372.21  155.67
  -3  -3  -3 6838.85  171.45
   3  -3   3 7172.01  177.91
  -3  -3  -3 7241.64  165.68
   3   3   4 3954.63   94.76
   3   3   4 4036.46  115.10
  -3  -3  -4 4171.00  110.99
   3  -3   4 4315.66  117.15
   3  -3   4 4353.13  111.61
  -3  -3  -4 3901.08   93.78
  -3   3  -5 1961.19   96.85
   3   3   5 2034.03  114.57
  -3   3  -5 2433.05  128.97
   3   3   5 2321.80  111.91
   3  -3   5 2259.42  114.58
  -3  -3  -5 2324.83  121.03
   3  -3   5 2225.41  117.79
  -3  -3  -5 2063.79   98.83
  -3   3  -6 6462.05  305.85
   3   3   6 6899.84  334.84
  -3   3  -6 7138.97  210.74
   3  -3   6 6607.05  314.86
  -3  -3  -6 6613.49  319.59
  -3   3  -7  550.57   17.04
  -3   3  -7  625.40  144.24
   3   3   7  695.24   80.83
   3  -3   7  506.47   33.71
  -3   3  -8 1028.83   51.57
  -3   3  -8 1019.86   75.16
   3   3   8 1092.57   69.16
   3  -3   8  933.50   51.44
  -3   3  -9 8910.91  215.42
  -3   3  -9 8462.21  270.82
  -3   3 -10 9205.09  222.47
  -3   3 -1010441.07  279.60
   3   3  10 8792.36  245.24
   3  -3  10 8809.51  219.20
  -3   3 -11 6339.12  217.51
  -3   3 -11 6331.45  240.27
   3  -3  11 6018.37  210.32
  -3   3 -12   88.73   18.42
  -3   3 -12   72.94   27.56
   3   3  12   27.12   55.55
   3  -3  12   79.78   19.48
   3   3  13 8685.43  283.14
  -3   3 -13 9864.71  320.30
   3  -3  13 9302.69  280.25
   3  -3  13 9386.28  281.25
   3   3  14 1793.42  169.40
  -3   3 -14 2112.26  160.02
   3  -3  14 2158.22  122.52
   3  -3  14 2067.10  136.72
   3   3  15 2202.27  202.25
  -3   3 -15 2945.87  218.08
  -3   3 -16 4943.90  286.59
   3   3  1710370.25  498.08
  -3   3 -1710133.34  491.24
   3   3  18   47.70   32.16
  -3   3 -18   12.05   49.96
   3   3  19 1239.36  109.54
  -3   3 -19 1574.35  135.62
   3   3  20 1141.73   53.82
  -3   3 -20 1147.13   67.38
   3   3  21 1937.24  159.15
  -3   3 -21 2308.99  195.80
  -3   3 -22 1521.82  153.71
  -3   3 -23 1071.82   94.29
  -3   3 -24  116.59   83.46
  -3   3 -25   56.74   59.99
  -3   3 -26 1346.20  112.00
   3   5 -26  144.19  111.73
   3   5 -25 2026.29  157.03
   3   5 -24  563.44   56.09
  -3   5  23  631.57  111.87
   3   5 -23  521.10  115.74
  -3   5  22 7075.48  549.18
   3   5 -22 8094.65  632.75
  -3   5  21    7.63   15.07
   3   5 -21   23.28   39.54
  -3   5  20 3118.78  235.01
   3   5 -20 2694.25  243.27
  -3   5  19 4348.19  253.43
   3   5 -19 4283.89  125.45
  -3   5  18  248.18   94.62
   3   5 -18  355.47  150.29
  -3   5  17   45.30   23.08
   3   5 -17   25.65   63.29
  -3   5  16 7504.87  371.45
   3   5 -16 6714.94  419.72
  -3   5  15 3179.10  211.83
   3   5 -15 4260.05  255.66
   3  -5 -15 3906.25  210.84
   3  -5 -15 3723.76  201.07
   3   5 -14  110.40   21.82
   3   5 -14   98.06   28.68
  -3   5  14  100.45   51.09
   3   5 -14  175.15  107.58
   3  -5 -14   97.76   26.31
   3  -5 -14  107.14   28.08
   3   5 -13  103.46   25.71
  -3   5  13  145.29   54.24
   3   5 -13   97.37   29.28
   3   5 -13  106.16   46.76
   3  -5 -13    2.96   14.60
   3  -5 -13  110.13   25.13
   3   5 -1212874.50  314.40
  -3   5  1211719.30  317.43
   3   5 -1211142.28  278.45
   3   5 -1211094.04  309.30
   3  -5 -1210943.65  270.32
   3  -5 -1211027.20  269.60
   3   5 -11  909.62   61.78
  -3   5  11  822.41  108.94
   3   5 -11 1052.10   76.04
   3   5 -11  895.44  264.04
   3  -5 -11  764.12   56.43
   3  -5 -11  907.81   61.00
  -3   5  10 1468.32  107.45
   3   5 -10 1447.62  112.80
   3   5 -10 1685.17  136.22
   3  -5 -10 1650.68  112.79
  -3  -5  10 1616.85  108.11
   3  -5 -10 1515.14   97.04
  -3   5   9  730.79  111.89
   3   5  -9  726.80   51.87
   3   5  -9  674.04   78.24
   3  -5  -9  636.26   56.33
  -3  -5   9  682.93   60.61
   3  -5  -9  622.90   42.12
  -3   5   8  226.74  120.10
   3   5  -8  351.87   44.55
   3   5  -8  458.32  158.20
   3  -5  -8  368.50   28.46
  -3  -5   8  360.78   53.16
   3  -5  -8  286.08   39.34
  -3   5   7   76.08   39.29
   3   5  -7   39.40   37.81
   3   5  -7   31.60   15.75
   3  -5  -7   23.26   17.87
  -3  -5   7    0.70   19.58
   3  -5  -7   19.95   11.78
  -3   5   6 3026.19  166.99
   3   5  -6 3253.18  163.76
  -3   5   6 3217.17  157.99
   3   5  -6 3463.28  178.57
  -3  -5   6 2982.44  149.34
   3  -5  -6 3280.04  160.41
  -3   5   5 1058.81   76.18
   3   5  -5 1015.60   66.63
  -3   5   5 1130.28   81.98
   3   5  -5  830.19   59.56
  -3  -5   5 1183.55   67.86
   3  -5  -5 1127.73   63.18
   3   5  -4 5450.93  154.05
  -3   5   4 4869.78  208.78
   3   5  -4 5146.36  164.65
  -3  -5   4 4903.00  213.85
   3  -5  -4 4902.33  226.46
  -3   5   3 7968.48  221.02
  -3   5   3 8226.21  217.05
   3   5  -3 8426.93  225.81
   3  -5  -3 8069.47  210.89
  -3   5   2 7235.97  237.81
   3   5  -2 7285.43  209.01
  -3   5   2 7371.19  218.27
   3   5  -2 7554.24  208.23
   3  -5  -2 7156.08  196.20
  -3   5   1  505.70   45.16
   3   5  -1  422.89   59.30
  -3   5   1  458.02   36.82
   3   5  -1  564.07   30.37
   3  -5  -1  515.56   27.77
  -3  -5   1  526.33   32.24
  -3   5   0  121.69   45.27
   3   5   0  107.52   56.52
  -3   5   0  187.17   54.22
  -3  -5   0  132.90   37.80
  -3   5  -1  270.63   33.08
   3   5   1  175.63   78.38
  -3   5  -1  251.70   75.22
   3   5   1  289.54   84.23
  -3  -5  -1  187.59   71.25
   3   5   2 2278.37  162.09
  -3   5  -2 2196.86  116.78
   3   5   2 2490.95  141.53
  -3  -5  -2 2639.07  130.35
  -3   5  -321445.07  537.47
   3   5   321975.80  552.30
  -3   5  -324169.83  600.20
   3   5   324378.51  593.46
  -3  -5  -324171.11  588.85
  -3   5  -4 3327.40  165.07
  -3   5  -4 3398.52  176.34
   3   5   4 3208.86  176.01
   3   5   4 3548.07  171.55
   3  -5   4 2978.95  259.37
  -3  -5  -4 3731.29  179.31
  -3   5  -5 4652.73  202.40
  -3   5  -5 3986.94  202.98
   3   5   5 4489.87  253.23
   3   5   5 4129.49  202.22
   3  -5   5 4672.86  206.18
  -3  -5  -5 4810.80  202.16
  -3   5  -6  781.23   54.96
  -3   5  -6  899.35  127.18
   3   5   6  819.74  127.75
   3   5   6  826.40   52.99
   3  -5   6  734.61   81.06
  -3  -5  -6  758.46   47.10
  -3   5  -7  600.52   38.74
   3   5   7  554.62   35.96
   3   5   7  616.51   57.36
  -3   5  -7  561.36   75.19
   3  -5   7  512.34   59.64
  -3  -5  -7  570.66   27.28
  -3   5  -8 1492.11   93.10
  -3   5  -8 1412.65  107.19
   3   5   8 1418.63  126.18
   3  -5   8 1434.74   93.76
  -3   5  -9 2866.59  138.94
  -3   5  -9 2901.86  169.21
   3   5   9 2751.59  231.53
   3  -5   9 2912.65  145.61
  -3   5 -10 2727.88  139.11
  -3   5 -10 3044.46  165.50
   3   5  10 2574.31  169.20
   3  -5  10 2439.05  123.58
  -3   5 -11 6609.24  166.16
   3   5  11 7351.51  240.19
  -3   5 -11 7467.08  231.25
   3  -5  11 7001.78  184.67
  -3   5 -1240963.40  131.22
   3   5  1234322.14 1434.75
  -3   5 -1236068.35 1630.02
   3  -5  1241544.79  194.41
  -3   5 -1327605.39  989.69
   3   5  1327810.49 1028.40
  -3   5 -1325246.93  932.96
  -3   5 -14 7749.68  280.20
   3   5  14 8729.70  363.08
  -3   5 -14 6361.02  307.22
  -3   5 -15   47.10   11.68
   3   5  15   40.89   15.92
  -3   5 -15   58.04   48.58
   3   5  16  135.04   65.19
  -3   5 -16  188.33   98.39
  -3   5 -17  740.72   84.28
   3   5  18  932.92   99.96
  -3   5 -18  715.90  240.58
   3   5  19 4262.71  267.11
  -3   5 -19 4291.46  274.26
   3   5  20 1944.46  164.31
  -3   5 -20 2213.81  187.64
   3   5  21  127.84   51.61
  -3   5 -21  150.06   62.58
   3   5  22  280.31  124.88
  -3   5 -22  208.56  145.95
  -3   5 -23  159.56   66.54
  -3   5 -24  121.46   55.19
  -3   7  24   10.31   31.56
   3   7 -24   11.49   26.64
  -3   7  2310379.42  207.01
   3   7 -23 8800.29  583.54
  -3   7  22   24.48   39.17
   3   7 -22   44.21   49.11
  -3   7  21  877.69  170.97
   3   7 -21  606.24  269.69
  -3   7  20  303.67  213.52
   3   7 -20  433.79  125.16
   3   7 -19 3717.16  305.97
  -3   7  18  159.53   71.09
   3   7 -18  345.21  162.70
  -3   7  17   23.31   22.01
   3   7 -17   32.30   49.13
  -3   7  16   19.96   37.67
   3   7 -16   10.56   30.72
   3   7 -15  328.98   33.40
  -3   7  15  365.34  114.71
   3   7 -15  362.43  189.99
   3   7 -14  756.31   59.32
  -3   7  14  735.12  199.59
   3   7 -14  516.57  185.98
  -3   7  13 3412.47  241.81
   3   7 -13 3709.39  254.47
   3   7 -13 3768.55  265.89
   3  -7 -13 3447.70  223.97
  -3   7  12  665.07  149.89
   3   7 -12  553.83   84.25
   3   7 -12  516.64  168.64
   3  -7 -12  552.43   21.04
  -3   7  11 1575.13  192.87
   3   7 -11 1771.87  110.14
   3   7 -11 1813.78  182.15
   3  -7 -11 1678.48   83.28
   3  -7 -11 1716.88   82.65
  -3   7  10 1425.92  125.30
   3   7 -10 1540.61   82.98
   3   7 -10 1751.07  118.94
   3  -7 -10 1419.58   86.35
   3  -7 -10 1334.84   67.80
  -3   7   9  636.13  222.99
   3   7  -9  592.71   39.40
   3   7  -9  580.44  181.17
   3  -7  -9  524.60   53.07
   3  -7  -9  594.53   35.93
   3   7  -8  412.63   35.67
   3   7  -8  585.20  177.12
   3  -7  -8  510.09   46.75
   3  -7  -8  468.69   52.31
  -3   7   7 9926.49  323.05
   3   7  -7 9524.66  288.56
  -3   7   7 9626.96  247.81
   3   7  -7 9332.94  271.97
  -3   7   6 1949.42  151.78
   3   7  -6 2414.78  155.68
   3   7  -6 2002.93  201.97
  -3   7   5   19.82   31.58
   3   7  -5   19.82   23.09
  -3   7   5   19.99   14.31
   3   7  -5  -26.98   49.07
  -3   7   4  702.68  183.10
   3   7  -4  797.64   73.05
  -3   7   4  716.49   64.92
   3   7  -4  776.27  118.13
  -3   7   3  550.87  130.35
   3   7  -3  547.46  152.92
  -3   7   3  591.18   77.93
   3   7  -3  489.65   58.54
  -3   7   2  373.33  111.24
   3   7  -2  331.44  126.59
  -3   7   2  349.50  101.90
   3   7  -2  385.30   45.33
  -3   7   1  275.68   41.52
   3   7  -1  258.88  127.27
  -3   7   1  235.50   54.88
   3   7  -1  230.17   57.63
  -3   7   0  576.75   76.95
   3   7   0  544.24   56.47
  -3   7   0  524.80  142.72
   3   7   0  529.96   79.54
  -3   7  -1 2689.74  172.76
   3   7   1 2899.97  161.10
  -3   7  -1 2499.22  146.03
   3   7   1 2553.23  134.18
  -3   7  -2   46.45   43.07
   3   7   2   21.91   23.63
  -3   7  -2   34.69   23.51
   3   7   2    9.09   13.00
  -3   7  -3 1651.86  133.88
   3   7   3 1748.81  140.79
  -3   7  -3 2227.76  144.69
   3   7   3 1671.25  120.29
  -3   7  -4   42.85   33.72
   3   7   4   22.65   32.33
  -3   7  -4   23.83   21.91
   3   7   4   14.32   11.86
  -3  -7  -4    5.31   12.67
  -3   7  -5 6243.60  362.93
   3   7   5 6180.71  381.51
  -3   7  -5 6669.95  203.76
   3   7   5 6035.74  346.66
  -3  -7  -5 6566.76  172.96
  -3   7  -6 1752.58  130.85
   3   7   6 2038.02  170.80
   3   7   6 1563.31   40.61
  -3   7  -6 1489.17   73.09
  -3  -7  -6 1804.02  127.29
  -3   7  -7  577.46   74.09
   3   7   7  573.79  125.01
   3   7   7  497.49   26.43
  -3   7  -7  541.80  203.54
  -3  -7  -7  466.50   28.21
  -3   7  -8 2366.23  144.50
   3   7   8 2431.87  163.96
   3   7   8 2270.83  126.00
  -3   7  -8 1927.20  120.52
  -3  -7  -8 2191.93   34.97
  -3   7  -9 8954.82  360.81
   3   7   9 9195.10  368.88
   3   7   9 9043.70  326.51
  -3   7  -9 8847.93  360.69
  -3  -7  -9 8782.79  316.82
  -3   7 -1015518.89  728.04
   3   7  1015018.04  723.55
  -3   7 -1015432.92  739.33
  -3   7 -11 1125.83   72.63
   3   7  11 1131.99  118.01
  -3   7 -11 1016.24  382.67
  -3   7 -12   22.37   11.89
   3   7  12   36.57   51.47
  -3   7 -12   58.51   37.84
  -3   7 -13  795.02   27.65
   3   7  13  837.48   88.77
  -3   7 -13  904.33  167.66
  -3   7 -14  280.39   20.45
   3   7  14  323.87  103.34
  -3   7 -14  311.91  164.76
   3   7  15 6204.23  245.69
  -3   7 -15 6825.71  267.60
   3   7  16 1759.27  155.89
  -3   7 -16 1521.80  249.45
   3   7  17 6232.06  382.26
  -3   7 -17 6812.32  412.36
  -3   7 -18  672.29  237.64
   3   7  19 4137.37  319.56
  -3   7 -19 4123.07  317.00
   3   7  20  151.53   66.08
  -3   7 -20  152.98  122.53
   3   7  21   71.44   55.09
  -3   7 -21   38.71   58.84
   3   7  22   53.72   71.76
  -3   7 -22  157.86  142.52
   3   9 -20 4669.15  284.74
   3   9 -19  137.57   77.41
  -3   9  18  431.94   96.56
   3   9 -18  346.16  202.12
  -3   9  17   43.25   65.47
   3   9 -17   17.39   42.29
  -3   9  16  995.00  147.95
   3   9 -16  963.91  121.78
  -3   9  15   80.65   72.69
   3   9 -15  140.99   84.98
  -3   9  14  151.01   43.97
   3   9 -14  122.04   42.25
   3   9 -13 1087.75   50.58
  -3   9  13 1260.92  132.98
   3   9 -13  791.90   70.17
   3   9 -12 6257.82  326.33
  -3   9  12 6373.55  352.29
   3   9 -12 6104.68  349.36
  -3   9  11   73.62   53.82
   3   9 -11  232.90   42.57
   3   9 -11  153.03   86.62
  -3   9  10 9908.72  365.50
   3   9 -10 9322.68  361.05
   3   9 -10 9154.61  340.41
   3  -9 -10 9757.56  331.19
  -3   9   9 6205.33  358.26
   3   9  -9 5774.32  323.06
   3   9  -9 5776.26  353.92
   3  -9  -9 5905.41  320.24
  -3   9   8 6890.58  391.65
   3   9  -8 6134.73  344.10
  -3   9   8 6940.73  375.16
   3   9  -8 6490.03  369.09
  -3   9   7 3835.61  316.17
   3   9  -7 3400.20  262.26
  -3   9   7 3068.09  236.35
   3   9  -7 3307.50  289.19
  -3   9   6 7415.05  317.36
   3   9  -6 7246.50  300.12
  -3   9   6 7033.27  294.26
   3   9  -6 7624.16  373.54
  -3   9   5  154.75   85.19
   3   9  -5  279.35   72.90
  -3   9   5  129.56   52.45
   3   9  -5  138.09   33.96
  -3   9   4  398.77   70.73
   3   9  -4  237.82   65.33
  -3   9   4  354.27   42.25
   3   9  -4  218.92  112.13
  -3   9   3 2969.67  230.03
   3   9  -3 3325.45  105.06
   3   9  -3 2952.67  211.01
  -3   9   2  195.79   82.50
   3   9  -2  180.35   97.41
  -3   9   2  168.16   40.38
   3   9  -2  221.32  111.69
  -3   9   1   32.78   42.34
   3   9  -1   31.81   26.40
  -3   9   1    6.65   19.70
   3   9  -1   24.84   19.45
  -3   9   0  823.43   92.07
   3   9   0  938.73  224.65
  -3   9   0  778.18   68.48
  -3   9  -1  291.27   77.50
   3   9   1  265.79  211.23
  -3   9  -1  217.93   82.38
   3   9   1  209.28   62.59
  -3   9  -2   57.50   38.18
   3   9   2   48.30   56.42
  -3   9  -2   91.05   53.84
   3   9   2   39.82   22.53
  -3   9  -3  505.77   56.07
   3   9   3  620.60   66.10
  -3   9  -3  862.48   56.23
   3   9   3  621.41   92.55
  -3   9  -4  387.66   41.71
   3   9   4  335.38  160.91
  -3   9  -4  588.40  129.22
   3   9   4  425.25  117.89
  -3   9  -5   46.75   43.03
   3   9   5   17.73   47.27
   3   9   5   78.52   18.69
  -3   9  -5   46.62   75.67
  -3   9  -6  648.35  104.40
   3   9   6  683.24  179.60
   3   9   6  541.88   72.99
  -3   9  -6  764.85   61.17
  -3   9  -7 4554.16  258.71
   3   9   7 3490.63  275.25
  -3   9  -7 3647.78  322.84
  -3   9  -8   11.83   27.76
   3   9   8   -9.66   54.50
  -3   9  -8   -9.60   63.43
  -3   9  -9  250.56  105.36
   3   9   9  189.80  122.27
  -3   9  -9  189.51  168.76
  -3   9 -10  805.32   43.97
   3   9  10 1124.34  240.69
  -3   9 -10  621.67  230.32
  -3   9 -11  149.44   67.25
   3   9  11  256.54  114.87
  -3   9 -11   98.26   68.42
  -3   9 -12 4655.50  271.51
   3   9  12 4718.57  296.44
  -3   9 -12 4579.62  289.86
   3   9  13 1555.68  208.58
  -3   9 -13  968.77  314.18
   3   9  14  316.55  131.93
  -3   9 -14  355.58  147.13
   3   9  15  657.16  280.38
  -3   9 -15  883.80  204.09
   3   9  16  479.78  188.14
  -3   9 -16  474.45  204.40
   3   9  17 1425.44   90.93
  -3   9 -17 1358.70  207.02
   3   9  18 2332.03  284.89
  -3   9 -18 2857.03  216.02
   3  11 -15  229.54  181.58
  -3  11  14  140.78   70.86
   3  11 -14   -4.83   63.64
  -3  11  13 4574.31  324.09
   3  11 -13 5352.24  374.31
  -3  11  12  280.34   63.54
   3  11 -12  105.81  115.16
  -3  11  11 4783.17  292.70
   3  11 -11 4290.35  245.92
   3  11 -11 4713.54  283.03
  -3  11  10   41.53   43.32
   3  11 -10  183.31   36.34
   3  11 -10  107.01   63.54
  -3  11   9 5846.04  333.79
   3  11  -9 5778.67  332.38
   3  11  -9 6330.34  356.57
  -3  11   8  409.42  213.20
   3  11  -8  290.24  129.34
   3  11  -8  488.31   66.26
  -3  11   7   85.54  109.80
   3  11  -7  226.91  147.55
   3  11  -7  274.36  119.24
  -3  11   6    0.31   30.09
   3  11  -6   46.48   43.13
   3  11  -6   -4.77   46.28
  -3  11   5   43.28   68.61
   3  11  -5   38.48   55.16
  -3  11   5  129.65   37.25
   3  11  -5  168.97   88.05
  -3  11   4  487.78  109.06
   3  11  -4  330.98  215.76
  -3  11   4  546.58   42.96
  -3  11   3  627.31  119.22
   3  11  -3  775.41   93.53
  -3  11   3  769.48   56.75
   3  11  -3  640.65   61.24
  -3  11   2   31.60   55.14
   3  11  -2   43.63   39.09
  -3  11   2   10.18   45.90
   3  11  -2   68.09   59.61
  -3  11   1  881.31  101.31
   3  11  -1 1363.83  144.18
  -3  11   1 1152.07  188.58
   3  11  -1 1120.23  120.01
  -3  11   0  216.11   89.64
   3  11   0  203.50   92.68
  -3  11   0  213.82  138.65
   3  11   0  227.14  120.97
  -3  11  -1 1677.48  168.77
   3  11   1 1523.69  158.87
   3  11   1 1272.35  129.49
  -3  11  -2 2379.30  201.68
   3  11   2 1891.88  189.39
  -3  11  -2 2229.42  189.90
   3  11   2 2228.10  185.73
  -3  11  -3    9.28   38.38
   3  11   3   68.38   36.20
  -3  11  -3   18.34   74.42
   3  11   3   35.25   31.12
  -3  11  -4   59.90   91.75
   3  11   4   77.35   70.78
  -3  11  -4  113.85   67.94
  -3  11  -5  231.71   85.12
   3  11   5  183.28  119.03
  -3  11  -5  300.81  160.20
  -3  11  -6 1135.59  104.06
   3  11   6  846.49  178.62
  -3  11  -6  878.30  208.73
  -3  11  -7 2617.48  163.11
   3  11   7 2317.59  184.80
  -3  11  -7 2740.66  226.62
  -3  11  -8   16.28   22.21
   3  11   8  -44.55   55.10
  -3  11  -8   49.59   57.14
  -3  11  -9    5.26   44.39
   3  11   9   29.27   34.58
  -3  11  -9   22.81   47.38
  -3  11 -10  206.63  154.91
   3  11  10  254.63  124.17
  -3  11 -10  206.67  127.15
   3  11  11  945.91  219.00
  -3  11 -11  576.40  287.44
   3  11  12  795.30  181.92
  -3  11 -12  527.80  270.28
   3  11  13 5160.04  317.87
  -3  11 -13 5665.54  342.22
   4   0 -25   -0.74   37.38
   4   0 -2410703.26  629.11
   4   0 -23   16.35   17.82
   4   0 -22 5209.85  308.18
   4   0 -21   -1.08   25.77
  -4   0  20    3.65    3.76
   4   0 -20   24.10   21.57
  -4   0  19    4.74    4.82
   4   0 -19   12.31   11.03
   4   0 -19    3.77   14.77
  -4   0  18  407.44   15.95
   4   0 -18  360.51   30.82
   4   0 -18  387.33  102.19
  -4   0  17   35.63   15.78
   4   0 -17    5.85   11.13
   4   0 -17   -5.72   21.13
  -4   0  1621700.77  648.21
   4   0 -1623157.51  694.03
   4   0 -1622619.97  689.50
   4   0 -15   26.50   12.23
   4   0 -15   22.81   19.60
  -4   0  14 9455.88  324.79
   4   0 -14 9369.54  327.27
   4   0 -14 9968.67  353.94
  -4   0  13    7.50    7.58
   4   0 -13    5.83   10.30
   4   0 -13   12.28   28.49
  -4   0  13   -5.62   40.11
  -4   0  12 2403.09  118.57
   4   0 -12 2272.22  112.05
   4   0 -12 2148.47  111.00
  -4   0  12 2264.95  134.22
  -4   0  11    8.39    9.59
   4   0 -11    2.79    9.97
   4   0 -11   14.92   15.94
  -4   0  11   13.20   15.83
  -4   0  1014125.98  355.58
   4   0 -1014798.59  376.51
  -4   0  1014719.67  377.46
  -4   0   9   13.33    9.44
   4   0  -9    3.86   13.33
   4   0  -9   34.09   16.87
  -4   0   9    6.67   12.94
  -4   0   8 8976.36  203.43
   4   0  -8 9718.27  223.42
   4   0  -8 8593.53  208.18
  -4   0   8 9594.83  224.75
  -4   0   7    3.23    5.24
   4   0  -7   -4.69   21.08
  -4   0   7   14.35   12.31
   4   0  -617617.18  394.43
  -4   0   617636.24  397.04
  -4   0   5    4.74    8.90
   4   0  -5    8.22    7.08
   4   0  -5   20.21   17.64
  -4   0   5   -6.97   14.73
  -4   0   3   11.65   10.78
   4   0  -3    8.15    7.75
   4   0  -3   14.51   16.46
  -4   0   3   17.64   15.40
  -4   0   1   23.52   12.52
   4   0  -1    3.45   12.30
   4   0  -1   10.93    6.32
  -4   0   1    5.42   15.51
   4   0   013515.85  303.91
  -4   0   013032.03  293.40
  -4   0  -1    3.61    8.88
   4   0   1    3.24    7.59
   4   0   1    0.41   12.71
  -4   0  -1   40.50   16.12
  -4   0  -3    5.94   12.27
   4   0   3    4.54    7.71
  -4   0  -3   13.63   17.38
   4   0   3  -10.03   14.52
  -4   0  -416862.06  377.41
   4   0   415885.40  358.76
  -4   0  -5   -3.96   12.60
   4   0   5    1.41    7.18
  -4   0  -5    1.92    6.36
   4   0   5    7.96    9.15
   4   0   7    2.65   11.19
   4   0   7   13.89    9.98
  -4   0  -7   22.20   10.78
   4   0   7    4.82   20.70
   4   0   8 5155.90  245.83
   4   0   8 5349.63  257.88
  -4   0  -8 5417.34  261.17
   4   0   8 4767.12  232.02
   4   0   9   -5.35    7.40
   4   0   9   16.04   17.38
  -4   0  -9   21.13   19.45
   4   0   9   19.56   20.26
   4   0  10 1096.36   55.19
   4   0  10 1048.02   57.38
  -4   0 -10  963.24   78.61
   4   0  10 1117.39   94.71
   4   0  11    6.01    4.40
   4   0  11    4.90   13.47
  -4   0 -11  -35.44   20.83
   4   0  11    7.01   15.73
   4   0  12 1134.73   68.35
   4   0  12 1216.02  102.12
  -4   0 -12 1005.83   68.36
   4   0  12 1027.18   88.80
   4   0  13    1.11    6.57
   4   0  13   36.17   33.61
  -4   0 -13    9.00   12.66
   4   0  13   15.38   24.47
   4   0  14 5637.79  172.77
   4   0  14 5660.01  181.92
  -4   0 -14 5528.82   78.29
   4   0  15    7.64   11.23
   4   0  15    7.18   11.33
  -4   0 -15   16.16   17.78
   4   0  16   40.74   15.16
   4   0  16   70.81   19.40
  -4   0 -16   56.39   23.04
   4   0  17    8.59   11.51
  -4   0 -17   -9.92   21.74
   4   0  18 1697.25  105.27
  -4   0 -18 1649.97  106.16
  -4   0 -19   -1.68   13.70
  -4   0 -21    3.39   20.12
  -4   0 -22 2642.15  205.95
   4   2 -28 1924.67  130.84
   4   2 -27 3898.77  227.01
   4   2 -26   85.27   50.02
   4   2 -25  263.04  127.89
   4   2 -24   64.89   48.12
   4   2 -23 6659.25  354.98
  -4   2  22  192.14   71.52
   4   2 -22  230.98   74.72
   4  -2 -22  310.77   84.53
  -4   2  21 6420.13  353.69
   4   2 -21 6098.85  344.13
   4  -2 -21 5836.57  318.63
  -4   2  20 5160.41  339.67
   4   2 -20 4533.88  307.99
   4  -2 -20 4549.93  303.17
  -4   2  19 2582.72  149.03
   4   2 -19 3082.22  188.91
   4  -2 -19 2575.45  154.08
  -4   2  18 6354.69  243.94
   4   2 -18 6427.17  304.60
   4  -2 -18 5786.87  323.65
  -4   2  17   28.57   32.16
   4   2 -17   44.29   44.87
  -4   2  17   23.58   13.87
   4  -2 -17    6.81   13.48
  -4   2  16 2255.01  159.25
   4   2 -16 2091.79  155.31
  -4   2  16 2272.05  134.15
   4  -2 -16 2253.85  147.61
  -4   2  15 2313.94  125.94
   4   2 -15 2226.11  122.41
  -4   2  15 2464.99  122.14
   4  -2 -15 2152.74  109.38
  -4   2  1419123.99  661.73
   4   2 -1416590.97  583.15
  -4   2  1419536.01  669.56
   4  -2 -1418281.85  636.51
   4  -2 -1418360.21  632.21
  -4   2  13  175.60   51.44
   4   2 -13  154.37   18.98
  -4   2  13  143.51   53.50
   4   2 -13  146.27   11.51
   4   2 -13  219.40   62.74
   4  -2 -13  143.66   47.94
   4  -2 -13   92.78   29.08
   4   2 -1220030.53  478.72
  -4   2  1219189.87  484.39
  -4   2  1219116.04  465.59
   4   2 -1219481.94  465.53
   4   2 -1217918.28  451.34
   4  -2 -1218752.06  461.89
   4  -2 -1221493.49  531.79
   4   2 -11 2266.85  107.62
  -4   2  11 1842.54   98.09
  -4   2  11 2266.46  112.45
   4   2 -11 2234.22  106.89
   4   2 -11 2459.80  131.43
   4  -2 -11 2033.36  114.11
   4  -2 -11 2076.17  108.49
  -4   2  1030658.64  769.99
  -4   2  1032918.23  820.56
   4   2 -1031630.88  802.71
   4  -2 -1032522.77  821.76
   4   2  -9  718.24   36.46
  -4   2   9  641.71   41.06
   4   2  -9  808.27   59.38
   4   2  -9  643.69   25.76
  -4   2   9  820.73   45.13
   4  -2  -9  702.44   61.23
   4  -2  -9  671.00   24.75
  -4  -2   9  789.73   86.62
   4   2  -8   82.29    9.93
  -4   2   8   45.18   19.67
   4   2  -8   59.64   22.51
   4   2  -8   80.59   26.74
  -4   2   8   86.17   27.57
   4  -2  -8   99.19   22.37
  -4  -2   8   71.45   39.84
   4   2  -7 8103.95  182.41
  -4   2   7 7995.94  185.89
   4   2  -7 7794.25  178.84
   4   2  -7 7927.32  196.68
  -4  -2   7 9185.48  222.59
   4  -2  -7 8374.20  206.67
   4   2  -6   10.42   21.71
  -4   2   6  -10.04   31.01
   4   2  -6   17.83   21.25
  -4   2   6   76.57   27.89
   4  -2  -6   22.42   15.16
  -4  -2   6   -5.12   18.04
  -4   2   425133.93  566.17
   4   2  -428332.82  636.59
   4  -2  -428400.58  638.69
  -4  -2   427142.28  608.87
   4  -2  -425358.09  565.00
  -4   2   334595.80  772.18
   4  -2  -329028.50  652.26
   4   2  -2    5.03    9.51
  -4   2   2  -21.59   23.68
   4   2  -2   -6.12   19.13
   4   2  -2   16.92   13.48
   4  -2  -2   19.57   24.97
   4  -2  -2   11.15    9.30
  -4  -2   2    8.95   12.39
   4  -2  -2   11.34   15.79
   4   2   0 8813.03  203.95
  -4   2   0 8712.43  203.55
   4   2   0 8689.54  200.73
   4   2   0 9008.73  211.89
  -4   2   0 8337.59  205.26
   4  -2   0 9215.60  216.12
   4  -2   0 8641.61  202.71
  -4  -2   0 9340.06  213.77
  -4   2  -1 1260.80   88.74
   4   2   1 1307.16   92.90
   4   2   1 1437.08  104.49
  -4   2  -1 1403.32   99.78
   4  -2   1 1504.79  106.93
   4  -2   1 1413.06   99.65
  -4  -2  -1 1387.80   96.45
  -4   2  -2 1647.91  114.33
   4   2   2 1601.35  113.29
  -4   2  -2 1688.83  120.81
   4   2   2 1797.03  122.80
   4  -2   2 1688.33  119.04
  -4  -2  -2 1908.98  134.08
   4  -2   2 2162.20   45.53
  -4   2  -3 2136.97   31.44
   4   2   3 2347.39   70.41
  -4   2  -3 2074.15   62.25
   4   2   3 2199.21   55.91
   4  -2   3 2482.51   67.14
  -4  -2  -3 2353.75   74.74
   4  -2   3 2142.76   50.46
  -4  -2  -3 2212.61   55.37
   4   2   4   14.39   28.21
  -4   2  -4   -6.62   27.00
   4   2   4   10.86   10.35
   4  -2   4   -1.99   15.41
  -4  -2  -4   -9.38   21.25
   4  -2   4   11.84   19.05
  -4  -2  -4    7.75    7.38
  -4   2  -5 7729.95  191.43
   4   2   5 7494.09  184.70
   4   2   5 7220.42  164.20
   4   2   5 7685.70  174.53
   4  -2   5 7029.10  164.90
   4  -2   5 7101.46  175.99
  -4  -2  -5 6900.79  171.62
  -4   2  -6 7021.09  329.90
  -4   2  -6 6481.04  313.52
   4   2   6 6525.89  315.19
   4   2   6 7176.46  181.22
   4   2   6 7361.05  186.53
   4  -2   6 7547.68  198.88
   4  -2   6 7357.26  200.69
  -4  -2  -6 7751.56  204.11
  -4   2  -7  584.09   14.43
   4   2   7  697.83   46.86
   4   2   7  814.94   82.57
   4   2   7  628.80   25.16
  -4   2  -7  655.97   33.97
   4  -2   7  650.02   20.62
   4  -2   7  581.82   66.24
  -4  -2  -7  578.87   23.80
  -4   2  -8 4847.48  228.84
   4   2   8 4681.17  223.36
   4   2   8 4823.27  241.76
  -4   2  -8 5333.71  262.44
   4   2   8 5112.38  241.20
  -4  -2  -8 5302.99  255.90
   4  -2   8 4647.04  224.67
  -4   2  -9 1137.08   55.84
   4   2   9 1226.79   62.64
   4   2   9 1209.97   90.05
   4   2   9 1198.39   64.55
  -4  -2  -9 1501.29   79.74
   4  -2   9 1230.69   61.89
   4   2  10 5523.52  151.28
  -4   2 -10 5393.83  134.78
  -4   2 -10 4917.07  219.44
   4   2  10 5691.87  158.71
   4   2  10 5435.65  136.00
   4  -2  10 5730.20  144.15
  -4   2 -11 6737.54  233.11
   4   2  11 7859.15  270.87
   4   2  11 7985.31  295.28
  -4   2 -11 7196.08  290.82
   4   2  11 7739.06  269.00
   4  -2  11 7090.46  245.71
   4   2  12 1428.45   86.15
   4   2  12 1436.34   96.70
  -4   2 -12 1485.81  205.11
   4   2  12 1531.28   91.28
   4  -2  12 1492.20   89.64
   4  -2  12 1289.03   79.30
   4   2  1310052.77  304.99
   4   2  13 8975.03  300.60
  -4   2 -13 8903.82  373.62
   4   2  1310565.62  318.80
   4  -2  1310822.75  327.56
   4  -2  1310704.30  323.04
   4   2  14 3997.41  229.64
   4   2  14 4637.84  278.69
  -4   2 -14 5115.98  301.71
   4   2  14 4162.71  237.17
   4  -2  14 3978.75  229.02
   4  -2  14 4746.49  271.97
  -4   2 -15 1945.81  148.08
   4   2  15 2171.40  152.48
   4  -2  15 2212.42  152.23
   4  -2  15 2002.84  141.09
   4   2  16 1734.66   95.29
  -4   2 -16 1886.52  105.54
   4  -2  16 1476.23   69.52
   4   2  17 1351.65  108.33
  -4   2 -17 1349.41   95.85
   4   2  18   99.66   44.75
  -4   2 -18   50.39   44.57
   4   2  19  373.43   51.59
  -4   2 -19  273.39  130.94
   4   2  20  619.34   84.68
  -4   2 -20  629.33   52.87
  -4   2 -21 7031.36  368.54
  -4   2 -22   89.29   45.83
  -4   2 -23 4511.97  339.41
  -4   2 -24   21.71   27.97
   4   4 -27   39.25   26.14
   4   4 -26 4511.53  262.32
   4   4 -25 2004.53  167.81
   4   4 -24   -5.31   38.35
  -4   4  23  348.86   40.82
   4   4 -23  322.81  119.52
  -4   4  22 5970.79  320.12
   4   4 -22 6402.81  346.32
  -4   4  21   71.85   61.15
   4   4 -21  138.13   59.44
  -4   4  20 7062.93  388.47
  -4   4  19  990.33   84.89
   4   4 -19  938.88   81.80
   4  -4 -19  845.60   27.28
   4   4 -18 1722.67  184.04
   4  -4 -18 1760.40  107.39
  -4   4  17 1180.43  194.29
   4   4 -17  964.65   80.08
   4  -4 -17  915.56   49.44
   4  -4 -17  920.20   73.21
  -4   4  16 1351.36   68.29
   4   4 -16 1337.00   77.75
   4  -4 -16 1097.72   33.11
   4  -4 -16 1159.15   43.22
  -4   4  1510266.40  449.66
   4   4 -1511088.31  478.49
   4  -4 -1510743.55  443.10
   4  -4 -15 9548.63  395.11
   4   4 -14  108.44   14.27
  -4   4  14   98.72   54.19
   4   4 -14   93.46   17.70
   4   4 -14  112.68   45.05
   4  -4 -14  130.71   15.29
   4  -4 -14  100.73   31.34
   4   4 -13 3915.58  181.37
  -4   4  13 3453.36  177.68
   4   4 -13 3640.07  173.80
   4   4 -13 3539.31  188.25
   4  -4 -13 3961.16  190.10
   4  -4 -13 3990.34  190.68
   4   4 -1217839.80  530.54
  -4   4  1215284.86  477.69
   4   4 -1216227.76  488.45
   4   4 -1215454.32  523.58
   4  -4 -1216570.15  498.53
   4  -4 -1215632.05  471.62
   4   4 -11 4703.63  164.15
  -4   4  11 4628.00  193.40
   4   4 -11 4675.49  167.33
   4   4 -11 4990.83  201.46
   4  -4 -11 4791.05  172.56
   4  -4 -11 5264.83  185.17
   4   4 -10 4371.77  206.37
  -4   4  10 4079.03  204.85
   4   4 -10 4300.85  208.37
   4   4 -10 4390.43  246.45
   4  -4 -10 4163.96  199.16
   4  -4 -10 4371.78  207.66
   4   4  -9  745.67   42.85
  -4   4   9  234.76  110.80
   4   4  -9  595.77   45.95
   4   4  -9  661.25   46.56
   4  -4  -9  589.94   44.86
   4  -4  -9  644.67   21.95
   4   4  -829736.30  714.76
  -4   4   826533.53  659.89
   4   4  -828506.54  691.00
   4   4  -827012.77  670.75
   4  -4  -829467.02  710.93
  -4   4   714566.65  385.31
   4   4  -714735.28  378.84
   4   4  -714788.11  393.57
   4  -4  -714634.42  372.77
   4  -4  -714757.28  373.09
  -4   4   6 5974.16  310.67
   4   4  -6 7351.26  198.17
   4   4  -6 5718.89  291.17
   4  -4  -6 7691.31  204.96
  -4  -4   6 7063.84   70.47
   4  -4  -6 7315.21  192.12
  -4   4   5  742.24  102.20
   4   4  -5  510.03   68.38
   4   4  -5  547.41   40.74
   4  -4  -5  585.16   31.43
  -4  -4   5  637.04   29.23
   4  -4  -5  527.34   38.74
  -4   4   4 3465.36  189.66
  -4   4   4 3738.49  182.37
   4   4  -4 4005.81  202.08
  -4  -4   4 3970.96  194.02
   4  -4  -4 3861.60  189.35
  -4  -4   4 3744.29  186.61
  -4   4   3 3949.36  199.34
   4   4  -3 3762.52  187.14
  -4   4   3 3340.73  169.23
   4   4  -3 3494.40  179.93
  -4  -4   3 3459.96  170.09
   4  -4  -3 3925.36  192.92
  -4  -4   3 3906.88  196.25
  -4   4   213473.75  354.80
   4   4  -213560.22  372.24
   4   4  -213304.52  347.52
  -4   4   214054.78  361.26
  -4  -4   213626.97  352.05
   4  -4  -212106.42  319.68
  -4   4   1   34.59   45.99
   4   4  -1   26.29   23.02
  -4   4   1   41.03   24.75
   4   4  -1  -14.08   25.87
   4  -4  -1   -1.18   20.17
  -4  -4   1   15.10   15.38
   4  -4  -1   59.34   32.48
  -4  -4   1   16.93   10.03
  -4   4   0 9865.52  263.84
   4   4   010388.97  279.86
  -4   4   010877.28  286.53
   4   4   010206.75  269.44
   4  -4   011767.86  310.99
  -4  -4   010259.22  271.65
   4  -4   010627.21  281.62
  -4  -4   011277.84  291.99
  -4   4  -1  832.54   73.08
   4   4   1  710.82   43.78
   4   4   1  993.19   70.86
  -4   4  -1  881.49   60.02
   4  -4   1  923.24   63.76
   4  -4   1  993.67   59.66
  -4  -4  -1  875.67   49.50
  -4   4  -2  108.62   36.60
  -4   4  -2   78.50   49.32
   4   4   2   49.86   36.60
   4   4   2   87.32   22.21
   4  -4   2   85.43   49.23
  -4  -4  -2  108.60   30.13
  -4   4  -3 9503.18  259.05
   4   4   3 9461.93  259.42
   4   4   310424.45  268.08
   4  -4   311379.88  307.97
  -4  -4  -310956.83  280.89
  -4   4  -413063.12  337.40
  -4   4  -412806.74  338.27
   4   4   413486.81  359.78
   4   4   413616.28  344.67
   4  -4   414675.53  380.42
  -4  -4  -414027.01  351.75
  -4   4  -5 6002.53  287.65
  -4   4  -5 6474.98  319.01
   4   4   5 5905.58  292.63
   4   4   5 6003.49  284.68
   4  -4   5 5790.19  282.58
  -4  -4  -5 5953.59  280.74
  -4   4  -6  852.47   48.36
  -4   4  -6  864.81  124.29
   4   4   6  783.54   62.84
   4   4   6  678.73   35.94
   4  -4   6  705.99   42.52
  -4  -4  -6  708.43   33.27
  -4   4  -7 4458.51  212.30
  -4   4  -7 4695.45  211.62
   4   4   7 4031.96  211.16
   4  -4   7 4625.49  199.96
  -4  -4  -7 4446.82  206.98
  -4   4  -8   15.10    9.49
  -4   4  -8   14.89   36.77
   4   4   8   45.17   36.83
   4  -4   8    3.03   12.89
  -4   4  -9  298.86   33.79
  -4   4  -9  261.51  133.74
   4   4   9  320.30   84.95
   4  -4   9  346.15   55.98
  -4   4 -1026103.97  776.29
  -4   4 -1031311.21  954.27
   4   4  1026945.58  824.95
   4  -4  1026579.10  797.72
  -4   4 -11 2521.21  123.65
  -4   4 -11 2174.29  123.45
   4   4  11 2632.98  155.29
   4  -4  11 2483.03  123.06
  -4   4 -1214987.97  361.95
   4   4  1214084.37  396.22
   4  -4  1215409.40  380.46
  -4   4 -13    9.82    5.98
  -4   4 -13   25.73   32.01
   4   4  13   29.09   44.45
   4  -4  13    4.96    9.98
  -4   4 -14 1252.09   58.26
  -4   4 -14 1641.66  236.15
   4   4  14 1565.45  118.83
   4  -4  14 1377.53   66.80
   4   4  15 5351.09  307.16
  -4   4 -15 4744.03  275.90
   4  -4  15 4641.51  249.82
   4   4  16  474.38   62.04
  -4   4 -16  541.75  240.99
   4   4  17 2606.99  221.95
  -4   4 -17 2700.31  273.96
   4   4  18   59.44   57.30
  -4   4 -18  100.84   41.58
   4   4  19  340.66   67.88
  -4   4 -19  400.16  139.39
   4   4  20 6574.92  423.13
  -4   4 -20 6441.60  386.57
   4   4  21  703.87  139.39
  -4   4 -21  772.12  131.86
  -4   4 -22 3894.85  296.35
  -4   4 -23  200.32  116.18
  -4   4 -24  206.23  139.95
  -4   4 -25   35.35   41.06
   4   6 -25 3225.84  209.84
  -4   6  24 2071.25  137.00
   4   6 -24 2197.20  154.87
  -4   6  23 1667.47  137.89
   4   6 -23 1412.26  192.66
  -4   6  22   10.59   29.86
   4   6 -22   14.19   18.07
  -4   6  21   20.90   25.50
   4   6 -21   40.19   36.01
  -4   6  20  417.28  148.42
   4   6 -20  448.96  210.38
   4   6 -19   98.88   38.71
  -4   6  18   52.86   64.04
   4   6 -18   64.08   37.83
  -4   6  17  337.61  139.12
   4   6 -17  516.87  160.29
  -4   6  16 8883.74  361.21
   4   6 -16 7746.97  355.61
   4   6 -15  687.37   24.46
  -4   6  15  722.16  199.74
   4   6 -15  757.63  191.06
   4  -6 -15  683.02   21.14
  -4   6  14  544.50   70.86
   4   6 -14  518.87   55.72
   4   6 -14  467.36  165.02
   4  -6 -14  484.01   37.50
   4  -6 -14  520.58   31.02
   4   6 -1310569.83  387.14
  -4   6  1310141.36  439.30
   4   6 -13 9650.70  357.35
   4   6 -13 9042.60  363.78
   4  -6 -13 9930.46  364.36
   4  -6 -13 9820.64  357.73
   4   6 -12   54.29   21.65
  -4   6  12  134.29   59.89
   4   6 -12  129.04   40.99
   4   6 -12  157.65   53.21
   4  -6 -12   60.86   46.57
   4  -6 -12  128.05   43.05
   4   6 -11 4726.38  205.99
  -4   6  11 4560.39  215.05
   4   6 -11 4522.53  198.09
   4   6 -11 4902.41  234.11
   4  -6 -11 4671.98  273.00
   4  -6 -11 4661.00  268.85
  -4   6  10 5639.69  335.10
   4   6 -10 5581.80  326.07
   4   6 -10 4978.90  305.60
   4  -6 -10 5381.48  312.31
   4  -6 -10 5557.92  316.74
  -4   6   9   79.77  106.65
   4   6  -9   22.65   29.52
   4   6  -9   24.35   59.66
   4  -6  -9  -17.74   17.21
   4  -6  -9   -1.13   14.00
  -4   6   8 1127.87   97.80
   4   6  -8  886.20  101.53
   4   6  -8  640.03   70.29
   4  -6  -8  901.74  108.54
   4  -6  -8  996.24   75.29
  -4   6   7 2670.91  147.99
   4   6  -7 2938.44  165.56
   4   6  -7 3637.91  195.46
   4  -6  -7 2965.11  148.34
   4  -6  -7 3102.48  151.02
  -4   6   6   48.10   77.04
   4   6  -6   88.64   48.54
  -4   6   6   36.15   26.23
   4   6  -6   93.28   60.56
   4   6  -5 3547.92  217.59
  -4   6   5 3331.74  217.38
   4   6  -5 2859.69  185.92
  -4   6   4 3810.21  157.81
   4   6  -4 4021.77  159.91
  -4   6   4 3564.50  219.65
   4   6  -4 3773.87  179.53
  -4   6   3 6619.74  251.09
   4   6  -3 6613.41  248.23
  -4   6   3 6789.27  270.22
   4   6  -3 7254.94  277.55
  -4   6   2  696.55  117.34
   4   6  -2  467.89  206.24
  -4   6   2  579.48   74.29
   4   6  -2  421.79   38.81
  -4   6   1 7977.60  295.75
   4   6  -1 9172.24  335.36
  -4   6   1 8619.20  342.59
   4   6  -1 8542.51  335.96
  -4   6   022487.41  782.91
   4   6   021431.68  750.65
  -4   6   021250.32  738.16
   4   6   022693.03  794.70
  -4   6  -1  440.92  112.89
   4   6   1  -20.23  150.83
  -4   6  -1  355.74  106.62
   4   6   1  366.30   35.58
  -4  -6  -1  416.10   35.39
  -4   6  -2  122.90   40.36
   4   6   2  182.07   82.12
  -4   6  -2  158.06   48.05
   4   6   2  194.63   76.30
  -4  -6  -2  166.35   58.20
  -4   6  -313174.37  476.63
   4   6   313034.34  470.02
  -4   6  -311699.70  443.30
   4   6   312891.15  458.12
  -4  -6  -312663.88  439.35
  -4   6  -4 1716.48  123.74
   4   6   4 1359.91  106.92
  -4   6  -4 1822.20  167.43
   4   6   4 1671.43  116.74
  -4  -6  -4 1932.35   96.87
  -4   6  -5  107.80   36.90
   4   6   5  153.09   81.63
  -4   6  -5   52.62   97.35
   4   6   5   76.45   30.38
  -4  -6  -5  102.36   22.15
  -4   6  -6 2689.58  160.03
   4   6   6 3060.04  173.40
  -4   6  -6 2702.07  148.58
   4   6   6 2877.61  139.36
  -4  -6  -6 3063.53  145.98
  -4   6  -7 9593.90  249.43
   4   6   7 9432.85  272.06
  -4   6  -7 9377.52  374.22
   4   6   710759.46  266.23
  -4  -6  -710404.95  256.17
  -4   6  -819353.24  479.36
   4   6   817050.99  455.93
   4   6   817599.51  423.95
  -4   6  -818904.13  566.16
  -4  -6  -818916.30  453.73
  -4   6  -9 5154.08  221.16
   4   6   9 5280.65  276.40
  -4   6  -9 4430.16  316.92
  -4   6 -10  472.92   28.02
   4   6  10  479.00  174.67
  -4   6 -10  457.20   80.83
  -4   6 -11   11.55   22.07
   4   6  11   51.31   54.00
  -4   6 -11   84.87   68.19
  -4   6 -12  917.05   57.19
   4   6  12  806.49   89.76
  -4   6 -12 1066.41  139.25
  -4   6 -13  119.90   38.63
   4   6  13  173.68   87.41
  -4   6 -13  101.66   45.19
  -4   6 -14   11.75    8.24
   4   6  14   27.22   53.21
  -4   6 -14  -21.41   44.75
   4   6  15   56.52   29.23
  -4   6 -15   46.06   52.43
   4   6  16   29.44   25.24
  -4   6 -16   13.91   30.20
   4   6  17 1254.60  170.04
  -4   6 -17 1128.29  156.49
   4   6  18 3338.64  218.51
  -4   6 -18 3957.17  251.48
   4   6  19   21.06   49.13
  -4   6 -19   23.03   33.56
   4   6  20   60.98   33.37
  -4   6 -20   25.62   48.13
   4   6  21 4739.52  275.32
  -4   6 -21 4687.61  380.82
   4   6  22 2452.91  184.13
  -4   6 -22 2656.63  205.18
  -4   6 -23 1151.36  102.67
  -4   8  22  740.97  117.53
   4   8 -22  965.16  190.67
  -4   8  21  631.63  238.86
   4   8 -21  403.57  221.43
   4   8 -20   99.00   64.36
  -4   8  19  239.94   96.41
   4   8 -19  146.56   86.36
  -4   8  18  560.86   58.75
   4   8 -18  456.51  220.75
  -4   8  17    6.23   32.49
   4   8 -17   -5.04   53.48
  -4   8  16 8537.48  507.19
   4   8 -16 8036.38  485.49
  -4   8  15  139.17   57.92
   4   8 -15   58.99   34.00
  -4   8  14 5127.82  210.70
   4   8 -14 5412.56  193.36
   4   8 -14 4892.94  202.52
  -4   8  13 1018.84   75.52
   4   8 -13  984.09   48.08
   4   8 -13  845.59  299.30
  -4   8  12  360.66  121.54
   4   8 -12  479.80   77.43
   4   8 -12  412.94  124.33
   4  -8 -12  426.54   21.32
  -4   8  11   68.10   45.58
   4   8 -11   22.80   29.00
   4   8 -11  103.66   73.49
   4  -8 -11   90.53   42.80
  -4   8  10 3630.07  177.72
   4   8 -10 3101.00  217.02
   4   8 -10 2914.57  215.01
   4  -8 -10 2872.22  194.34
  -4   8   9   52.58   31.93
   4   8  -9   24.27   28.22
   4   8  -9   28.61   24.70
   4  -8  -9   16.08   12.32
  -4   8   8  853.74  132.90
   4   8  -8  687.75  179.28
   4   8  -8  594.43   60.24
   4  -8  -8  704.24   38.94
  -4   8   7 6201.02  262.13
   4   8  -7 5779.55  327.40
  -4   8   7 6359.59  244.97
   4   8  -7 5900.40  341.86
  -4   8   6 3285.96  220.18
   4   8  -6 3683.34  217.63
  -4   8   6 3117.37  184.08
   4   8  -6 3591.02  323.95
  -4   8   5 5620.97  344.89
   4   8  -5 4773.85  277.56
   4   8  -5 5025.95  333.83
  -4   8   420575.31  806.21
   4   8  -421005.69  782.76
  -4   8   420038.10  735.77
   4   8  -420989.52  780.23
  -4   8   3 2052.31  127.23
   4   8  -3 2353.17  202.68
  -4   8   3 2434.70  148.21
   4   8  -3 2344.21  158.23
  -4   8   2 2830.10  179.93
   4   8  -2 2851.93  180.11
  -4   8   2 2591.95  157.36
   4   8  -2 2447.01  151.90
  -4   8   1  721.87  123.12
   4   8  -1  790.44  195.65
  -4   8   1  785.02   78.96
   4   8  -1  697.22   59.73
  -4   8   0  570.63  179.85
   4   8   0  556.89  199.43
  -4   8   0  498.78  197.21
   4   8   0  648.75   78.63
  -4   8  -113919.91  579.47
   4   8   114953.40  570.17
  -4   8  -113545.64  512.06
  -4   8  -210259.52  395.23
   4   8   210191.20  405.51
  -4   8  -210547.39  408.39
   4   8   210490.94  395.91
  -4   8  -3 2805.40  168.86
   4   8   3 2507.95  224.61
  -4   8  -3 2579.61  179.54
   4   8   3 2852.23  165.85
  -4   8  -4 5716.82  323.25
   4   8   4 5191.14  305.30
  -4   8  -4 5449.64  314.26
   4   8   4 5050.89  289.47
  -4   8  -5 3158.58  215.38
   4   8   5 2677.94  197.61
  -4   8  -5 2925.71  205.58
   4   8   5 3031.87  204.71
  -4   8  -6 6798.64  370.20
   4   8   6 6811.99  351.55
  -4   8  -6 7888.86  391.74
   4   8   6 6946.50  333.59
  -4   8  -7 1953.23  128.30
   4   8   7 1920.65  276.67
   4   8   7 1869.44  120.94
  -4   8  -7 1932.33  159.50
  -4   8  -8 2296.73  163.58
   4   8   8 1967.61  160.71
  -4   8  -8 2401.45  184.06
  -4   8  -9  110.86   42.56
   4   8   9  113.14   53.20
  -4   8  -9   89.66   50.08
  -4   8 -10 6050.81  337.11
   4   8  10 5836.26  338.63
  -4   8 -10 5775.76  332.79
  -4   8 -11  403.13   48.74
   4   8  11  293.31  122.93
  -4   8 -11  365.52  162.63
  -4   8 -12 7749.31  262.82
   4   8  12 7326.99  291.00
  -4   8 -12 7207.80  310.83
  -4   8 -13  428.78   63.19
   4   8  13  458.75  117.15
  -4   8 -13  405.59  160.06
   4   8  14  200.03  125.31
  -4   8 -14  153.26   82.83
   4   8  15  142.18   98.63
  -4   8 -15   16.41   52.09
   4   8  16 1078.99  115.48
  -4   8 -16  753.21  161.39
   4   8  17 1288.62  175.34
  -4   8 -17 1996.01  201.17
   4   8  18  273.96  132.86
  -4   8 -18  404.46  167.26
   4   8  19  225.92  126.18
  -4   8 -19  186.76   98.02
   4   8  20 2451.40  162.99
  -4   8 -20 2907.26  192.63
  -4  10  18  163.80  126.96
   4  10 -18   58.38   72.55
  -4  10  17  538.72  263.67
   4  10 -17  747.83   98.50
  -4  10  16   86.13   76.68
   4  10 -16  193.45   70.29
  -4  10  15   61.72  100.16
   4  10 -15   47.00   96.97
  -4  10  14 3998.57  242.64
   4  10 -14 4938.39  288.37
  -4  10  13  964.56  103.13
   4  10 -13  939.36  304.33
  -4  10  12   66.55   81.52
   4  10 -12   47.35   49.29
   4  10 -12  -34.00   45.91
  -4  10  11  591.01  222.65
   4  10 -11  838.67   51.99
   4  10 -11  926.33  141.15
  -4  10  10   -2.77   53.61
   4  10 -10   21.70   43.57
   4  10 -10  -55.05   45.54
  -4  10   9   -9.62   55.57
   4  10  -9   60.79   35.47
   4  10  -9   19.55   23.78
   4 -10  -9   17.85   16.00
  -4  10   8 1379.54  310.11
   4  10  -8  964.19   90.99
   4  10  -8 1204.74  126.79
   4 -10  -8 1357.14  117.35
  -4  10   7   37.68   28.15
   4  10  -7   97.26   74.29
  -4  10   7   81.79   34.76
   4  10  -7   31.73   33.94
  -4  10   6  832.72  189.25
   4  10  -6  789.27  167.95
  -4  10   6  855.62   83.25
   4  10  -6  964.27   92.82
  -4  10   5 1336.10  171.86
   4  10  -5 1335.80  126.40
  -4  10   5 1176.57   54.96
   4  10  -5 1168.15  107.77
  -4  10   4  195.49   84.87
   4  10  -4  127.21   44.67
  -4  10   4  203.75  104.83
   4  10  -4  196.84  147.65
  -4  10   3 1240.40   98.85
   4  10  -3 1303.15   75.55
  -4  10   3 1540.60  127.26
  -4  10   2 3621.56  124.71
   4  10  -2 3042.01  236.93
  -4  10   2 3072.36  230.65
   4  10  -2 3152.30  272.97
  -4  10   1 6773.79  261.42
   4  10  -1 6585.21  259.04
   4  10  -1 6291.67  237.73
  -4  10   0 5841.80  257.07
   4  10   0 6347.84  255.16
  -4  10   0 6083.33  282.38
   4  10   0 6438.25  239.59
  -4  10  -1 3387.05  254.31
   4  10   1 3601.70  118.13
  -4  10  -1 3772.13  167.75
   4  10   1 4111.45  181.66
  -4  10  -2  398.05  167.03
   4  10   2  386.35  152.23
  -4  10  -2  213.64  124.54
   4  10   2  426.11   47.79
  -4  10  -3 1205.05   63.47
   4  10   3 1671.21  272.98
  -4  10  -3 1301.64  153.44
   4  10   3 1608.55  136.14
  -4  10  -4   70.93   48.48
   4  10   4  149.66   89.87
  -4  10  -4   58.35   39.23
   4  10   4  116.48   33.70
  -4  10  -5   41.50   25.89
   4  10   5   59.81   30.52
  -4  10  -5   -7.21   34.36
  -4  10  -6 4512.23  273.80
   4  10   6 3631.95  235.16
  -4  10  -6 3772.94  258.58
  -4  10  -7  583.29   58.06
   4  10   7  549.92  237.83
  -4  10  -7  490.01  191.88
  -4  10  -8   63.95   33.74
   4  10   8  -11.85   59.18
  -4  10  -8    3.33   19.32
  -4  10  -9 3527.47  278.86
   4  10   9 3271.33  307.37
  -4  10  -9 3014.84  322.56
  -4  10 -10 2161.27   77.30
   4  10  10 1716.90  207.55
  -4  10 -10 1763.49  245.17
  -4  10 -11 2681.89  200.23
   4  10  11 2430.22  199.70
  -4  10 -11 2773.82  223.76
   4  10  12  374.01   61.89
  -4  10 -12  470.41  144.67
   4  10  13  112.80   64.75
  -4  10 -13   33.24   73.59
   4  10  14   88.47   51.94
  -4  10 -14   97.58   67.49
   4  10  15   30.36   54.92
  -4  10 -15  -12.98   46.14
  -4  12  10 2432.56  179.49
   4  12 -10 2297.49  151.01
   4  12 -10 2232.50  152.93
  -4  12   9   35.88   85.05
   4  12  -9   11.48   55.33
   4  12  -9   33.08   54.28
  -4  12   8   55.47   34.22
   4  12  -8   22.74   32.57
  -4  12   7  817.00  119.26
   4  12  -7  639.03  149.88
  -4  12   6 1313.44  214.07
   4  12  -6 1239.92  117.19
   4  12  -6 1236.25  259.65
  -4  12   5  559.75  153.95
   4  12  -5  644.50  113.95
   4  12  -5  701.96   80.31
  -4  12   4   93.53   85.62
   4  12  -4  155.89   98.01
  -4  12   4  178.74  104.69
   4  12  -4  166.16  110.24
  -4  12   3  404.74  192.11
   4  12  -3  427.45  229.44
  -4  12   3  349.91   98.11
   4  12  -3  315.27  171.13
  -4  12   2  249.86  133.06
   4  12  -2  360.50  184.68
  -4  12   2  211.82  151.60
   4  12  -2  402.50   70.74
  -4  12   1  185.99   99.68
   4  12  -1  171.83  152.90
  -4  12   1   82.83   53.60
   4  12  -1   78.65   72.32
  -4  12   0 3179.21  201.02
   4  12   0 3257.47  203.91
  -4  12   0 3506.69  238.42
   4  12   0 3083.37  185.24
  -4  12  -1   76.29   79.16
   4  12   1   56.48   70.67
  -4  12  -1   74.99   32.73
  -4  12  -2  302.99  153.42
   4  12   2  395.76  179.27
  -4  12  -2  336.21  136.23
  -4  12  -3 2285.66  169.67
   4  12   3 2293.16  188.14
  -4  12  -4   28.46   25.21
   4  12   4   47.58   44.88
  -4  12  -4   62.76   36.71
  -4  12  -5  157.33   96.51
   4  12   5  163.69   77.85
  -4  12  -5  148.45   85.90
  -4  12  -6  122.62   49.49
   4  12   6   13.97   32.41
  -4  12  -6   55.06   35.06
  -4  12  -7  508.40   58.82
   4  12   7  399.07  197.55
  -4  12  -7  693.91   89.66
  -4  12  -8 1699.06  140.88
   4  12   8 1996.25  148.36
  -4  12  -8 1876.67  219.75
   5   1 -27 2044.11  148.66
   5   1 -26 9707.96  715.43
   5   1 -25 2906.28  249.91
   5   1 -24 4439.43  271.80
   5  -1 -24 4281.35  277.45
   5   1 -23   43.61   36.87
   5  -1 -23   23.55   32.76
   5   1 -22 1137.88  119.16
   5  -1 -22 1196.39   50.20
  -5   1  21 2183.26  146.09
   5   1 -21 3137.57  221.60
   5  -1 -21 3037.10  210.06
  -5   1  20   20.58    8.09
   5   1 -20    5.18   54.43
   5  -1 -20   35.09   30.92
  -5   1  19 2723.07  159.57
   5   1 -19 2883.63  220.50
   5  -1 -19 2516.35  144.80
   5  -1 -19 2383.87  164.02
   5   1 -18  288.66  102.18
  -5   1  18  302.66   33.53
   5   1 -18  238.07   24.21
   5  -1 -18  194.50   72.86
  -5  -1  18  303.55   10.39
   5  -1 -18  205.98   61.47
   5   1 -17 3492.51  213.58
  -5   1  17 2819.44  164.71
   5   1 -17 3352.99  192.42
   5  -1 -17 3446.85  207.34
  -5  -1  17 3559.89  200.83
   5  -1 -17 3414.05  202.89
   5   1 -16   61.10   31.50
  -5   1  16  100.03   34.23
   5   1 -16   87.99   19.32
   5  -1 -16   53.04   15.29
  -5  -1  16   92.05   22.26
   5  -1 -16   84.49   21.93
   5   1 -15 8271.95  268.49
  -5   1  15 7828.56  256.27
   5   1 -15 7822.80  241.25
   5  -1 -15 8189.43  262.64
  -5  -1  15 7986.86  238.98
   5  -1 -15 8103.82  272.59
   5   1 -14 1760.43  114.80
  -5   1  14 1895.95  119.48
   5   1 -14 1919.49  115.28
  -5   1  14 1612.61  101.77
   5  -1 -14 1729.55  142.36
   5  -1 -14 1782.86  137.92
  -5  -1  14 1746.42  102.31
   5   1 -13  157.54   66.82
  -5   1  13  182.58   48.73
   5   1 -13  185.40   38.01
  -5   1  13  145.95   46.23
   5  -1 -13  227.03   54.83
   5  -1 -13  157.95   46.25
  -5  -1  13  159.04   12.12
   5   1 -12   85.17   28.22
  -5   1  12   -6.35   46.30
  -5   1  12   76.06   40.11
  -5  -1  12    7.70    7.19
   5  -1 -12   85.11   25.36
   5  -1 -12  147.03   52.39
  -5   1  1132071.70  800.60
   5   1 -1129838.61  762.90
  -5   1  1130923.23  772.82
   5   1 -10  208.65   60.88
   5   1 -10  184.76   28.24
  -5   1  10  246.78   65.12
  -5   1  10  212.98   58.88
  -5  -1  10  179.20   13.47
   5  -1 -10  173.60   54.25
  -5  -1  10  170.01   52.72
   5  -1 -10  184.47   19.85
   5   1  -9 2319.99  120.49
   5   1  -9 2127.08  103.50
  -5   1   9 1854.28   93.61
  -5   1   9 2263.27  112.29
   5  -1  -9 2232.97  122.50
  -5  -1   9 2193.35  114.57
  -5  -1   9 2150.50  103.00
  -5   1   8 9362.23  220.03
   5   1  -8 9693.87  219.42
   5   1  -8 8310.71  203.21
  -5   1   8 8927.36  207.62
  -5  -1   8 8922.38  202.46
   5  -1  -8 9741.87  227.04
   5   1  -715301.22  341.28
  -5   1   714207.39  324.08
   5   1  -715604.41  360.77
  -5   1   715491.63  351.85
  -5  -1   715441.79  353.86
  -5   1   513204.14  302.61
  -5   1   515628.12  353.02
   5   1  -513806.42  317.88
  -5  -1   514776.12  337.02
   5  -1  -515085.21  341.27
   5  -1  -515234.56  346.68
   5   1  -4  727.94   56.51
   5   1  -4  848.24   63.60
  -5   1   4  806.73   59.55
  -5   1   4  826.73   59.32
  -5  -1   4  756.09   53.57
  -5  -1   4 1045.82   96.46
   5  -1  -4  786.08   58.78
   5  -1  -4  958.79   69.51
   5   1  -3  592.39   64.22
   5   1  -3  616.53   43.57
  -5   1   3  588.54   45.36
  -5   1   3  504.10   40.52
  -5  -1   3  605.56   45.37
  -5  -1   3  548.48   42.01
   5  -1  -3  574.18   45.77
   5  -1  -3  538.44   45.12
   5   1  -2 9538.41  215.21
   5   1  -2 9487.73  219.31
  -5  -1   2 8298.23  189.78
   5  -1  -2 9585.00  220.91
  -5  -1   2 9095.64  209.44
   5  -1  -2 9520.95  219.90
   5   1  -1  216.20   55.88
   5   1  -1  191.93   17.01
  -5   1   1  144.60   17.54
  -5   1   1  163.31   21.37
  -5  -1   1  225.05   21.65
  -5  -1   1  209.57   47.73
   5  -1  -1  192.90   63.29
   5  -1  -1  219.97   35.30
  -5   1   010646.33  240.44
   5   1   010276.07  235.65
  -5  -1   010119.49  233.32
   5  -1   010912.84  248.49
   5  -1   123262.90  522.52
   5  -1   126189.58  585.87
  -5   1  -2 5367.13  132.20
   5   1   2 6257.71  145.83
  -5   1  -2 6023.20  138.62
   5   1   2 6183.66  143.92
   5  -1   2 6313.14  146.44
   5  -1   2 6164.59  150.02
  -5  -1  -2 5387.16  138.85
  -5  -1  -2 6054.85  142.39
  -5   1  -314758.36  338.92
  -5  -1  -315767.18  358.07
   5  -1   315200.96  348.00
   5   1   4 1566.18  108.19
  -5   1  -4 1582.73  110.36
   5   1   4 1798.09  124.26
   5   1   4 1739.22  121.82
  -5   1  -4 1717.10  121.43
   5   1   4 1636.10  112.19
   5  -1   4 1682.57  115.01
   5  -1   4 1759.72  124.04
   5   1   6 6907.31  361.57
  -5   1  -6 7220.65  183.91
  -5   1  -6 6733.44  323.64
   5   1   6 6790.29  327.22
   5   1   6 7727.44  207.85
   5   1   6 7054.50   61.47
   5  -1   6 7370.46  188.18
   5  -1   6 7130.79  192.83
   5   1   731540.31  784.72
   5   1   730930.78  772.80
   5  -1   732718.89  829.24
  -5   1  -8 5430.10  260.75
   5   1   8 6424.46  305.46
  -5   1  -8 6006.56  306.78
   5   1   8 5500.55  265.19
   5   1   8 6287.14  300.05
   5   1   8 5724.98  272.37
   5  -1   8 5813.85  274.71
   5  -1   8 6170.82  299.06
  -5   1  -9  210.18   14.81
   5   1   9  253.23   14.78
   5   1   9  210.09   47.90
   5   1   9  239.76   25.06
  -5   1  -9  179.83   63.97
  -5  -1  -9  267.60   19.66
   5  -1   9  226.08   12.57
   5  -1   9  265.94   66.38
  -5   1 -10  211.77   51.71
   5   1  10  209.34   60.85
   5   1  10  223.64   56.58
  -5   1 -10  213.50   78.62
  -5  -1 -10  279.10   36.05
   5   1  11  756.60   49.39
  -5   1 -11  822.23   65.99
   5   1  11  634.24   40.70
   5   1  11  729.63   50.26
   5  -1  11  684.03   51.63
   5  -1  11  619.20   31.44
  -5  -1 -11  642.20   38.18
   5   1  12   10.69   14.71
   5   1  12   31.33   19.39
   5   1  12   70.94   31.51
  -5   1 -12   14.75   19.33
  -5  -1 -12   51.86   14.41
   5  -1  12   58.41   20.15
  -5   1 -13 1766.92  132.08
   5   1  13 1758.20  142.74
   5   1  13 2305.17  117.16
   5  -1  13 2297.14  116.05
   5  -1  13 2036.34   98.42
  -5  -1 -13 2195.55  111.04
  -5   1 -14  817.31   66.25
   5   1  14 1052.47   83.08
   5   1  14  974.85   85.43
   5  -1  14 1061.11   87.45
   5  -1  14 1147.68   81.10
  -5  -1 -14 1006.84   81.69
  -5   1 -15  309.44   98.06
   5   1  15  310.11   87.47
   5   1  15  269.17   43.68
   5  -1  15  295.73   47.19
   5  -1  15  274.02   16.92
  -5  -1 -15  164.05   18.76
   5   1  16 2810.26  163.26
  -5   1 -16 2859.05  206.07
  -5  -1 -16 2864.19  168.64
   5  -1  16 3053.44  170.85
   5   1  1717703.25  833.69
  -5   1 -1719169.89  904.98
  -5  -1 -1718496.86  863.36
   5  -1  1718349.80  857.48
   5   1  18  762.97   85.19
  -5   1 -18  633.42  139.24
  -5  -1 -18  765.36   37.84
   5   1  19 2015.18  158.27
  -5   1 -19 1856.68  147.51
  -5  -1 -19 1922.50  163.29
  -5   1 -20 3444.14  251.67
  -5  -1 -20 3426.91  255.03
  -5   1 -21 2599.74  209.90
  -5   1 -22 5747.15  450.88
  -5   1 -23  319.77  139.54
   5   3 -28 1553.58  130.76
   5   3 -27 1856.49  161.17
   5   3 -26   57.62   80.54
   5   3 -25 1670.16  142.39
   5   3 -24   62.18   41.75
  -5   3  23  169.49   74.00
   5   3 -23  413.54  110.14
  -5   3  22  719.83   73.45
   5   3 -22  725.16   74.88
  -5   3  21  470.14   72.22
   5   3 -21  442.98  145.59
   5  -3 -21  491.93   63.05
  -5   3  20 1088.43   45.73
   5   3 -20 1115.03  180.34
   5  -3 -20 1045.66   37.09
  -5   3  19 5932.32   97.36
   5   3 -19 6989.81  352.09
   5  -3 -19 5813.86   79.95
  -5   3  18 9042.54  343.94
   5   3 -1810352.81  406.22
   5  -3 -1810131.91  375.91
   5   3 -17  600.42   50.25
  -5   3  17  733.65   31.32
   5  -3 -17  754.42   60.00
  -5   3  16 2525.43  192.40
   5   3 -16 3029.12  190.68
  -5   3  16 2408.34  141.33
   5  -3 -16 2208.20  141.90
  -5   3  15 2028.89  145.52
   5   3 -15 1744.73  132.84
  -5   3  15 1805.69  128.13
   5  -3 -15 1914.07  132.64
   5   3 -14   23.83    6.03
  -5   3  14   29.81   28.63
   5   3 -14   23.85    7.23
   5   3 -14   27.40   41.60
  -5   3  14    9.48   15.68
   5  -3 -14   14.89   14.95
   5   3 -13 2558.27  148.78
  -5   3  13 2891.01  185.21
   5   3 -13 2551.73  151.42
   5   3 -13 2374.11  154.19
  -5   3  13 2701.16  160.80
   5  -3 -13 2625.41  157.29
   5   3 -12  154.22   20.25
  -5   3  12   73.57   49.53
   5   3 -12  164.15   33.79
   5   3 -12   97.59   68.53
  -5   3  12  120.13   42.06
   5  -3 -12  108.71   37.43
   5   3 -11 7738.14  187.87
  -5   3  11 6503.33  208.03
   5   3 -11 7817.73  195.91
   5   3 -11 7269.65  203.90
  -5   3  11 7302.10  190.13
   5  -3 -11 6833.46  184.34
   5   3 -10 3402.54  159.83
  -5   3  10 3228.73 1126.29
   5   3 -10 3065.73  147.87
   5   3 -10 3615.45  191.60
  -5   3  10 3546.20  171.01
   5  -3 -10 3297.68  166.58
   5   3  -963295.75  320.63
   5   3  -8 2596.13  124.64
  -5   3   8 3057.38  154.44
   5   3  -8 2574.03  127.92
   5   3  -8 2205.05  118.41
   5  -3  -8 2422.06  119.05
   5   3  -7 2122.37  104.61
  -5   3   7 2272.95  120.61
   5   3  -7 2114.72  110.71
   5   3  -7 2347.45  125.42
   5  -3  -7 2249.11  118.59
   5  -3  -7 2223.77  116.49
   5  -3  -7 2114.58  104.88
   5   3  -6 7509.86  196.62
  -5   3   6 7108.49   90.28
   5   3  -6 7180.38  192.59
   5   3  -6 6951.27  340.41
   5  -3  -6 7302.20  202.36
   5  -3  -6 7844.56  207.43
  -5  -3   6 7280.81  197.89
   5   3  -5  629.07   20.93
  -5   3   5  635.55   54.61
   5   3  -5  630.25   53.17
   5  -3  -5  560.25   44.68
   5  -3  -5  520.32   44.96
  -5  -3   5  526.45   25.67
  -5   3   412302.12  292.35
   5   3  -412064.14  285.76
   5   3  -411843.81  276.30
   5  -3  -411654.02  278.52
  -5  -3   411970.61  280.31
   5  -3  -411817.37  279.22
   5   3  -329575.96  661.60
   5   3  -326519.64  608.30
   5  -3  -327201.70  612.86
  -5  -3   327858.13  626.72
   5   3  -2 4736.12  117.86
  -5   3   2 4536.38  128.32
   5   3  -2 4551.03  128.68
   5   3  -2 4795.96  127.62
  -5   3   2 4911.67  125.78
   5  -3  -2 4425.19  120.35
   5  -3  -2 4875.74  129.02
  -5  -3   2 4574.34  127.22
  -5   3   137724.17  844.50
   5   3  -136640.57  822.01
   5   3  -136297.07  811.18
   5  -3  -136134.87  812.58
   5  -3  -132807.87  738.29
  -5   3   0    3.25   20.94
   5   3   0   20.63   26.55
  -5   3   0   -1.39   18.07
   5   3   0   11.84    8.93
   5  -3   0   19.17   18.42
  -5  -3   0   11.65   10.88
   5  -3   0   -0.89   22.13
  -5   3  -1  449.55   74.81
   5   3   1  364.81   36.55
  -5   3  -1  465.64   94.67
   5   3   1  465.06   72.84
   5  -3   1  381.92   33.30
  -5  -3  -1  426.14   36.55
   5  -3   1  481.92   41.48
  -5  -3  -1  396.51   32.08
  -5   3  -2 3657.12   95.31
   5   3   2 4250.76  143.80
  -5   3  -2 4049.03  115.33
   5   3   2 4204.93  104.59
   5  -3   2 4185.28  109.43
  -5  -3  -2 4011.66  107.24
   5  -3   2 3650.23  102.82
  -5  -3  -2 4339.26  104.72
   5   3   3 6941.38  336.40
  -5   3  -3 6842.77  338.18
   5   3   3 6398.31  303.66
   5  -3   3 6259.37  300.98
  -5  -3  -3 6357.18  306.50
   5  -3   3 6075.32  301.05
  -5  -3  -3 6407.93  303.06
  -5   3  -415133.02  394.09
   5   3   416356.46  424.15
   5   3   415511.33  389.83
   5  -3   416877.10  430.31
  -5  -3  -416560.54  413.18
  -5   3  -5  287.50   24.80
  -5   3  -5  318.92   30.80
   5   3   5  301.93   76.51
   5   3   5  242.94   16.32
   5  -3   5  255.59   78.55
  -5  -3  -5  249.23   12.42
  -5   3  -611044.18  282.35
  -5   3  -611979.25  321.83
   5   3   611491.31  306.37
   5   3   611962.19  300.44
   5  -3   611725.59  302.13
  -5  -3  -611814.07  295.91
  -5   3  -7 2837.93  138.86
   5   3   7 3175.37  150.03
   5   3   7 3133.77  182.98
   5   3   7 2954.71  139.56
  -5   3  -7 2965.04  154.07
   5  -3   7 3229.69  157.32
  -5   3  -8   22.65   15.66
  -5   3  -8   30.73   28.92
   5   3   8   40.17   20.23
   5   3   8   34.51    9.09
   5  -3   8   16.04   21.67
  -5   3  -9 2398.31  141.96
   5   3   9 2399.68  139.38
   5   3   9 2560.24  161.06
  -5   3  -9 2389.58  158.97
   5   3   9 2659.60  155.26
   5  -3   9 2556.92  153.21
  -5   3 -10  568.58   30.01
   5   3  10  540.68   26.44
   5   3  10  498.14   49.33
  -5   3 -10  346.82  147.34
   5   3  10  566.97   38.20
   5  -3  10  467.66   51.24
  -5   3 -11 2395.86  114.82
   5   3  11 2328.59  108.55
   5   3  11 2284.38  140.97
  -5   3 -11 2244.02  134.39
   5   3  11 2286.72  107.33
   5  -3  11 2356.33  115.95
  -5   3 -12 2951.12  168.56
  -5   3 -12 2555.91  161.04
   5   3  12 3425.09  259.85
   5   3  12 2941.55  166.00
   5  -3  12 3082.57  183.17
  -5   3 -13 5589.71  316.68
  -5   3 -13 4704.65  301.01
   5   3  13 4966.66  294.98
   5   3  13 5374.38  301.68
   5  -3  13 5524.03  314.81
   5   3  14 2932.16  219.99
  -5   3 -14 3083.25  223.86
   5  -3  14 3052.30  210.76
   5  -3  14 3146.04  216.86
   5   3  15 3806.26  244.76
  -5   3 -15 3564.02  301.96
   5  -3  15 3847.99  209.90
  -5   3 -1617079.39  809.88
   5   3  17 1108.53   98.75
  -5   3 -17 1202.36   78.36
   5   3  18 3985.96  302.45
  -5   3 -18 4318.05  253.63
   5   3  19 6367.12  236.38
  -5   3 -19 5518.83  213.43
   5   3  20  967.38  125.67
  -5   3 -20  971.23  122.32
  -5   3 -21 1937.90  186.23
  -5   3 -22 2936.16  224.83
  -5   3 -23  362.06   88.37
  -5   3 -24   37.59   86.30
  -5   3 -25  130.63   54.40
   5   5 -26   48.58   46.26
   5   5 -25  738.55  258.04
  -5   5  24   48.04   41.49
   5   5 -24   63.40   57.33
  -5   5  23    7.65   34.32
   5   5 -23   15.32   31.90
  -5   5  22  183.80   74.75
   5   5 -22  125.54   53.75
  -5   5  21   84.23   52.31
   5   5 -21   54.99   23.04
  -5   5  20 1016.58  146.55
   5   5 -20  833.22  116.56
   5   5 -19 6788.63  396.85
  -5   5  18 2491.27  179.93
   5   5 -18 3110.40  232.73
  -5   5  17   35.83   15.08
   5   5 -17  -23.86   47.82
   5  -5 -17    9.84   10.28
  -5   5  16  928.10   97.91
   5   5 -16  962.73   56.66
   5   5 -16 1179.52  243.84
   5  -5 -16  822.34   53.60
   5   5 -15  600.07   30.21
  -5   5  15  815.00  199.03
   5   5 -15  566.60   46.42
   5   5 -15  736.06  103.81
   5  -5 -15  543.09   35.40
   5  -5 -15  656.80   58.23
   5   5 -1412194.77  498.54
  -5   5  1411648.23  499.44
   5   5 -1412417.85  512.70
   5   5 -14 9883.40  431.19
   5  -5 -1411374.73  470.82
   5  -5 -1411588.30  478.31
   5   5 -1310808.93  264.95
  -5   5  1310881.60  303.44
   5   5 -1310378.40  270.60
   5   5 -1310599.94  302.99
   5  -5 -1310527.47  267.05
   5  -5 -1310647.11  265.56
   5   5 -12   45.94   13.27
  -5   5  12    3.36   36.89
   5   5 -12   25.75   20.09
   5   5 -12   24.27   51.50
   5  -5 -12   14.55   15.62
   5  -5 -12   27.79   24.94
   5   5 -11 1898.18   40.15
  -5   5  11 1506.29  115.21
   5   5 -11 1678.78  112.16
   5   5 -11 1737.93  136.84
   5  -5 -11 1652.10  114.57
   5  -5 -11 1687.15  117.10
   5   5 -10 7834.70  243.92
  -5   5  10 7033.92  238.80
   5   5 -10 6756.68  226.62
   5   5 -10 8341.75  284.04
   5  -5 -10 7058.99  222.99
   5  -5 -10 6753.27  212.64
   5   5  -9 2000.16  121.05
  -5   5   9 1848.96  123.39
   5   5  -9 1910.61  128.20
   5   5  -9 2003.88  154.68
   5  -5  -9 1948.08  128.71
   5  -5  -9 1929.77  116.65
   5   5  -8 3040.70  180.69
  -5   5   8 2590.51  184.07
   5   5  -8 3014.54  183.24
   5   5  -8 2703.26  180.06
   5  -5  -8 2850.32  171.70
   5  -5  -8 2794.71  166.95
  -5   5   7  380.97   97.62
   5   5  -7  298.59   56.74
   5   5  -7  401.98  102.29
   5  -5  -7  342.00   28.74
  -5  -5   7  274.18   22.62
   5  -5  -7  306.54   54.47
  -5   5   618573.64  474.71
   5   5  -619424.49  485.10
   5   5  -617468.30  450.29
   5  -5  -619106.72  477.82
   5  -5  -618604.81  457.03
  -5   5   5  580.01  198.32
   5   5  -5  507.52   54.65
  -5   5   5  489.80   36.62
   5   5  -5  464.87  152.18
   5  -5  -5  444.67   24.02
  -5   5   416147.96  412.12
  -5   5   417335.26  429.88
   5   5  -416961.60  429.82
  -5   5   3  340.48  126.84
   5   5  -3  234.04  113.09
  -5   5   3  416.18   57.29
   5   5  -3  292.40   85.79
  -5   5   2 6744.03  190.06
   5   5  -2 6140.91  188.62
  -5   5   2 6193.80  168.35
   5   5  -2 6187.76  169.80
  -5   5   1 9629.64  255.52
   5   5  -1 9067.57  258.99
  -5   5   110203.64  266.09
   5   5  -1 9124.35  265.27
  -5  -5   1 9773.32  249.86
  -5   5   0  870.20   87.43
   5   5   0  841.65   96.00
  -5   5   0  840.06   64.88
   5   5   0  479.32  207.72
  -5  -5   0  826.80  104.28
  -5   5  -115866.09  399.51
   5   5   114598.24  377.01
  -5   5  -114170.55  362.25
   5   5   114996.80  375.45
  -5  -5  -115006.25  371.21
   5   5   2 9434.65  309.25
  -5   5  -2 9556.46  275.44
   5   5   210007.24  260.04
  -5  -5  -210762.78  274.93
  -5   5  -3   26.43   25.66
   5   5   3   15.62   40.62
  -5   5  -3   36.38   31.72
  -5  -5  -3   22.97   24.85
  -5   5  -4 1458.79  107.67
   5   5   4 1667.54  175.19
  -5   5  -4 1814.63  123.67
   5   5   4 1374.01   87.65
  -5  -5  -4 1762.21  107.00
  -5   5  -5 2650.89  169.40
   5   5   5 2139.76  141.39
  -5   5  -5 2693.77  225.43
   5   5   5 2521.32  150.61
  -5  -5  -5 2677.44  157.82
  -5   5  -6    0.46   19.14
   5   5   6   58.59   49.10
  -5   5  -6   26.77   33.80
   5   5   6    9.22    9.84
  -5  -5  -6    8.90   10.62
  -5   5  -7  265.08   26.39
  -5   5  -7  290.65  104.43
   5   5   7  191.45  102.26
   5   5   7  198.11   35.85
   5  -5   7  221.42   21.27
  -5  -5  -7  194.82   17.56
  -5   5  -8  147.53   36.52
  -5   5  -8  180.99   67.68
   5   5   8  175.59   77.77
   5   5   8  181.02   22.21
   5  -5   8   87.67   54.39
  -5  -5  -8  171.17   14.00
  -5   5  -9 6556.54  167.43
  -5   5  -9 6619.64  194.47
   5   5   9 6999.91  229.76
   5  -5   9 7175.46  193.72
  -5   5 -10 3799.14  218.46
  -5   5 -10 4143.78  255.28
   5   5  10 4275.03  263.35
   5  -5  10 3809.38  227.29
  -5   5 -1112965.04  533.41
  -5   5 -1113445.12  595.58
   5   5  1113305.61  569.26
   5  -5  1113227.40  550.29
  -5   5 -12  646.02   41.49
  -5   5 -12  589.99  247.82
   5   5  12  718.64  123.91
   5  -5  12  706.43   87.83
  -5   5 -13 5035.95  271.63
   5   5  13 5196.40  308.96
  -5   5 -13 4861.58  281.10
  -5   5 -14 8458.17  395.18
   5   5  14 8437.66  469.22
  -5   5 -14 8059.30  403.43
  -5   5 -15  625.30   17.65
   5   5  15  850.83   76.49
  -5   5 -15  621.72   60.77
   5   5  16 4772.52  278.88
  -5   5 -16 5692.85  327.33
   5   5  17  241.39  163.33
  -5   5 -17  359.24  136.20
   5   5  18  475.63  188.80
  -5   5 -18  500.27  161.97
   5   5  19 3458.82  223.23
  -5   5 -19 3466.58  227.64
   5   5  20 3010.09  235.73
  -5   5 -20 3123.04  245.41
   5   5  21 5728.86  317.81
  -5   5 -21 6147.91  375.95
   5   5  22  609.35  151.41
  -5   5 -22  467.46  240.51
  -5   5 -23  538.08  145.80
  -5   7  24   28.44   22.19
   5   7 -24   44.54   61.25
  -5   7  23  139.25  117.62
   5   7 -23  323.51  114.43
  -5   7  22  126.72   90.45
   5   7 -22  198.69   94.54
  -5   7  21  892.99  123.05
   5   7 -21  990.34  102.69
  -5   7  20  246.77  120.30
   5   7 -20  254.65  144.61
  -5   7  19  409.30  132.63
   5   7 -19  371.96  130.94
  -5   7  18 1176.72  162.53
   5   7 -18 1030.35   74.81
  -5   7  17 6523.89  369.79
   5   7 -17 6957.95  416.01
  -5   7  16   96.92   48.99
   5   7 -16  100.97   49.76
  -5   7  15 4356.79  260.12
   5   7 -15 5013.17  276.91
   5   7 -15 3933.56  309.75
  -5   7  14 2580.97  262.92
   5   7 -14 2448.20  172.48
   5   7 -14 2805.23  209.48
   5  -7 -14 2752.75  186.51
  -5   7  13 3158.34  229.54
   5   7 -13 3563.36  154.02
   5   7 -13 3448.73  179.67
   5  -7 -13 3548.35  140.67
  -5   7  12  514.79   49.76
   5   7 -12  417.21  121.23
   5   7 -12  527.48  169.82
   5  -7 -12  429.15   24.36
  -5   7  11  488.97  144.08
   5   7 -11  576.57   61.50
   5   7 -11  510.07  185.11
   5  -7 -11  396.19   23.03
  -5   7  10  794.59  104.09
   5   7 -10  807.20   68.10
   5   7 -10  917.60   73.05
   5  -7 -10  900.25   53.69
  -5   7   9 1065.39  102.78
   5   7  -9 1094.49   94.90
   5   7  -9 1030.74   74.67
   5  -7  -9 1188.35   49.03
  -5   7   8  466.47  161.98
   5   7  -8  470.25   95.67
   5   7  -8  541.95  137.03
   5  -7  -8  443.51   55.78
  -5   7   7 2862.70  211.47
   5   7  -7 3030.51  219.79
   5   7  -7 3194.08  243.54
   5  -7  -7 2922.63  210.64
  -5   7   6   14.65   36.05
   5   7  -6   -0.05   34.67
  -5   7   6    5.22   19.56
   5   7  -6   31.27   23.78
  -5   7   538731.59  965.37
   5   7  -537257.60  922.79
  -5   7   537972.93  935.28
   5   7  -539351.64  980.91
  -5   7   4  599.63  268.90
   5   7  -4  802.08  150.98
  -5   7   4  619.54   53.74
   5   7  -4  730.88   79.68
  -5   7   3 9449.47  268.02
   5   7  -3 8574.57  243.09
  -5   7   3 7375.84  226.63
   5   7  -3 8599.19  242.94
  -5   7   2   13.08   25.63
   5   7  -2   42.31   30.38
  -5   7   2   16.03   42.28
   5   7  -2  -10.58   34.06
  -5   7   1  114.00   63.31
   5   7  -1   39.47   39.32
  -5   7   1   73.57   35.11
   5   7  -1   32.67   24.27
  -5   7   0 2201.69  141.07
   5   7   0 2636.71  170.42
  -5   7   0 2418.10  151.24
   5   7   0 2594.80  162.05
  -5   7  -1 1100.19   91.10
   5   7   1 1227.63  106.50
  -5   7  -1 1002.12  104.12
   5   7   1 1143.54   94.64
  -5   7  -2  877.14  117.23
   5   7   2 1107.05  100.22
  -5   7  -2  810.39   81.86
   5   7   2  965.14   76.56
  -5   7  -3  208.38   61.53
   5   7   3  218.90  101.87
  -5   7  -3  214.35   76.88
   5   7   3  320.11   82.26
  -5   7  -4  229.79   47.13
   5   7   4  340.66  130.25
   5   7   4  249.40   34.74
  -5  -7  -4  188.83   49.98
  -5   7  -5  283.42   37.17
   5   7   5  273.47  161.96
  -5   7  -5  435.57  101.79
   5   7   5  405.61   56.77
  -5  -7  -5  308.83   26.62
  -5   7  -6 3488.04  253.11
   5   7   6 3719.54  277.87
  -5   7  -6 3359.08  248.45
   5   7   6 3260.32  228.32
  -5  -7  -6 3646.88  250.71
  -5   7  -7 9849.04  369.55
   5   7   710702.37  420.73
  -5   7  -7 9177.09  364.44
   5   7   710549.56  386.40
  -5  -7  -710175.57  370.29
  -5   7  -8 7678.08  291.72
   5   7   8 8159.27  331.85
  -5   7  -8 7500.97  309.05
   5   7   8 8503.18  310.69
  -5  -7  -8 8036.03  292.04
  -5   7  -9 4747.75  333.29
   5   7   9 4121.46  288.47
  -5   7  -9 4053.18  287.98
  -5   7 -10 5421.17  358.69
   5   7  10 5762.47  138.54
  -5   7 -10 4216.38  289.70
  -5   7 -11 1051.00   43.82
   5   7  11 1417.77  162.16
  -5   7 -11 1296.83  138.14
  -5   7 -12  107.38   27.43
   5   7  12  173.84  116.02
  -5   7 -12  116.04   42.40
  -5   7 -13 5266.62  177.39
   5   7  13 5172.65  218.62
  -5   7 -13 5000.38  296.31
   5   7  14 1602.35  145.93
  -5   7 -14 1185.55   84.27
   5   7  15  451.97  198.85
  -5   7 -15  514.95  217.52
   5   7  16  453.71  198.43
  -5   7 -16  558.25  189.79
   5   7  17 7766.95  611.08
  -5   7 -17 6777.17  563.83
  -5   7 -18 2967.24  286.36
   5   7  19 1020.57  156.38
  -5   7 -19 1034.27   70.70
   5   7  20 1065.95  140.13
  -5   7 -20 1047.89  108.07
   5   7  21  642.46  197.59
  -5   7 -21  347.36  196.36
  -5   9  20 1107.91  149.40
   5   9 -20 1291.12  187.71
  -5   9  19   27.65   48.76
   5   9 -19   13.47   38.91
  -5   9  18 1109.02   74.66
   5   9 -18 1181.52  138.11
  -5   9  17 2203.64  113.59
   5   9 -17 2065.09  178.16
  -5   9  16 1035.96  224.84
   5   9 -16 1088.16  315.80
  -5   9  15 1267.31  139.98
   5   9 -15  884.40  246.39
  -5   9  14   33.28   37.85
   5   9 -14   59.36   39.52
  -5   9  13   90.06   92.63
   5   9 -13  194.04   94.79
   5   9 -13  182.62   67.23
  -5   9  12   58.57   80.67
   5   9 -12  147.60   49.03
   5   9 -12  276.52  103.73
  -5   9  11  295.83  123.92
   5   9 -11  208.20   80.57
   5   9 -11  154.25   96.55
   5  -9 -11  262.26   88.11
  -5   9  10  142.70   70.02
   5   9 -10  180.48   62.86
   5   9 -10   80.68   63.29
   5  -9 -10  182.74   61.27
  -5   9   9   70.99   61.98
   5   9  -9   26.17   44.08
   5   9  -9  -37.39   52.45
   5  -9  -9   27.46   15.75
  -5   9   8  461.23  193.43
   5   9  -8  519.10  194.37
   5   9  -8  507.52  168.09
   5  -9  -8  467.19   33.52
  -5   9   7  294.55  179.86
   5   9  -7  401.29  120.97
  -5   9   7  514.88   56.79
   5   9  -7  392.23  125.49
  -5   9   6  141.73  110.94
   5   9  -6  149.68   58.81
  -5   9   6  228.50   56.17
   5   9  -6  189.71   83.08
  -5   9   5   58.69   57.81
   5   9  -5   31.47   30.35
  -5   9   5    7.28   27.80
   5   9  -5   56.46   28.35
  -5   9   4 9931.55  405.94
   5   9  -4 8961.79  367.49
   5   9  -4 9328.55  377.97
  -5   9   3 1280.57   96.97
   5   9  -3 1288.64  155.22
  -5   9   3 1146.39  123.47
   5   9  -3 1050.28  118.99
  -5   9   215058.49  595.61
   5   9  -215647.32  619.05
  -5   9   215473.87  597.95
   5   9  -215024.61  584.37
  -5   9   1 1200.84   66.80
   5   9  -1 1325.96  225.28
  -5   9   1 1365.64  114.83
  -5   9   0  610.17   57.01
   5   9   0  496.34  215.29
  -5   9   0  515.02  159.64
   5   9   0  516.82   57.04
  -5   9  -1 3456.73  169.72
   5   9   1 3871.83  190.82
  -5   9  -1 3619.67  169.09
   5   9   1 3334.22   82.11
  -5   9  -2 5074.40  215.74
   5   9   2 5119.41  295.14
  -5   9  -2 4309.88  235.03
   5   9   2 4707.52  197.33
  -5   9  -3   -2.39   38.01
   5   9   3   41.00   59.91
  -5   9  -3   85.36   40.35
   5   9   3   47.85   27.39
  -5   9  -4 7144.75  395.97
   5   9   4 8095.16  459.65
  -5   9  -4 7996.79  444.90
   5   9   4 6954.46  393.09
  -5   9  -5 7073.27  404.96
   5   9   5 6862.45  391.29
  -5   9  -5 7476.40  420.41
   5   9   5 7232.37  391.69
  -5   9  -6  607.33   84.65
   5   9   6  577.03  201.35
  -5   9  -6  716.09  259.95
  -5   9  -7 4180.30  164.81
   5   9   7 4477.76  206.10
  -5   9  -7 4513.36  190.94
  -5   9  -8  970.07  119.74
   5   9   8  857.10  127.74
  -5   9  -8  799.79   73.24
  -5   9  -9  942.17   49.94
   5   9   9  558.36  255.98
  -5   9  -9  797.13   83.75
  -5   9 -10   41.18   30.26
   5   9  10   85.51   72.37
  -5   9 -10   20.40   50.93
  -5   9 -11  265.60  105.39
   5   9  11  535.03  199.71
  -5   9 -11  629.26   99.39
   5   9  12  104.29   51.41
  -5   9 -12   63.33   41.51
   5   9  13 1941.42  163.09
  -5   9 -13 2181.85  126.43
   5   9  14   76.13   53.46
  -5   9 -14  -14.84   61.04
   5   9  15 2701.55  338.21
  -5   9 -15 3272.24  207.02
   5   9  16   72.23   29.94
  -5   9 -16   97.66   40.28
   5   9  17   32.80   30.61
  -5   9 -17   63.21   50.85
  -5  11  14  134.31  164.39
   5  11 -14  267.10  153.79
  -5  11  13 4887.91  341.95
   5  11 -13 4638.38  329.86
  -5  11  12 2700.67  202.36
   5  11 -12 3041.23  211.32
  -5  11  11 1443.04  238.19
   5  11 -11 1270.20   71.60
   5  11 -11 1366.93  214.76
  -5  11  10  -12.73   63.59
   5  11 -10   34.81   44.34
   5  11 -10  -18.58   69.36
  -5  11   9 2439.22  164.02
   5  11  -9 2677.63  165.37
   5  11  -9 2802.35  201.75
  -5  11   8   57.20   47.61
   5  11  -8    9.72   23.84
   5  11  -8  -28.76   67.10
   5 -11  -8   39.02   32.33
  -5  11   7 4286.82  328.41
   5  11  -7 4467.10  334.43
   5  11  -7 4492.38  345.98
  -5  11   6 1876.88  219.22
   5  11  -6 1823.99  154.23
  -5  11   6 1865.98  186.61
   5  11  -6 1734.51  282.14
  -5  11   5  811.78  225.67
   5  11  -5  696.12  261.66
  -5  11   5  859.90  148.21
  -5  11   4   91.62   51.64
   5  11  -4  256.21  107.34
  -5  11   4   71.17   56.26
   5  11  -4   80.25   63.44
  -5  11   3   95.45   54.25
   5  11  -3  137.91   70.32
  -5  11   3  146.38   73.15
   5  11  -3  109.69   81.97
  -5  11   2  149.59   65.58
   5  11  -2   94.06   74.97
  -5  11   2  103.01   30.61
   5  11  -2  119.69   89.13
  -5  11   1 1016.59  189.81
   5  11  -1  749.49  124.29
  -5  11   1  982.71  191.81
   5  11  -1  746.63  172.17
  -5  11   0 2875.25  239.90
   5  11   0 2520.74  220.57
   5  11   0 2499.11  207.14
  -5  11  -1   32.01   28.03
   5  11   1   -4.35   33.98
   5  11   1   10.51   17.13
  -5  11  -2 1045.71   94.33
   5  11   2 1063.48  241.97
  -5  11  -2 1278.63  133.31
   5  11   2  981.76   85.91
  -5  11  -3 1458.82  138.21
   5  11   3 1006.67  207.12
  -5  11  -3  796.83   64.30
  -5  11  -4  180.48  111.98
   5  11   4  246.42  112.46
  -5  11  -4  208.66  118.05
  -5  11  -5  542.68  140.67
   5  11   5  796.87  362.23
  -5  11  -5  921.22  167.18
  -5  11  -6  323.55  174.36
   5  11   6  188.62  120.95
  -5  11  -6  339.84  120.46
  -5  11  -7  824.96  114.20
   5  11   7  919.62  187.59
  -5  11  -7  672.39  287.72
  -5  11  -8  179.35  101.67
   5  11   8  241.64  128.82
  -5  11  -8  354.85  169.46
  -5  11  -9 2173.69  133.55
   5  11   9 2099.36  148.89
  -5  11  -9 2133.47  219.79
   5  11  10  331.59  148.68
  -5  11 -10  470.92  269.63
   5  11  11 1053.85  108.58
  -5  11 -11 1009.70  146.49
   5  11  12  738.82   95.67
  -5  11 -12  686.89  316.89
   6   0 -26 7435.78  551.96
   6   0 -25   21.00   37.77
   6   0 -2413314.25  176.84
   6   0 -23   17.26   32.28
   6   0 -22 2709.51  215.82
   6   0 -21   12.81   27.98
  -6   0  20    5.20    3.49
   6   0 -20   27.58   14.33
  -6   0  19    7.48    6.75
   6   0 -19    7.21   11.80
   6   0 -19   31.69   22.27
  -6   0  1818589.37  759.84
   6   0 -1817351.89  716.43
   6   0 -1817080.32  715.81
  -6   0  17    8.68   13.32
   6   0 -17   10.90    9.46
   6   0 -17    7.33   18.86
  -6   0  16 2734.32  134.31
   6   0 -16 2952.19  144.96
   6   0 -16 2704.64  140.19
  -6   0  15    0.97    4.64
   6   0 -15    8.12   12.54
   6   0 -15   38.16   17.11
  -6   0  14   78.10   19.51
   6   0 -14   72.27   23.76
   6   0 -14   71.95   19.49
  -6   0  13   -0.71    8.36
   6   0 -13   14.99    9.21
   6   0 -13   13.00   15.77
  -6   0  12  442.80   17.25
   6   0 -12  353.86   67.06
   6   0 -12  353.56   59.22
  -6   0  11   -4.42   12.60
   6   0 -11   29.55   20.58
  -6   0  11    8.55   11.08
  -6   0   9    9.85    9.85
   6   0  -9   36.20   20.53
   6   0  -9    1.13   13.08
  -6   0   9    2.68   18.79
  -6   0   8  422.46   33.84
   6   0  -8  511.72   55.19
   6   0  -8  349.57   43.00
  -6   0   8  427.61   64.10
  -6   0   7   19.63    8.93
   6   0  -7   15.82   27.62
  -6   0   7   20.09   18.77
  -6   0   6 3247.79   78.96
   6   0  -6 3406.59   88.19
   6   0  -6 3384.62   92.93
  -6   0   6 2862.47   79.96
  -6   0   5    7.93    7.98
   6   0  -5    1.93    9.40
   6   0  -5   -2.84   22.43
  -6   0   5   -3.43    9.48
   6   0  -420435.42  466.07
  -6   0   419815.54  445.94
  -6   0   3   26.99   15.02
   6   0  -3   99.09   22.15
   6   0  -3   10.57    9.46
  -6   0   3   12.67   19.50
  -6   0   1   34.12   24.73
   6   0  -1   17.89   12.26
   6   0  -1   12.93   11.46
  -6   0   1   15.98   12.40
  -6   0  -1   13.19   15.62
   6   0   1    5.36    9.60
   6   0   1   -5.29   18.08
  -6   0  -1   14.38   14.51
   6   0   225566.57  573.24
  -6   0  -3    9.48   14.03
   6   0   3   11.05    7.03
   6   0   3   10.74   12.64
   6   0   3    4.75   12.98
  -6   0  -4  627.74   47.54
   6   0   4  649.52   46.46
   6   0   4  801.27   60.62
   6   0   4  723.08   54.46
  -6   0  -5   14.75   12.13
   6   0   5   14.49   12.10
   6   0   5    4.58   19.57
   6   0   5   22.74   15.42
  -6   0  -7    9.91    9.37
   6   0   7  -16.51   71.79
  -6   0  -7   -2.09   15.24
   6   0   7    4.24   16.30
   6   0   839806.58  961.28
   6   0   9   -8.12   10.25
   6   0   9   30.41   15.83
  -6   0  -9   21.82   11.63
   6   0   9    8.90   31.14
   6   0  10 9856.57  341.48
   6   0  10 9018.85  317.11
  -6   0 -10 8559.27  306.22
   6   0  10 7940.58  282.98
   6   0  11    3.44    7.05
   6   0  11   19.25   14.88
  -6   0 -11    0.07   11.83
   6   0  11   -2.66   26.61
   6   0  12 4254.14  200.04
   6   0  12 4169.69  210.45
  -6   0 -12 4215.56  204.34
   6   0  13    7.90    7.60
   6   0  13   25.43   25.99
  -6   0 -13  -34.93   25.39
   6   0  14 7752.10  320.15
   6   0  14 7408.64  319.65
  -6   0 -14 7775.94  329.81
   6   0  15    4.39   18.60
  -6   0 -15    4.55   20.96
   6   0  1628581.44 1036.76
  -6   0 -1627526.81 1005.54
   6   0  17   -0.64   14.95
  -6   0 -17  -20.77   36.80
   6   0  18 1262.30   73.61
  -6   0 -18 1239.99   45.33
  -6   0 -19   -1.28   16.42
  -6   0 -20   33.35   29.23
  -6   0 -21   17.42   18.60
   6   2 -28  801.47   77.01
   6   2 -27  265.20  124.78
   6   2 -26  425.08  181.06
   6   2 -25   39.72   34.39
   6   2 -24 5244.85  319.83
   6   2 -23  555.32  189.06
   6  -2 -23  644.77   72.42
  -6   2  22 1352.33   42.02
   6   2 -22 1293.43   72.55
   6  -2 -22 1495.89  121.23
  -6   2  21 1118.02   39.68
   6   2 -21  982.28  118.26
   6  -2 -21 1140.93   65.11
  -6   2  2011241.64  432.62
   6   2 -20 9613.48  415.32
   6  -2 -2010180.74  413.45
  -6   2  19 7492.60  362.36
   6   2 -19 7426.71  388.28
   6  -2 -19 7574.75  364.85
  -6   2  1816702.79  611.59
   6   2 -1815618.28  609.79
   6  -2 -1817220.70  632.01
   6   2 -17  174.06   29.71
   6   2 -17  197.90   18.58
   6   2 -17  208.67   84.25
   6  -2 -17  200.55   74.40
  -6   2  16 1426.77  123.82
   6   2 -16 1385.61   95.84
   6   2 -16 1496.12  100.08
   6   2 -16 1456.93  112.42
   6  -2 -16 1629.64  116.34
  -6   2  15   79.44   34.15
   6   2 -15   87.62   29.78
   6   2 -15  121.84   31.82
  -6   2  15   63.13   28.21
   6  -2 -15  104.25   23.72
  -6   2  14 8095.73  252.72
   6   2 -14 8365.85  256.86
   6   2 -14 7214.66  240.77
   6  -2 -14 8358.61  279.32
  -6  -2  14 9059.28  275.55
  -6   2  13 6174.27  235.75
   6   2 -13 5924.70  206.36
   6   2 -13 5704.72  216.77
  -6   2  13 5708.68  203.84
  -6  -2  13 5074.94  177.20
   6  -2 -13 5500.14  204.96
   6   2 -12  890.15   59.30
   6   2 -12  756.29   43.40
  -6   2  12  871.33   75.54
  -6   2  12  915.31   53.49
   6  -2 -12  872.60   56.21
   6  -2 -12  950.00   56.15
  -6  -2  12  893.87   47.04
   6   2 -11 4791.17  232.76
   6   2 -11 4594.06  192.08
  -6   2  11 4416.87  214.30
  -6   2  11 4761.19  203.14
   6  -2 -11 3733.80  185.45
   6  -2 -11 4394.91  211.00
  -6  -2  11 4803.15  201.08
   6   2 -1020242.80  523.81
   6   2 -1020490.15  509.34
  -6   2  1020320.25  515.03
  -6   2  1020663.47  520.36
   6  -2 -1022083.74  563.42
   6  -2 -1020892.76  526.34
  -6  -2  1021360.13  538.15
   6   2  -9  436.45  101.64
   6   2  -9  399.40   13.77
  -6   2   9  427.30   23.77
   6  -2  -9  398.83   33.30
  -6  -2   9  383.79   34.86
   6  -2  -9  350.85   45.07
  -6   2   8   10.50   13.31
   6   2  -8   13.40   12.04
   6   2  -8   36.42   36.60
  -6   2   8   22.15   12.06
  -6  -2   8    7.09    9.26
   6  -2  -8    8.36   11.20
  -6   2   720737.67  521.46
  -6  -2   720331.88  516.35
   6  -2  -720881.38  532.49
   6   2  -626572.71  603.76
   6  -2  -624979.78  567.11
  -6  -2   625407.18  576.99
   6  -2  -625948.34  583.32
   6   2  -4 1398.29  104.19
   6   2  -4 1291.71   89.38
  -6   2   4 1370.21  101.45
  -6   2   4 1502.93  105.98
  -6  -2   4 1388.09   98.09
  -6  -2   4 1622.36  114.62
   6  -2  -4 1121.78   93.11
   6  -2  -4 1357.19   97.76
   6   2  -3 5823.46  146.24
   6   2  -3 6152.01  144.86
  -6   2   3 5850.83  143.42
   6  -2  -3 5847.85  150.26
  -6  -2   3 6075.12  147.01
  -6  -2   3 5505.44  143.78
   6  -2  -3 5733.54  141.11
  -6   2   2   47.49   25.77
   6   2  -2   38.06   14.10
   6   2  -2   36.85   25.09
  -6  -2   2   50.16   27.89
   6  -2  -2   21.35   33.31
   6  -2  -2    4.72   25.54
  -6  -2   2   41.35   23.04
   6  -2  -2   37.50   14.89
   6   2  -1 6136.26  150.93
   6   2  -1 6340.07  148.84
  -6   2   1 6584.62  159.27
   6  -2  -1 7201.58  175.32
  -6  -2   1 6083.74  147.15
  -6  -2   1 7119.54  168.40
   6  -2  -1 6846.77  165.16
  -6   2   0 3232.64   84.51
   6   2   0 3235.27   84.89
  -6   2   0 3017.25   86.08
   6  -2   0 3436.17   92.65
  -6  -2   0 3354.29   84.89
   6   2   1  108.04   47.73
  -6   2  -1   46.15   27.68
   6   2   1  109.78   23.05
   6   2   1   50.27   38.01
  -6   2  -1   55.12   38.31
   6  -2   1  115.17   48.61
   6  -2   1   89.43   28.81
   6   2   2 5749.27  139.11
   6   2   2 5227.02  134.34
   6   2   2 6277.69  158.10
  -6   2  -2 6282.54  157.43
   6  -2   2 6321.38  157.75
   6  -2   2 5604.74  138.02
  -6  -2  -2 5432.03  129.02
   6   2   336975.14  823.44
   6  -2   337143.60  834.97
   6   2   4 6442.57  307.85
   6   2   4 5844.22  278.29
   6   2   4 5128.09  257.92
  -6   2  -4 6031.28  291.40
   6  -2   4 5852.64  283.84
   6  -2   4 6429.27  306.51
  -6  -2  -4 6315.13  300.29
   6   2   5 3608.40  181.24
  -6   2  -5 3789.91  180.59
   6   2   5 4584.35  219.37
   6   2   5 4287.36  212.29
  -6   2  -5 3741.45  187.67
   6   2   5 3879.68  185.51
   6  -2   5 3903.95  188.67
   6  -2   5 4263.32  211.64
  -6   2  -6   31.79    7.44
   6   2   6    0.69   11.11
   6   2   6    6.37   23.02
   6   2   6    4.10   10.94
  -6   2  -6   -0.77   25.02
   6  -2   6   11.20    9.01
  -6   2  -7 8784.89  215.24
   6   2   7 9156.18  225.94
   6   2   7 8751.85  229.68
  -6   2  -7 8464.73  225.02
   6   2   7 8809.62  222.34
   6  -2   7 9322.30  234.57
  -6   2  -813598.62  330.72
   6   2   814099.89  344.62
   6   2   812398.86  316.87
   6   2   812996.86  317.41
   6  -2   812632.29  317.34
  -6   2  -914082.92  343.72
   6   2   914172.41  346.96
   6   2   913863.80  356.09
  -6   2  -915355.46  390.44
   6   2   916312.29  397.98
   6  -2   913969.79  342.28
  -6   2 -10 1099.63   72.98
   6   2  10 1101.06   67.69
   6   2  10 1394.34  132.25
  -6   2 -10  967.55   73.53
   6   2  10 1086.43   68.22
   6  -2  10 1052.25   66.47
  -6   2 -11 2136.33  106.40
   6   2  11 2427.17  122.17
   6   2  11 2297.13  121.92
  -6   2 -11 2347.55  138.04
   6   2  11 2412.54  118.10
   6  -2  11 2376.69  115.79
  -6   2 -12  140.07   41.64
   6   2  12  152.42   21.80
   6   2  12  208.65   62.78
  -6   2 -12   58.86   42.35
   6   2  12  159.91   32.46
   6  -2  12  114.07   36.82
   6   2  13 8538.87  219.14
   6   2  13 9704.60  279.39
  -6   2 -1310254.17  287.48
   6   2  13 9672.35  243.87
   6  -2  13 9495.82  239.15
   6  -2  13 9214.70  230.72
   6   2  14  203.01   43.83
   6   2  14  236.97   32.39
  -6   2 -14  129.17   69.78
   6   2  14  269.37   39.07
   6  -2  14  235.60   26.81
   6  -2  14  194.09   58.76
   6   2  15 3216.22  177.14
  -6   2 -15 3642.99  211.48
   6  -2  15 2873.60  162.55
   6   2  16 4494.96  300.29
   6   2  16 4717.27  304.48
  -6   2 -16 4092.54  275.66
   6  -2  16 4766.81  308.76
   6   2  17 2268.58  163.75
  -6   2 -17 2247.19  165.45
   6   2  18  494.95   73.07
  -6   2 -18  439.90  163.07
   6   2  19 3263.18  240.81
  -6   2 -19 3258.45  242.62
   6   2  20  175.71   57.35
  -6   2 -20  203.55   74.80
  -6   2 -21    8.09   30.66
  -6   2 -22   48.57   39.83
  -6   2 -23  261.81  160.88
   6   4 -27   10.06   33.22
   6   4 -26   26.95   26.53
   6   4 -25  221.42  129.92
   6   4 -24  344.53  182.94
  -6   4  23  351.54   49.00
   6   4 -23  281.41  126.10
  -6   4  22  218.39   98.70
   6   4 -22  187.16  102.70
  -6   4  21 9782.74  339.20
   6   4 -2110911.23  399.13
  -6   4  20    4.35   31.01
   6   4 -20   31.84   38.66
   6  -4 -20    0.21   15.72
  -6   4  19   34.47   39.72
   6   4 -19   17.52   42.19
   6  -4 -19    4.66   10.81
   6   4 -18   69.75   33.90
   6  -4 -18  108.46   34.27
  -6   4  1713430.90  503.35
   6   4 -1714750.61  563.11
   6  -4 -1712917.53  474.75
   6   4 -16    1.19    3.85
  -6   4  16   48.00   25.79
   6   4 -16   10.34    7.89
   6   4 -16   12.68   37.58
  -6   4  16    9.48   10.34
   6  -4 -16   10.57    9.77
   6   4 -15 2307.96  158.23
  -6   4  15 1580.58   90.33
   6   4 -15 2106.31  146.23
   6   4 -15 2090.97  164.61
  -6   4  15 2213.58  155.61
   6  -4 -15 2126.94  164.66
   6   4 -14  810.79   55.84
  -6   4  14  610.59   56.98
   6   4 -14  641.73   53.25
   6   4 -14  772.66  107.01
   6  -4 -14  698.50   79.42
   6   4 -1326336.41  783.56
  -6   4  1324841.75  758.53
   6   4 -1325416.49  762.05
   6   4 -1327516.77  850.04
   6  -4 -1326991.85  814.35
   6  -4 -1324934.44  748.04
   6   4 -12  256.03   20.17
   6   4 -12  272.09   40.13
   6   4 -12  315.93   84.93
   6  -4 -12  329.21   39.42
   6  -4 -12  328.84   29.81
   6   4 -11  300.64   33.14
  -6   4  11  160.84   75.38
   6   4 -11  340.20   44.71
   6   4 -11  339.84  114.28
   6  -4 -11  328.98   47.95
   6  -4 -11  274.22   26.01
   6   4 -1013631.38  466.90
  -6   4  1014355.66  505.65
   6   4 -1014595.59  505.80
   6   4 -1015672.54  555.81
   6  -4 -1014297.25  494.81
   6  -4 -1013989.70  483.54
   6   4  -9 1032.95   53.58
  -6   4   9 1020.78   87.92
   6   4  -9 1068.37   81.09
   6   4  -9 1001.90   76.39
   6  -4  -9  986.20   55.41
   6  -4  -9 1074.16   58.47
   6   4  -840903.04  981.30
  -6   4   842084.13 1023.79
   6   4  -843190.73 1041.90
   6   4  -837424.94  920.25
   6  -4  -836556.48  881.88
   6  -4  -839048.41  940.30
   6   4  -721270.66  515.07
   6   4  -721677.41  563.46
   6   4  -723097.11  577.10
   6  -4  -723339.70  570.93
   6  -4  -723662.01  577.75
   6   4  -6 2212.31  109.60
  -6   4   6 2234.11  127.63
   6   4  -6 2064.99  123.41
   6   4  -6 2372.81  125.43
   6  -4  -6 2352.05  122.19
   6  -4  -6 2216.93  121.86
   6   4  -5 1744.46   89.36
  -6   4   5 1670.54   98.26
   6   4  -5 1686.71  124.83
   6   4  -5 1566.22   91.06
   6  -4  -5 1742.29   92.13
   6  -4  -5 1647.82   96.73
   6   4  -4 1469.73   77.93
  -6   4   4 1303.24   79.57
   6   4  -4 1509.65  108.23
   6   4  -4 1429.98   80.57
   6  -4  -4 1463.55   83.66
  -6   4   3  308.20  113.70
   6   4  -3  194.77  106.29
  -6   4   3  345.45   84.66
   6   4  -3  406.71   90.67
   6  -4  -3  341.59   23.40
  -6   4   217657.07  455.46
   6   4  -220773.32  551.78
  -6   4   218870.53  495.14
   6   4  -220558.99  526.83
  -6  -4   220806.79  532.53
  -6   4   1 2160.71  114.18
   6   4  -1 2495.74  137.64
  -6   4   1 3266.79  165.10
   6   4  -1 2390.31  123.44
  -6  -4   1 2743.83  168.02
  -6   4   0 8603.68  230.87
   6   4   0 9633.48  261.73
  -6   4   0 9364.16  251.84
   6   4   0 9078.10  240.14
  -6  -4   0 9594.26  249.76
  -6   4  -1   27.49   24.86
   6   4   1   27.18   36.43
  -6   4  -1   31.62   33.29
   6   4   1   40.24   17.20
  -6  -4  -1   26.69   19.41
   6   4   222459.53  578.16
  -6   4  -223472.89  601.75
   6   4   224660.68  620.24
  -6  -4  -225029.67  628.29
  -6   4  -3  474.53   27.00
  -6   4  -3  438.64   34.59
   6   4   3  414.03   94.68
   6   4   3  426.13   90.27
   6  -4   3  391.70   24.32
  -6  -4  -3  438.18   27.78
  -6   4  -4  138.80   35.21
  -6   4  -4   89.86   59.00
   6   4   4   53.57   39.88
   6   4   4  109.62   47.46
   6  -4   4   60.92   28.20
  -6  -4  -4  125.12   31.16
  -6   4  -5  335.99   30.25
  -6   4  -5  477.79  119.25
   6   4   5  474.76  133.30
   6   4   5  384.06   20.63
   6  -4   5  306.15   23.75
  -6  -4  -5  371.20   30.96
  -6   4  -6 2236.46  134.60
  -6   4  -6 2373.68  155.25
   6   4   6 2171.18  141.66
   6   4   6 2286.42  135.47
   6  -4   6 2645.98  162.31
  -6  -4  -6 2420.61  141.78
  -6   4  -7   10.36   10.14
  -6   4  -7   48.97   30.70
   6   4   7   26.57   20.72
   6   4   7    0.72    9.42
   6  -4   7   11.01   11.61
  -6  -4  -7   16.53    9.97
  -6   4  -8 1267.65   79.74
   6   4   8 1285.53   82.50
   6   4   8 1271.79   93.45
   6   4   8 1133.70   69.72
  -6   4  -8 1160.09   99.85
   6  -4   8 1269.68   91.01
  -6   4  -9   23.65   11.97
   6   4   9   18.01    9.16
   6   4   9   16.93   14.72
  -6   4  -9  -27.03   40.84
   6   4   9    6.60    4.80
   6  -4   9   24.67   19.45
  -6   4 -10 2518.30  149.55
  -6   4 -10 2116.65  194.50
   6   4  10 2491.52  204.34
   6  -4  10 2397.07  143.97
  -6   4 -11   63.84   24.33
  -6   4 -11   17.15   19.40
   6   4  11   26.65   42.91
   6  -4  11   30.19   15.73
  -6   4 -1210978.98  451.77
  -6   4 -1210169.05  438.70
   6   4  1211335.01  487.66
   6  -4  1210581.01  441.17
  -6   4 -13  110.27   26.31
   6   4  13  101.54   39.78
  -6   4 -13   15.02   31.53
  -6   4 -14 3640.27  235.06
   6   4  14 3341.67  231.80
  -6   4 -14 3141.17  221.66
  -6   4 -15  259.59   47.25
   6   4  15  358.29   88.80
  -6   4 -15  166.88  100.38
  -6   4 -16 1931.88  177.57
   6   4  17  588.63   97.46
  -6   4 -17  643.49   98.79
   6   4  18   46.23   37.58
  -6   4 -18   13.89   29.32
   6   4  19  720.49   70.79
  -6   4 -19  708.11   57.08
   6   4  20  699.36  191.15
  -6   4 -20  882.15  177.31
   6   4  21   16.38   18.39
  -6   4 -21   23.58   42.71
  -6   4 -22   23.71   49.91
  -6   4 -23  232.38  127.74
  -6   4 -24 1362.90  118.00
   6   6 -25   32.65   72.11
  -6   6  24  623.95  121.28
   6   6 -24  598.30  242.47
  -6   6  23 4629.93  258.33
   6   6 -23 4322.77  255.85
  -6   6  22   23.29   37.84
   6   6 -22   19.71   28.87
  -6   6  21  367.49  145.84
   6   6 -21  443.53  208.78
  -6   6  20  363.09  117.79
   6   6 -20  389.56  133.98
  -6   6  19  253.66   84.43
   6   6 -19  182.90   86.48
  -6   6  18 1276.02   59.78
   6   6 -18 1391.82  174.36
  -6   6  17  101.67   39.27
   6   6 -17   54.38   76.71
   6  -6 -17   30.64   15.75
  -6   6  16   27.40   39.39
   6   6 -16   30.48   11.94
   6   6 -16   79.77   37.49
   6  -6 -16   22.76   14.29
  -6   6  15  157.13   67.14
   6   6 -15  178.62   46.16
   6   6 -15  196.02  101.19
   6  -6 -15  163.83   69.80
  -6   6  14 2043.01   74.18
   6   6 -14 2004.52   72.37
   6   6 -14 1745.87  132.21
   6  -6 -14 2169.20  152.74
  -6   6  13   93.66   69.94
   6   6 -13  118.73   56.75
   6   6 -13   73.98   84.63
   6  -6 -13  148.78   37.68
   6  -6 -13  142.22   39.79
  -6   6  12 7650.90  334.55
   6   6 -12 8827.58  386.05
   6   6 -12 8191.03  367.33
   6  -6 -12 9037.78  380.06
   6  -6 -12 8533.11  358.17
  -6   6  11 4584.63  220.74
   6   6 -11 4200.76  317.96
   6   6 -11 4871.05  236.56
   6  -6 -11 4550.93  200.01
   6  -6 -11 4385.02  308.49
  -6   6  1019703.74  508.86
   6   6 -1021498.15  550.62
   6   6 -1018939.93  498.14
   6  -6 -1020048.95  492.74
  -6   6   9 5686.64  356.90
   6   6  -9 6544.74  125.42
   6   6  -9 6044.91  366.50
   6  -6  -9 6264.90  359.74
  -6   6   8 2190.65  199.07
   6   6  -8 2567.91  179.15
   6   6  -8 2510.67  199.32
   6  -6  -8 2171.91  130.03
  -6   6   7 5056.21  254.26
   6   6  -7 5226.36  256.96
   6   6  -7 5634.42  205.91
   6  -6  -7 5351.00  256.30
  -6   6   6 3702.47  192.07
   6   6  -6 4135.64  208.64
   6   6  -6 3562.66  188.76
   6  -6  -6 3872.72  189.00
  -6   6   5   82.13   40.60
   6   6  -5   44.58   39.04
  -6   6   5  108.65   28.82
   6   6  -5   47.45   20.56
  -6   6   4 5368.90  265.11
   6   6  -4 5493.89  120.03
  -6   6   4 5733.69  201.36
   6   6  -4 5542.34   99.81
  -6   6   3 3928.43  205.81
   6   6  -3 4038.80  206.44
  -6   6   3 4036.87  200.12
   6   6  -3 4134.49  239.85
  -6   6   2  199.80   80.51
   6   6  -2  255.95  146.91
  -6   6   2  207.61   47.19
   6   6  -2  154.30   90.21
  -6   6   1 5481.45  136.88
   6   6  -1 5468.46  147.02
  -6   6   1 5230.07  254.73
   6   6  -1 5403.74   92.03
  -6   6   017361.40  547.55
   6   6   016991.93  532.20
   6   6   015235.45  471.23
  -6   6  -1 1985.05  108.91
   6   6   1 1737.06  132.35
  -6   6  -1 1915.24   66.63
   6   6   1 1902.03   58.47
  -6   6  -2  883.20   83.20
   6   6   2 1033.23  120.89
  -6   6  -2  909.28   78.25
   6   6   2 1077.61   77.09
  -6  -6  -2 1084.39   74.86
  -6   6  -3   81.84   59.12
   6   6   3   -3.65   35.46
  -6   6  -3   82.03   55.36
   6   6   3   63.22   26.07
  -6  -6  -3   46.38   21.86
  -6   6  -4 8318.21  266.06
   6   6   4 8769.15  299.02
  -6   6  -4 7390.72  252.61
   6   6   4 8747.99  275.29
  -6  -6  -4 8139.18  251.39
  -6   6  -5 3194.93  190.73
   6   6   5 2950.98  215.73
  -6   6  -5 3174.11  201.68
   6   6   5 3171.83  186.10
  -6  -6  -5 3103.91  182.58
  -6   6  -6 1514.01  109.75
   6   6   6 1285.08  166.94
  -6   6  -6 1419.22  151.92
   6   6   6 1489.67  114.85
  -6  -6  -6 1293.60   90.78
  -6   6  -713672.47  567.27
   6   6   713480.97  576.70
  -6   6  -715983.43  676.83
   6   6   713495.15  556.01
  -6  -6  -714709.71  603.57
  -6   6  -8  210.21   46.12
   6   6   8  154.30   48.50
  -6   6  -8  178.61   74.29
   6   6   8  175.32   41.09
  -6  -6  -8  169.15   18.99
  -6   6  -9 2390.62  140.27
   6   6   9 2290.43  155.17
  -6   6  -9 2241.98  192.01
  -6   6 -10  467.69   53.52
   6   6  10  513.71  145.72
  -6   6 -10  517.46  165.57
  -6   6 -11 1861.34  112.25
   6   6  11 1633.26  166.30
  -6   6 -11 1681.08  134.56
  -6   6 -12    7.31   11.00
   6   6  12   -5.03   42.61
  -6   6 -12   67.39   42.49
  -6   6 -13 8983.30  338.62
   6   6  13 8489.70  353.28
  -6   6 -13 8103.53  343.46
  -6   6 -14  530.23   19.25
   6   6  14  512.10  197.53
  -6   6 -14  322.48  183.01
   6   6  15 4467.47  254.22
  -6   6 -15 5977.58  237.77
   6   6  16  209.97   99.21
  -6   6 -16   94.28   73.91
  -6   6 -17 2836.25  241.34
   6   6  18  117.34   74.35
  -6   6 -18   49.96   48.22
   6   6  19  240.51   87.85
  -6   6 -19  203.68   74.66
   6   6  20   42.63   35.64
  -6   6 -20   46.64   42.29
   6   6  21   47.92   45.02
  -6   6 -21   90.14   63.25
   6   6  22 1505.49  129.51
  -6   6 -22 1269.14  149.32
  -6   8  22   51.35   36.27
   6   8 -22   33.04   27.18
  -6   8  21 2073.94  101.26
   6   8 -21 2238.20  178.91
   6   8 -20 7171.90  408.39
  -6   8  19   57.62   61.73
   6   8 -19   90.66   91.81
  -6   8  18 2631.98  217.26
   6   8 -18 2495.92  245.09
  -6   8  17   96.86   44.05
   6   8 -17  130.56   47.99
  -6   8  16   -4.27   42.25
   6   8 -16   70.06   72.47
  -6   8  15 2609.81  221.19
   6   8 -15 2773.01  270.97
  -6   8  14  491.10  158.41
   6   8 -14  640.27  110.44
   6   8 -14  581.97  210.38
  -6   8  13 4321.64  180.45
   6   8 -13 5059.27  194.85
   6   8 -13 5477.83  232.96
   6  -8 -13 5041.94  174.19
  -6   8  12   54.39   42.45
   6   8 -12  124.30   44.22
   6   8 -12  -38.28   62.33
   6  -8 -12   81.66   28.16
  -6   8  11   36.16   37.00
   6   8 -11   30.57   44.00
   6   8 -11   44.85   70.51
   6  -8 -11   33.94   24.30
  -6   8  10 2340.99  205.51
   6   8 -10 2247.23  165.22
   6   8 -10 2131.39  167.25
   6  -8 -10 2432.58  166.65
  -6   8   9 8071.17  333.06
   6   8  -9 6786.84  279.74
   6   8  -9 6446.38  299.59
   6  -8  -9 6423.53  253.72
  -6   8   8   -1.81   68.93
   6   8  -8    8.64   42.05
   6   8  -8  -40.66   52.59
   6  -8  -8    8.03   23.38
  -6   8   7 3727.76  261.19
   6   8  -7 5437.45  365.86
   6   8  -7 4782.55  382.88
   6  -8  -7 5391.28  353.59
  -6   8   6  556.17  206.65
   6   8  -6  595.74   69.26
   6   8  -6  656.92   62.59
  -6   8   5 3875.29  231.61
   6   8  -5 4417.36  261.08
  -6   8   5 4084.11  236.68
   6   8  -5 3920.39  238.40
  -6   8   4 6893.84  284.07
   6   8  -4 5736.33  409.48
  -6   8   4 6162.76  104.09
   6   8  -4 6320.34  261.07
  -6   8   3 2509.62  159.68
   6   8  -3 2515.32  178.74
  -6   8   3 2984.81  220.72
   6   8  -3 3299.00  209.68
  -6   8   214576.80  553.76
   6   8  -213731.61  526.20
  -6   8   214586.50  545.99
   6   8  -216167.43  605.47
  -6   8   1  298.75   88.43
   6   8  -1  298.24  163.99
  -6   8   1  146.55   41.72
   6   8  -1  290.46   70.64
  -6   8   0 6986.04  280.49
   6   8   0 6768.16  280.25
  -6   8   0 5841.49  333.14
  -6   8  -1  594.32   56.27
   6   8   1  459.80   61.25
  -6   8  -1  569.26  189.18
   6   8   1  441.64   60.94
  -6   8  -2  280.49   89.66
   6   8   2  373.02  115.59
  -6   8  -2  389.70  101.68
   6   8   2  359.08   40.43
  -6   8  -3  457.16  105.88
   6   8   3  600.26  252.36
  -6   8  -3  617.81   54.76
   6   8   3  481.26   53.04
  -6   8  -415955.16  755.76
   6   8   416814.13  806.86
  -6   8  -414207.33  728.77
   6   8   415719.39  740.86
  -6   8  -5  988.30   78.90
   6   8   5  848.04  165.34
  -6   8  -5 1031.87   93.13
   6   8   5 1000.17   70.82
  -6   8  -6 6109.31  247.24
   6   8   6 5743.20  258.55
  -6   8  -6 6230.57  267.10
   6   8   6 6304.71  254.92
  -6   8  -7 2496.75  178.13
   6   8   7 2254.44  269.46
  -6   8  -7 2552.95  262.22
  -6   8  -8 1508.79  121.71
   6   8   8 1407.35  241.35
  -6   8  -8 1254.75  119.59
  -6   8  -9   30.88   18.47
   6   8   9   27.33   26.85
  -6   8  -9   11.89   36.55
  -6   8 -10  282.19  108.01
   6   8  10  402.35  148.65
  -6   8 -10  472.15  119.33
  -6   8 -11   99.17   28.55
   6   8  11  166.11  105.03
  -6   8 -11  412.70   69.68
  -6   8 -12 2242.66  182.06
   6   8  12 2011.04  207.48
  -6   8 -12 2311.35  320.22
   6   8  13   64.22   47.85
  -6   8 -13   29.60   41.74
   6   8  14 2949.37  253.38
  -6   8 -14 3270.31  273.34
   6   8  15 1867.33  374.71
  -6   8 -15 1763.12  175.27
   6   8  16 3359.39  211.08
  -6   8 -16 3734.76  229.65
   6   8  17   39.79   78.99
  -6   8 -17   34.53   54.26
   6   8  18   57.32   40.06
  -6   8 -18  -36.83   47.12
   6   8  19  594.05  309.41
  -6   8 -19  960.84  195.55
  -6  10  18   -3.54   41.08
   6  10 -18  -14.46   55.86
  -6  10  17 3374.41  243.28
   6  10 -17 3604.74  336.69
  -6  10  16   37.29   64.99
   6  10 -16   27.48   51.14
  -6  10  15    9.90   35.40
   6  10 -15   19.16   38.02
  -6  10  14  500.93  299.63
   6  10 -14 1015.27  110.89
  -6  10  13 1643.88  141.98
   6  10 -13 1768.27  152.09
  -6  10  12  807.94  238.68
   6  10 -12  598.62  105.71
   6  10 -12  563.09  240.70
  -6  10  11  919.21  187.45
   6  10 -11  903.98  107.89
   6  10 -11  993.62  116.04
  -6  10  10 6271.19  497.64
   6  10 -10 6715.45  523.72
   6  10 -10 6056.95  480.06
  -6  10   9 3953.90  259.68
   6  10  -9 4300.63  266.11
   6  10  -9 3696.14  240.93
   6 -10  -9 3884.74  241.51
  -6  10   8 1929.98  166.90
   6  10  -8 2003.23  170.59
   6  10  -8 2044.44  176.76
   6 -10  -8 2211.67  175.51
  -6  10   7   10.05   48.03
   6  10  -7  128.56   61.94
   6  10  -7   16.92   37.62
   6 -10  -7   27.55   31.73
  -6  10   6 3523.06  274.11
   6  10  -6 3728.15  258.53
  -6  10   6 3858.87  217.30
   6  10  -6 3401.72  199.22
  -6  10   5  266.29  119.36
   6  10  -5  233.37  108.32
  -6  10   5  253.33   89.64
   6  10  -5  151.33   59.56
  -6  10   4  238.30   83.79
   6  10  -4  173.34   61.59
  -6  10   4  135.27   51.25
  -6  10   3 3838.85  222.45
   6  10  -3 4048.51  234.41
  -6  10   3 4143.42  267.34
   6  10  -3 4634.66  256.43
  -6  10   2  563.21  188.70
   6  10  -2  631.89  195.43
   6  10  -2  502.71   72.74
  -6  10   1   43.40   63.63
   6  10  -1   56.72   47.61
  -6  10   1   54.23   31.28
   6  10  -1   45.74   27.46
  -6  10   0  874.47   63.34
   6  10   0  632.02  272.09
  -6  10   0  895.80   73.38
   6  10   0  913.52  123.04
  -6  10  -1 8657.97  451.61
   6  10   1 8350.23  445.11
  -6  10  -1 9125.20  477.04
   6  10   1 8498.88  438.75
  -6  10  -2  413.16  184.11
   6  10   2   34.44   43.38
  -6  10  -2  388.81  124.30
  -6  10  -3 7283.52  428.82
   6  10   3 6124.36  384.21
  -6  10  -3 7181.29  428.07
   6  10   3 7056.68  410.46
  -6  10  -4  826.58   80.36
   6  10   4  836.76   71.25
  -6  10  -4  871.09   87.65
  -6  10  -5 1188.16  108.49
   6  10   5 1258.39  276.77
  -6  10  -5 1102.51   82.62
  -6  10  -6   27.98   39.48
   6  10   6   88.21   68.38
  -6  10  -6  121.30   54.24
  -6  10  -7 2023.45  191.29
   6  10   7 1490.59  165.51
  -6  10  -7 2121.80  202.62
  -6  10  -8  847.61   64.20
   6  10   8  568.32  137.50
  -6  10  -8  476.99  194.17
  -6  10  -9  462.44   39.38
   6  10   9  562.14  229.79
  -6  10  -9  359.84  164.96
  -6  10 -10   56.46   63.61
   6  10  10  170.61   97.63
  -6  10 -10   98.95   84.32
   6  10  11  112.64   62.64
  -6  10 -11  102.69   55.84
   6  10  12 2395.02  171.22
  -6  10 -12 2003.37   96.11
   6  10  13 1336.20  135.02
  -6  10 -13 1477.19  143.39
   6  10  14   75.02   31.79
  -6  10 -14   93.33   45.67
  -6  12   9 5095.40  389.33
   6  12  -9 5500.86  318.61
  -6  12   8 1501.26  137.44
   6  12  -8 1400.11  186.65
   6  12  -8 1575.37  160.98
  -6  12   7  360.47  237.39
   6  12  -7  353.36  234.14
   6  12  -7  451.57  202.14
  -6  12   6  455.19  237.56
   6  12  -6  444.81  202.90
   6  12  -6  836.52  160.22
  -6  12   5   -2.07   53.29
   6  12  -5   22.41   23.59
  -6  12   5   19.16   19.75
   6  12  -5   93.75   53.86
  -6  12   4   27.74   36.13
   6  12  -4   48.11   96.80
  -6  12   4   81.52   60.73
   6  12  -4   26.58   26.02
  -6  12   3   50.63   58.73
   6  12  -3   26.47   61.45
  -6  12   3  111.91   43.87
   6  12  -3   70.74   30.36
  -6  12   2  423.74  196.34
   6  12  -2  456.65  114.65
  -6  12   2  327.40  144.82
   6  12  -2  162.37  119.81
  -6  12   1  116.61  101.48
   6  12  -1   86.28  114.14
  -6  12   1   71.79   31.63
   6  12  -1   59.45   77.80
  -6  12   0   39.30   62.13
   6  12   0   90.98   37.42
  -6  12   0   33.84   33.15
  -6  12  -1 1297.64  126.50
   6  12   1 1023.99  200.26
  -6  12  -1 1369.15  129.84
  -6  12  -2  285.06   45.31
  -6  12  -2  250.17   80.40
  -6  12  -3 2004.37  171.62
   6  12   3 2107.23  215.71
  -6  12  -4  921.71   86.32
   6  12   4  838.09  121.20
  -6  12  -4  917.62   92.64
  -6  12  -5  658.61  129.07
   6  12   5  266.19  246.22
  -6  12  -5  431.64  202.13
  -6  12  -6  120.96   66.66
  -6  12  -6  122.01   53.41
   7   1 -28   68.58   32.51
   7   1 -27  450.75   86.86
   7   1 -26   78.99   42.46
   7   1 -25  170.05   92.64
   7  -1 -25   64.00   45.38
   7   1 -2410929.38  633.81
   7  -1 -24 8838.66  526.42
   7   1 -23 1639.01  146.53
   7  -1 -23 1375.82  121.97
   7   1 -22 5986.95  372.53
   7  -1 -22 5885.59  325.73
  -7   1  21   29.94   21.74
   7   1 -21   58.57   47.38
   7  -1 -21   12.17   31.24
  -7   1  20    6.21   13.23
   7   1 -20   71.16   47.67
   7  -1 -20    8.95   32.80
   7   1 -19 6383.60  256.14
  -7   1  19 6243.22  236.13
  -7  -1  19 6378.81  231.89
   7  -1 -19 6566.91  256.85
   7   1 -18 9524.55  395.22
  -7   1  18 9044.93  376.05
   7   1 -18 8916.89  385.97
  -7  -1  18 9427.04  386.62
   7  -1 -18 9748.30  416.75
   7   1 -17  589.19  155.28
  -7   1  17  580.37   29.14
   7   1 -17  580.94   25.13
   7  -1 -17  437.13  101.19
  -7  -1  17  580.86   34.85
   7  -1 -17  611.57   41.91
   7   1 -16  941.70  112.43
  -7   1  16  906.41   72.03
   7   1 -16 1085.85   79.40
   7  -1 -16 1059.67  139.29
  -7  -1  16  977.69   69.93
   7  -1 -16  949.75  116.07
   7   1 -1511495.59  392.51
  -7   1  1510345.36  319.18
   7   1 -1512592.25  383.77
   7  -1 -1511799.86  369.40
  -7  -1  1510931.06  328.06
   7  -1 -1511911.45  386.50
   7   1 -14   85.42   34.95
  -7   1  14   23.67   18.17
   7   1 -14   34.63   13.58
   7  -1 -14   55.04   18.65
  -7  -1  14  159.39   28.92
   7  -1 -14  118.59   32.18
   7   1 -13 2796.61  172.65
  -7   1  13 2771.73  172.32
   7   1 -13 3351.78  197.91
   7  -1 -13 3018.47  191.74
  -7  -1  13 3081.48  181.49
   7  -1 -13 3038.26  184.57
  -7   1  12  373.78  133.92
   7   1 -12  299.79  105.09
   7   1 -1120597.87  517.38
  -7   1  1119221.50  467.89
   7   1 -1120433.32  496.78
   7  -1 -1122219.46  550.59
  -7  -1  1120034.73  485.67
   7  -1 -1119593.72  489.44
   7   1 -1029937.40  749.26
   7   1 -1026126.18  670.38
  -7   1  1027482.29  689.05
   7   1  -9  984.32   83.25
   7   1  -9 1149.10   66.81
  -7   1   9 1106.11  112.25
  -7   1   9 1054.48   59.05
   7  -1  -9 1110.22   68.83
   7  -1  -9 1165.02   75.13
  -7  -1   9  923.94   52.94
   7   1  -712128.42  316.74
   7   1  -712876.45  324.39
  -7   1   712449.48  316.76
  -7   1   711380.65  292.68
  -7  -1   712079.94  304.00
  -7  -1   713154.25  338.37
   7  -1  -712929.19  331.78
   7  -1  -712861.52  331.08
  -7   1   6 7866.96  187.13
  -7   1   6 7120.82  167.36
   7   1  -6 7058.59  173.05
  -7  -1   6 7585.79  174.51
  -7  -1   6 7244.87  175.08
   7  -1  -6 7606.41  182.72
   7  -1  -6 6927.33  171.50
   7   1  -5  777.32   63.71
   7   1  -5  683.91   48.75
  -7   1   5  639.06   48.14
  -7   1   5  762.86   63.57
  -7  -1   5  623.07   46.18
  -7  -1   5  759.83   57.13
   7  -1  -5  729.85   85.73
   7  -1  -5  571.07   45.87
   7   1  -4  887.73   72.32
   7   1  -4  986.27   68.59
  -7   1   4  986.58   70.85
  -7   1   4  987.39   73.61
  -7  -1   4 1049.69   74.36
  -7  -1   4 1063.18   82.26
   7  -1  -4  931.06   80.90
   7  -1  -4 1242.72   87.98
   7   1  -3 3226.56  107.57
   7   1  -3 3366.34   81.23
  -7   1   3 3087.36   82.11
  -7   1   3 3401.68   89.80
  -7  -1   3 3202.04   80.41
  -7  -1   3 3559.32   92.32
   7  -1  -3 3818.35   99.42
   7  -1  -3 3581.50   93.07
   7   1  -2 7286.01  174.49
   7   1  -2 7350.66  173.83
  -7   1   2 6812.54  161.60
  -7   1   2 6627.54  160.77
  -7  -1   2 7250.03  170.02
  -7  -1   2 6812.02  162.12
   7  -1  -2 6519.71  159.00
   7  -1  -2 6477.13  153.92
  -7  -1   117133.67  386.32
   7  -1  -116323.22  369.04
   7  -1  -117131.24  393.97
   7   1   013258.12  299.47
   7   1   012465.97  285.64
  -7  -1   013055.11  298.37
   7  -1   012994.38  295.25
  -7  -1   012881.63  294.53
   7  -1   013576.89  312.91
  -7   1  -1  752.31   60.09
   7   1   1  920.27   74.56
   7   1   1  863.66   76.63
  -7  -1  -1  760.49   59.05
   7  -1   1  717.21   58.14
   7  -1   1  739.26   57.40
  -7  -1  -1  799.00   61.23
   7  -1   1  724.39   87.66
   7   1   2 5189.44  129.52
   7   1   2 5161.44  129.30
   7  -1   2 5542.64  139.50
   7  -1   2 5932.84  141.13
   7  -1   2 5905.62  147.08
   7   1   415689.64  401.91
   7   1   416742.28  423.12
   7   1   416265.52  410.99
  -7   1  -417497.20  446.22
  -7  -1  -417615.32  447.17
   7  -1   415658.75  402.43
   7  -1   416098.41  404.52
   7   1   5 7396.73  194.93
   7   1   5 7200.87  236.90
   7   1   5 6930.46  329.13
  -7   1  -5 6925.11  332.94
  -7  -1  -5 6766.33  334.86
   7  -1   5 7607.64  206.48
   7  -1   5 7625.68  197.31
   7   1   625948.95  648.89
   7   1   627138.43  682.97
   7   1   629677.86  742.43
   7  -1   627172.77  690.52
  -7   1  -7 7486.11  188.27
   7   1   7 7246.86  184.33
   7   1   7 6748.98  177.95
  -7   1  -7 7984.55  209.25
   7   1   7 8254.11  210.37
   7  -1   7 7513.65  189.07
  -7   1  -8 5083.80  133.55
   7   1   8 5193.18  136.26
   7   1   8 5303.69  145.73
  -7   1  -8 5172.16  143.55
   7   1   8 5938.58  157.58
   7  -1   8 5501.83  142.23
  -7   1  -915744.02  544.15
   7   1   915749.79  542.98
   7   1   915020.48  523.46
  -7   1  -915395.15  536.80
   7   1   916732.25  585.19
   7  -1   917018.15  582.64
  -7   1 -10 5626.98  199.99
   7   1  10 6192.18  220.29
   7   1  10 5922.90  231.82
  -7   1 -10 6137.30  233.66
   7   1  10 7160.32  255.81
   7  -1  10 6690.64  233.47
  -7   1 -11    9.52   14.28
   7   1  11    3.39   22.19
   7   1  11   19.94   33.41
  -7   1 -11  -21.60   53.97
   7   1  11   11.99   20.71
   7  -1  11   93.43   51.91
   7   1  1225111.20  617.63
   7   1  1222387.56  562.70
  -7   1 -1223683.26  597.08
   7   1  1224657.24  601.69
   7  -1  1222566.74  555.64
   7  -1  1226738.54  649.97
   7   1  13 6122.35  354.37
   7   1  13 6518.07   93.80
  -7   1 -13 6979.71  289.06
   7  -1  13 6561.51  175.16
   7  -1  13 6553.82  167.98
   7   1  14 4511.77  198.01
  -7   1 -14 4100.01  290.63
   7   1  14 4903.71  211.81
   7  -1  14 4518.50  206.09
   7   1  15 4331.40  245.26
   7   1  15 5082.25  279.42
  -7   1 -15 4610.60  259.34
   7  -1  15 5818.71  320.36
   7   1  16  963.21  120.41
   7   1  16 1001.70   70.21
  -7   1 -16 1045.75   77.23
   7  -1  16  933.09   80.52
   7   1  17 1113.96   53.27
   7   1  17 1141.82   39.32
  -7   1 -17 1134.96   53.24
   7  -1  17 1030.75   81.16
  -7   1 -18  127.07   76.70
   7   1  18   87.76   35.00
   7   1  19   24.27   14.11
  -7   1 -19   21.33   23.75
  -7   1 -20 1768.47  143.85
  -7   1 -21  187.16   79.18
  -7   1 -22   35.73   32.32
   7   3 -28   57.85   53.33
   7   3 -27  586.21   66.55
   7   3 -26  404.89  141.32
   7   3 -25 1027.65  103.58
   7   3 -24   42.34   42.04
  -7   3  23   -7.64   16.93
   7   3 -23  100.35   42.09
  -7   3  22  206.71   81.41
   7   3 -22  544.80   91.01
   7  -3 -22  265.45   78.72
  -7   3  21 2054.83  159.14
   7   3 -21 2516.57  205.31
   7  -3 -21 2031.00  158.24
  -7   3  20 6288.69  251.51
   7   3 -20 6076.03  261.29
   7  -3 -20 6158.41  244.96
  -7   3  19 3369.46  242.27
   7   3 -19 3976.88  276.40
   7  -3 -19 4071.40  270.34
   7   3 -18 3528.30  214.98
   7  -3 -18 3274.24  186.41
  -7   3  17 1021.99  104.84
   7   3 -17 1205.97   57.72
   7   3 -17 1236.24   58.50
   7   3 -17 1298.61  110.36
   7  -3 -17 1000.60   75.87
  -7   3  16  248.56   69.21
   7   3 -16  330.81   26.44
   7   3 -16  284.03   39.42
   7   3 -16  338.41   91.30
   7  -3 -16  278.94   79.65
   7   3 -15 8836.45  218.93
   7   3 -15 8135.04  204.54
   7   3 -15 9233.55  260.65
   7  -3 -15 8122.71  212.89
   7   3 -14 3093.46  146.26
  -7   3  14 2861.05  144.81
   7   3 -14 3644.97  178.71
   7   3 -14 3657.83  190.31
   7  -3 -14 3559.28  173.36
   7   3 -13 3339.17  158.45
  -7   3  13 3319.10  167.02
   7   3 -13 3214.34  154.15
   7   3 -13 3361.62  202.62
  -7   3  13 3225.29  157.11
   7  -3 -13 3404.44  165.72
   7   3 -12 7591.38  263.39
  -7   3  12 7972.73  287.27
   7   3 -12 7426.70  271.45
   7   3 -12 7517.97  284.65
  -7   3  12 7631.92  269.87
   7  -3 -12 7442.22  263.67
   7   3 -1113806.54  471.82
  -7   3  1114030.31  491.08
   7   3 -1113418.27  463.70
   7   3 -1113803.26  491.41
  -7   3  1112864.29  447.32
   7  -3 -1112329.36  433.41
   7   3 -10  871.26   45.37
  -7   3  10  739.80  264.54
   7   3 -10  781.47   49.00
   7   3 -10  870.51  126.35
  -7   3  10 1012.53   57.31
   7  -3 -10  985.77   56.12
   7   3  -912888.51  314.85
   7   3  -912274.90  305.44
   7   3  -912705.59  330.71
  -7   3   913352.82  332.78
   7  -3  -911761.33  293.20
   7   3  -8  849.42   49.78
  -7   3   8  779.99   50.38
   7   3  -8  772.39   45.52
   7   3  -8 1076.12   75.54
  -7   3   8  752.28   59.83
   7  -3  -8  939.56   52.98
   7   3  -7 1536.48   76.93
  -7   3   7 1186.71   97.34
   7   3  -7 1465.97   76.84
   7   3  -7 1403.08   85.40
   7  -3  -7 1264.32   69.26
   7  -3  -7 1278.71   69.35
   7   3  -6 3154.30  152.13
  -7   3   6 2709.58  162.38
   7   3  -6 3165.11  159.32
   7   3  -6 3188.79  164.38
   7  -3  -6 3152.27  156.97
   7   3  -5 9959.87  258.55
  -7   3   5 9477.93  252.95
   7   3  -510260.89  275.47
   7  -3  -5 9303.70  255.77
  -7   3   4  641.86   35.80
   7   3  -4  725.44   47.65
   7   3  -4  677.92   42.61
   7  -3  -4  728.29   51.10
  -7  -3   4  751.43   60.01
   7  -3  -4  585.98   32.46
   7   3  -3 3290.11  162.87
  -7   3   3 2919.91  148.10
   7   3  -3 3540.69  177.04
   7   3  -3 3178.93  162.89
   7  -3  -3 3497.30  178.93
  -7  -3   3 3362.28  169.59
   7  -3  -3 3669.38  181.86
   7   3  -2 2987.52  146.79
  -7   3   2 3246.17  162.61
   7   3  -2 2888.06  148.23
   7   3  -2 2947.99  148.17
   7  -3  -2 2744.73  140.02
   7  -3  -2 2912.50  147.67
   7   3  -133999.70  854.17
  -7   3   137328.89  935.31
  -7   3   0  401.00   26.53
  -7   3   0  440.14   35.21
   7   3   0  492.88   41.70
   7   3   0  385.50   55.36
   7  -3   0  353.02   23.16
  -7  -3   0  424.73   23.31
  -7   3  -1 8042.60  211.03
  -7   3  -1 8520.42  230.09
   7   3   1 9382.32  254.06
   7   3   1 8418.19  236.26
   7  -3   1 8527.37  235.30
  -7  -3  -1 8416.00  220.72
  -7   3  -221132.53  531.46
   7   3   221913.07  551.44
   7   3   218234.79  470.69
   7  -3   221987.60  558.96
  -7  -3  -220183.78  506.04
  -7   3  -333245.10  843.69
   7   3   331857.96  804.78
   7  -3   337657.92  943.45
  -7  -3  -337006.11  919.18
  -7   3  -4 1432.77   71.94
  -7   3  -4 1927.21  105.32
   7   3   4 1775.36  102.33
   7   3   4 1507.91   93.79
   7  -3   4 1820.81   95.92
  -7  -3  -4 1578.17   78.74
  -7   3  -5 2733.51  132.56
  -7   3  -5 2163.34  152.79
   7   3   5 2363.99  140.55
   7   3   5 2450.01  119.28
   7  -3   5 2287.66  120.44
  -7  -3  -5 2766.17  134.40
  -7   3  -6 9066.64  229.27
  -7   3  -6 8536.58  230.92
   7   3   6 8624.21  231.91
   7   3   6 9127.83  226.72
   7  -3   6 9266.72  237.79
  -7  -3  -6 9414.52  235.68
  -7   3  -7    7.77   10.16
   7   3   7    0.06    9.73
   7   3   7   -1.39   25.52
   7   3   7    7.17    7.28
  -7   3  -7   12.02   32.08
   7  -3   7   34.41   15.02
  -7   3  -8 2477.50  147.24
   7   3   8 2421.82  142.79
   7   3   8 2565.88  164.95
   7   3   8 2456.99  146.30
  -7   3  -8 2382.20  155.35
   7  -3   8 2434.98  147.55
  -7   3  -916897.95  506.09
   7   3   916448.58  492.54
   7   3   918812.46  581.47
  -7   3  -916939.90  527.57
   7   3   916536.44  496.64
   7  -3   917577.61  533.34
  -7   3 -10  833.53   56.66
   7   3  10  767.66   51.52
   7   3  10  962.70   92.23
  -7   3 -10  868.70   88.65
   7   3  10  721.68   78.59
   7  -3  10  742.96   66.61
  -7   3 -1114144.11  346.01
   7   3  1114415.21  350.24
   7   3  1114663.51  382.35
  -7   3 -1115512.47  402.92
   7   3  1114757.01  361.92
   7  -3  1115071.37  378.09
  -7   3 -12 1418.26   41.25
  -7   3 -12 1155.63  410.74
   7   3  12 1481.38  131.39
   7   3  12 1382.53   36.00
   7  -3  12 1250.34   42.24
  -7   3 -13 2260.73  131.82
   7   3  13 2396.98  132.23
   7   3  13 2402.54  184.98
  -7   3 -13 2555.10  157.89
   7   3  13 2760.50  152.57
   7  -3  13 2374.97  134.90
  -7   3 -14   16.84   19.10
   7   3  14   21.93   41.50
  -7   3 -14   14.94   41.23
   7   3  14    2.97   10.08
  -7   3 -1511130.44  535.36
   7  -3  1511992.64  560.96
   7   3  16 1998.30  156.62
  -7   3 -16 1449.48  112.67
   7   3  17   35.50   24.44
  -7   3 -17  -21.25   34.73
   7   3  18 1419.36  119.95
  -7   3 -18 1585.92  143.16
   7   3  19   15.08   16.99
  -7   3 -19   69.99   23.52
   7   3  20    7.51   27.08
  -7   3 -20   30.34   58.59
  -7   3 -21   42.61   39.01
  -7   3 -22   30.15   32.96
  -7   3 -23  123.34   64.21
  -7   3 -24 2999.79  183.27
   7   5 -26 2078.54  152.96
   7   5 -25 4449.83  271.71
  -7   5  24 2372.68  142.33
   7   5 -24 2929.60  188.89
  -7   5  23 4801.54  366.73
   7   5 -23 5238.78  401.47
  -7   5  22   25.94   37.84
   7   5 -22   77.95   52.03
  -7   5  21  298.45  137.22
   7   5 -21  346.52  196.17
  -7   5  20  270.21  122.48
   7   5 -20  264.67  137.56
   7   5 -19  245.65   90.83
   7  -5 -19  103.80   35.30
  -7   5  18 1739.04  187.55
   7   5 -18 1661.06  145.06
   7  -5 -18 1617.64  127.08
  -7   5  17  343.60   97.41
   7   5 -17  303.26   40.86
   7   5 -17  430.70  176.32
   7  -5 -17  298.40   84.48
  -7   5  16  164.64   40.83
   7   5 -16  146.30   45.12
   7   5 -16  163.03   91.25
   7  -5 -16  118.07   30.38
   7   5 -15  589.21   32.10
  -7   5  15  529.02  183.18
   7   5 -15  562.92   37.55
   7   5 -15  558.84   72.35
   7  -5 -15  703.08   43.15
   7   5 -1413073.46  535.63
  -7   5  1412259.57  521.68
   7   5 -1413098.82  551.05
   7   5 -1413323.41  572.02
   7  -5 -1413617.06  563.72
   7   5 -13 5160.35  216.89
  -7   5  13 5080.85  250.45
   7   5 -13 4828.61  219.85
   7   5 -13 4588.64  296.33
   7  -5 -13 4986.80  224.60
   7   5 -12 9403.28  232.62
  -7   5  1210296.76  281.20
   7   5 -12 9607.63  250.64
   7   5 -12 9869.19  280.34
   7  -5 -12 9311.51  241.15
   7   5 -11 6099.78  347.30
  -7   5  11 6240.19  367.59
   7   5 -11 6096.09  351.68
   7   5 -11 5681.67  337.86
   7  -5 -11 6058.63  349.26
  -7   5  1011824.38  377.15
   7   5 -1013154.42  414.15
   7   5 -1010609.19  356.17
   7  -5 -1011133.39  354.43
  -7   5   9 6286.13  215.49
   7   5  -9 6911.41  224.35
   7   5  -9 6452.98  226.89
   7  -5  -9 6743.03  213.75
  -7   5   8  709.09   63.32
   7   5  -8  580.46   97.66
   7   5  -8  622.08   68.74
   7  -5  -8  510.24   39.48
  -7   5   7  665.27   58.05
   7   5  -7  674.60   43.82
   7   5  -7  692.99   65.29
   7  -5  -7  653.80   40.07
  -7   5   6  587.42  161.02
   7   5  -6  488.74   36.82
   7   5  -6  616.97   59.57
   7  -5  -6  562.08   35.13
  -7   5   5  757.38   74.27
   7   5  -5  703.99   64.93
   7   5  -5  732.70   96.93
   7  -5  -5  700.59   54.04
  -7   5   4  585.90   58.70
   7   5  -4  569.30   41.60
   7   5  -4  567.17   49.97
   7  -5  -4  604.85   40.56
  -7   5   3 1168.93   98.05
   7   5  -3 1034.00   68.51
  -7   5   3 1221.46   74.20
   7   5  -3 1160.16   77.83
  -7   5   2  997.41   69.09
   7   5  -2  822.67   62.04
  -7   5   2  892.03   64.80
   7   5  -2  879.34   55.88
  -7   5   1 1002.91   85.98
   7   5  -1  803.49   67.39
  -7   5   1 1043.49   89.74
   7   5  -1  852.10   61.13
  -7   5   0   34.79   31.06
   7   5   0   45.02   30.02
  -7   5   0   37.13   34.23
   7   5   0  -11.78   22.87
  -7   5  -1  350.31   73.85
   7   5   1  341.59  117.85
  -7   5  -1  264.95   47.74
   7   5   1  305.25   53.12
  -7  -5  -1  259.05   22.65
  -7   5  -2 2144.87  136.03
   7   5   2 2146.79  166.96
  -7   5  -2 1857.00  124.51
   7   5   2 2334.72  142.64
  -7  -5  -2 2687.56  160.62
  -7   5  -3 3364.13  211.90
   7   5   3 3603.75  238.81
  -7   5  -3 4091.40  191.18
   7   5   3 3769.85  143.07
  -7  -5  -3 3842.19  139.54
  -7   5  -4  688.14   51.17
   7   5   4  706.51  141.47
  -7   5  -4  534.79   69.38
   7   5   4  633.63   40.92
  -7  -5  -4  629.79   33.92
  -7   5  -5 4181.66  202.54
   7   5   5 3930.19  207.67
  -7   5  -5 3997.37  215.45
   7   5   5 3873.63  186.21
  -7  -5  -5 3954.00  187.01
  -7   5  -6   59.71   23.93
   7   5   6   32.75   50.03
  -7   5  -6   40.25   43.70
   7   5   6   76.71   20.79
  -7  -5  -6   41.88   15.08
  -7   5  -7 3309.80  194.76
   7   5   7 3277.34  204.48
  -7   5  -7 4140.68  288.15
   7   5   7 3739.72  214.92
  -7  -5  -7 3720.70  212.07
  -7   5  -817477.41  430.97
   7   5   817018.14  449.04
  -7   5  -816817.62  443.82
   7   5   816891.24  411.00
  -7   5  -910952.21  458.29
   7   5   911232.79  486.12
   7   5   910161.92  416.18
  -7   5  -910157.80  440.08
   7   5   911535.38  472.74
  -7   5 -10 2882.77  198.82
   7   5  10 2770.72  210.76
  -7   5 -10 2674.92  198.38
  -7   5 -11   65.45   24.43
   7   5  11   49.34   36.60
  -7   5 -11   22.01   26.90
  -7   5 -12 5542.83  356.42
   7   5  12 5453.27  465.26
  -7   5 -12 5466.67  367.41
  -7   5 -13 1438.26  101.94
   7   5  13 1857.41  219.65
  -7   5 -13 1225.87   81.43
  -7   5 -14 7543.82  400.02
   7   5  14 7886.35  439.90
  -7   5 -14 7584.69  423.25
   7   5  15 1056.91  122.80
  -7   5 -15 1100.09  151.91
  -7   5 -16 1322.95  105.20
   7   5  17   61.36   62.37
  -7   5 -17   62.77   37.16
   7   5  18   38.11  137.53
  -7   5 -18  101.65   54.98
   7   5  19  365.24  214.47
  -7   5 -19  355.64  209.03
   7   5  20   14.51   58.65
  -7   5 -20   -3.94   34.36
   7   5  21  122.76   76.58
  -7   5 -21   64.80   60.84
  -7   5 -22  270.13  133.03
  -7   7  24   36.69   35.50
   7   7 -24   14.65   43.96
  -7   7  23  855.04  125.73
   7   7 -23 1045.35  114.69
  -7   7  22 1740.81  105.91
  -7   7  21 2982.36  178.83
   7   7 -21 3056.52  205.89
   7   7 -20 2684.37  252.69
  -7   7  19  590.82  199.90
   7   7 -19  754.41   68.70
  -7   7  18 1913.50  176.94
   7   7 -18 2017.11  187.56
  -7   7  17 4233.87  236.15
   7   7 -17 3547.51  224.84
  -7   7  16  108.94   36.97
   7   7 -16  221.62  119.68
  -7   7  15 2790.33  221.53
   7   7 -15 3181.12  238.57
   7   7 -15 3585.11  326.53
   7  -7 -15 2948.24  223.95
  -7   7  14  123.14   46.76
   7   7 -14   97.36   39.99
   7   7 -14  104.86   62.23
   7  -7 -14   80.44   21.44
  -7   7  13 1501.39  126.13
   7   7 -13 1946.15  138.66
   7   7 -13 2078.27  184.91
   7  -7 -13 1982.57  136.18
  -7   7  12  531.85  173.47
   7   7 -12  860.63   67.97
   7   7 -12  885.56   89.76
   7  -7 -12  744.44   52.47
  -7   7  11  368.35  139.82
   7   7 -11  386.46   41.51
   7   7 -11  292.70   85.67
   7  -7 -11  447.25   82.06
  -7   7  10   62.78   51.86
   7   7 -10   44.57   61.95
   7   7 -10  128.31   45.01
   7  -7 -10   74.49   45.61
  -7   7   910889.17  424.23
   7   7  -913357.83  501.77
   7   7  -913621.79  523.08
   7  -7  -913126.41  484.47
  -7   7   8  676.17  239.23
   7   7  -8  530.53   55.36
   7   7  -8  545.34  158.25
   7  -7  -8  706.77   49.01
  -7   7   7 2049.33  157.98
   7   7  -7 2368.09  188.28
   7   7  -7 2805.79  316.13
   7  -7  -7 1978.59  144.45
  -7   7   6 2101.56  159.52
   7   7  -6 2169.59  165.77
   7   7  -6 2140.05  170.03
   7  -7  -6 2504.44  179.57
  -7   7   5  463.14  181.21
   7   7  -5  524.05  168.58
  -7   7   5  567.17   53.56
   7   7  -5  378.17  181.07
  -7   7   4 1927.74  170.28
   7   7  -4 1829.21  142.30
  -7   7   4 1824.88  151.18
   7   7  -4 1778.26  142.78
  -7   7   3 1052.61  122.15
   7   7  -3  810.01  121.50
  -7   7   3  959.67   73.99
   7   7  -3  897.27   70.82
  -7   7   2 1348.06   63.75
   7   7  -2 1230.41   60.75
  -7   7   2 1176.64   55.85
   7   7  -2 1336.98  128.09
  -7   7   1 2432.34  182.80
   7   7  -1 1764.12  136.89
  -7   7   1 1962.16  150.05
   7   7  -1 1964.98  150.34
  -7   7   0   26.34   24.66
   7   7   0   29.36   30.31
  -7   7   0   94.22   42.16
   7   7   0   65.08   29.39
  -7   7  -1 2567.04  216.56
   7   7   1 2367.00  184.75
  -7   7  -1 2580.42  221.92
   7   7   1 2912.53  209.61
  -7   7  -210045.22  429.54
   7   7   210111.94  466.53
  -7   7  -211534.94  495.13
  -7   7  -3 7473.96  323.94
   7   7   3 6370.71  308.61
  -7   7  -3 7844.18  346.79
   7   7   3 7062.85  313.01
  -7   7  -4 9947.55  386.57
   7   7   4 8871.89  358.31
  -7   7  -410021.41  390.20
   7   7   4 9856.23  377.46
  -7   7  -5 1867.34   98.10
   7   7   5 1996.62  124.57
  -7   7  -5 1997.83  139.66
   7   7   5 1828.00   95.72
  -7  -7  -5 1721.62   83.90
  -7   7  -6 1388.70   79.12
   7   7   6 1104.93  139.27
  -7   7  -6 1270.90  234.38
   7   7   6 1215.66   64.51
  -7  -7  -6 1204.10   60.27
  -7   7  -7  726.22   56.27
   7   7   7  990.83  167.68
  -7   7  -7  691.59   74.54
   7   7   7  721.08   60.00
  -7   7  -8    9.52   27.89
   7   7   8   34.37   36.99
  -7   7  -8   15.01   25.43
   7   7   8   16.28   16.76
  -7   7  -9 5464.72  215.99
   7   7   9 5240.39  301.38
  -7   7  -9 5024.16  259.77
  -7   7 -10 1311.91   38.59
   7   7  10 1368.21   88.26
  -7   7 -1111498.17  609.73
   7   7  1111866.05  653.56
  -7   7 -1110192.44  571.52
  -7   7 -12 2564.97  182.70
   7   7  12 2564.46  210.22
  -7   7 -12 2232.42  186.22
  -7   7 -13  566.15   24.61
   7   7  13  554.19  134.49
  -7   7 -13  386.14  172.45
   7   7  14  340.58  106.12
  -7   7 -14  340.46  158.51
   7   7  15 3932.03  324.63
  -7   7 -15 3840.47  324.82
   7   7  16  237.04  108.82
  -7   7 -16  249.63  122.64
  -7   7 -17  166.57   97.12
   7   7  18   27.26   29.36
  -7   7 -18  126.28   47.87
   7   7  19   16.49   24.74
  -7   7 -19   25.75   66.98
   7   7  20 2201.45  153.68
  -7   7 -20 2553.37  208.26
  -7   9  20 1633.40  130.02
   7   9 -20 1536.38  129.88
  -7   9  19 1495.02  144.69
   7   9 -19 1589.41  247.05
  -7   9  18 1338.88   77.22
   7   9 -18 1069.17  383.96
  -7   9  17 2424.12  158.43
   7   9 -17 2352.99  226.06
  -7   9  16 2012.96  168.80
   7   9 -16 1892.30  170.62
  -7   9  15 1268.05  161.24
   7   9 -15 1130.12  230.31
  -7   9  14 8104.03  637.12
   7   9 -14 8605.28  662.43
   7   9 -14 9833.11  770.48
  -7   9  13  280.35  108.42
   7   9 -13  238.94   74.86
   7   9 -13  178.15   67.73
  -7   9  12 6773.27  406.71
   7   9 -12 6417.42  400.54
   7   9 -12 7113.83  431.71
   7  -9 -12 7294.60  418.63
  -7   9  11 1173.23  100.20
   7   9 -11  939.97   54.91
   7   9 -11 1535.02  407.56
   7  -9 -11 1202.22   44.52
  -7   9  10  499.74  234.28
   7   9 -10  629.74  166.53
   7   9 -10  678.82  211.21
   7  -9 -10  646.24   59.84
  -7   9   9 3771.48  184.20
   7   9  -9 3175.73  277.86
   7   9  -9 3914.77  178.42
   7  -9  -9 3362.56  243.85
  -7   9   8  121.79   55.15
   7   9  -8  137.55  136.59
   7   9  -8  185.92   50.11
   7  -9  -8  258.85   76.28
  -7   9   7 3128.82  354.56
   7   9  -7 2681.21  264.73
   7   9  -7 2740.65  245.62
   7  -9  -7 2647.89  203.79
  -7   9   6 3235.04  254.60
   7   9  -6 3169.48  251.22
   7   9  -6 3077.81  337.66
  -7   9   5 3036.31  287.25
   7   9  -5 3593.03  303.51
   7   9  -5 3619.75  284.73
  -7   9   4 3241.73  258.98
   7   9  -4 3380.26  269.67
   7   9  -4 3344.81  260.79
  -7   9   3 2996.46  246.21
   7   9  -3 3251.80  261.44
  -7   9   3 3091.93  239.10
   7   9  -3 2783.33  244.28
  -7   9   210203.64  560.64
   7   9  -2 9957.03  573.46
  -7   9   210140.74  551.02
  -7   9   1  162.98  166.86
   7   9  -1  213.82  142.62
  -7   9   1  316.78   72.43
   7   9  -1  312.93   95.87
  -7   9   0 3579.69  300.41
   7   9   0 3506.22  335.54
  -7   9   0 3316.62  257.48
   7   9   0 3744.45  311.10
   7   9   1 1955.75  168.50
  -7   9  -1 1826.37  221.39
   7   9   1 1956.63  156.56
  -7   9  -2 1337.35   73.50
   7   9   2 1093.53  167.65
  -7   9  -2 1339.33  136.22
   7   9   2 1156.53   51.56
  -7   9  -3  951.97   61.83
   7   9   3  934.90  344.88
  -7   9  -3  920.58  260.11
   7   9   3  908.86   47.70
  -7   9  -4  760.21  129.86
   7   9   4  684.31   79.18
  -7   9  -4  784.30   77.96
   7   9   4  695.98   96.26
  -7   9  -5 2210.75  169.68
   7   9   5 1942.50  183.30
  -7   9  -5 2203.14  186.18
  -7   9  -6  228.88   93.67
   7   9   6  237.12  169.08
  -7   9  -6  226.68  209.43
  -7   9  -7  909.52   46.19
   7   9   7  898.10  173.38
  -7   9  -7  770.71  274.53
  -7   9  -8 2956.33  180.78
   7   9   8 2823.67  240.30
  -7   9  -8 2572.93  296.74
  -7   9  -9   83.38   38.04
   7   9   9  115.92  140.65
  -7   9  -9  105.09   51.83
  -7   9 -10 3277.92  256.10
   7   9  10 3491.44  294.91
  -7   9 -10 3684.22  305.45
  -7   9 -11  838.55   38.17
   7   9  11  900.16   96.25
  -7   9 -11  855.13  365.88
   7   9  12 1504.73  146.17
  -7   9 -12 1696.80  154.31
   7   9  13   41.38   60.67
  -7   9 -13   22.02   46.45
   7   9  14  128.68   69.27
  -7   9 -14   51.80   48.20
   7   9  15 1489.61  265.79
  -7   9 -15 1627.87  194.87
   7   9  16  825.40   85.64
  -7   9 -16  619.37  135.77
  -7  11  14  672.76   86.26
   7  11 -14  680.85  273.87
  -7  11  13 3426.70  253.27
   7  11 -13 3369.38  249.23
  -7  11  12  289.33  133.00
   7  11 -12  275.38   99.93
  -7  11  11 5411.39  314.84
   7  11 -11 5017.40  284.58
   7  11 -11 5228.14  305.58
  -7  11  10  829.45  202.91
   7  11 -10 1011.98   80.71
   7  11 -10  772.47  326.79
  -7  11   9  163.65   91.21
   7  11  -9  327.30   76.15
   7  11  -9  214.82  131.25
  -7  11   8 1030.85  169.09
   7  11  -8 1148.60  108.58
   7  11  -8 1230.71  214.06
   7 -11  -8 1196.63   99.81
  -7  11   7   29.11   40.87
   7  11  -7   65.14   73.83
   7 -11  -7   -3.05   26.26
  -7  11   6 2569.82  166.73
   7  11  -6 2595.24  172.87
   7  11  -6 2940.44  184.02
   7 -11  -6 2616.29  161.40
  -7  11   5 2047.48  171.84
   7  11  -5 2171.78   95.68
  -7  11   5 2324.34  184.76
   7  11  -5 1878.31  284.25
  -7  11   4  253.17  147.21
   7  11  -4  489.61  148.68
  -7  11   4  331.04  111.36
   7  11  -4  218.27   85.76
  -7  11   3 1608.68  151.44
   7  11  -3 1659.91  150.07
  -7  11   3 1551.23  234.79
   7  11  -3 1330.48  185.73
  -7  11   2 6690.27  491.36
   7  11  -2 6415.27  475.82
  -7  11   2 6173.71  452.66
   7  11  -2 6485.79  484.27
  -7  11   1   66.75   57.12
   7  11  -1   76.13   48.79
  -7  11   1   50.95   36.56
   7  11  -1   76.68   71.85
  -7  11   0  436.00  218.94
   7  11   0  692.05  163.20
   7  11   0  810.83   61.23
  -7  11  -1 4388.08  329.28
   7  11   1 3320.25  265.75
  -7  11  -1 3932.91  299.57
  -7  11  -2   64.94   46.36
   7  11   2  -55.19   82.54
  -7  11  -2   89.23   79.35
  -7  11  -311356.86  185.20
   7  11   311232.44  604.54
  -7  11  -311180.43  594.19
  -7  11  -4 2312.03   97.52
   7  11   4 2817.58  190.49
  -7  11  -4 2863.66  189.16
  -7  11  -5  161.36   64.10
   7  11   5  166.90   61.01
  -7  11  -5   81.40   80.81
  -7  11  -6  437.34   45.73
   7  11   6  339.20  173.43
  -7  11  -6  377.83  137.75
  -7  11  -7  384.70  118.58
   7  11   7  389.32  132.07
  -7  11  -7  380.24  152.83
  -7  11  -8  164.87   50.49
   7  11   8  254.71   96.87
  -7  11  -8  289.44  115.13
  -7  11  -9   25.60   27.24
   7  11   9   16.82   65.23
  -7  11  -9   34.23   80.65
   7  11  10  635.83  297.83
  -7  11 -10  612.90  214.48
   8   0 -27   -2.72   42.90
   8   0 -26 3969.51  297.29
   8   0 -25   30.98   47.27
   8   0 -24 1577.38  187.37
   8   0 -23   11.23   14.62
   8   0 -22  201.66   66.25
  -8   0  21    6.04    7.86
   8   0 -21   55.40   50.21
  -8   0  20   23.16   10.89
   8   0 -20   11.35   31.36
  -8   0  19   18.03    9.52
   8   0 -19   15.92   26.09
   8   0 -19   11.04   20.66
  -8   0  18 1615.35   29.86
   8   0 -18 1610.72   59.67
   8   0 -18 1479.03   65.05
  -8   0  17    8.12   12.81
   8   0 -17    8.79   17.96
   8   0 -17   43.25   42.92
  -8   0  1617142.51  418.69
   8   0 -1617369.85  432.94
   8   0 -1616605.29  437.11
  -8   0  15   -1.13    9.21
   8   0 -15   23.53   16.25
   8   0 -15    9.13   14.62
  -8   0  14 2252.59  136.17
   8   0 -14 2042.99  129.79
   8   0 -14 2252.84  142.04
  -8   0  13    0.93    7.40
   8   0 -13    3.59   19.10
   8   0 -13   26.68   13.37
  -8   0  1217229.85  420.13
   8   0 -1217874.70  444.00
   8   0 -1216518.30  415.51
  -8   0  11   15.87    6.79
   8   0 -11   18.02   17.50
   8   0 -11   11.38   21.91
   8   0 -1043515.45 1083.47
   8   0 -1037123.23  932.28
  -8   0   9   -1.69    7.80
   8   0  -9   13.78   12.85
   8   0  -9   25.12   19.01
  -8   0   812796.82  322.21
   8   0  -813275.29  338.87
   8   0  -812325.20  321.42
  -8   0   7   11.08   12.02
   8   0  -7   19.65   21.95
  -8   0   7   15.47   13.60
  -8   0   610256.08  259.80
   8   0  -611868.97  302.48
   8   0  -6 9724.06  254.73
  -8   0   611396.40  299.19
  -8   0   5   27.23   13.47
   8   0  -5    1.80    8.11
   8   0  -5   -4.77   23.81
  -8   0   5    7.56   16.14
  -8   0   4  217.65   34.90
   8   0  -4  210.57   55.84
   8   0  -4  269.87   76.58
  -8   0   4  170.40   28.88
  -8   0   3   -3.39   11.83
   8   0  -3    3.59   10.98
   8   0  -3   35.62   19.49
  -8   0   3   16.99   15.35
  -8   0   2 3817.03   93.80
   8   0  -2 3879.40  100.83
  -8   0   1    9.20    9.88
   8   0  -1   14.88   15.02
   8   0  -1    0.38   14.09
  -8   0   1    5.82   17.38
  -8   0   023734.76  529.94
   8   0   026347.93  587.35
   8   0   024125.61  543.39
  -8   0   023434.44  529.76
  -8   0  -1    2.16   12.22
   8   0   1   -2.13   12.44
   8   0   1    1.51   19.32
  -8   0  -1   13.43   17.23
   8   0   250968.07 1267.88
  -8   0  -3   49.81   26.66
   8   0   3    3.58    9.85
   8   0   3    1.39   22.29
   8   0   3   22.99    9.62
   8   0   444122.00 1099.58
   8   0   443872.48 1092.46
   8   0   5   -0.56   66.65
   8   0   5    3.87   17.29
   8   0   5   18.61   15.28
  -8   0  -618622.29  455.59
   8   0   620021.90  492.87
   8   0   620325.86  503.49
  -8   0  -7  -12.90   17.56
   8   0   7    6.06   10.14
   8   0   7    9.91   20.72
   8   0   840442.06  183.35
  -8   0  -9    5.29   21.80
   8   0   9    7.80   15.55
   8   0  10 8673.15  272.53
   8   0  11   26.47   28.35
  -8   0 -11   18.97   12.90
   8   0  12 2025.46  156.00
  -8   0 -12 2270.32  146.18
   8   0  13   31.13   25.98
  -8   0 -13   11.96    8.82
   8   0  14   39.31   22.10
  -8   0 -14   81.11   22.55
   8   0  15   -0.79   18.38
  -8   0 -15   12.89   28.86
   8   0  16   40.79   22.92
  -8   0 -16    2.55   20.84
   8   0  17   24.30   27.80
  -8   0 -17   10.52   15.36
   8   0  18 3954.08  149.06
  -8   0 -18 4149.24  168.86
  -8   0 -19  -24.37   23.84
  -8   0 -2011697.46  904.67
   8   2 -28  131.09   76.64
   8   2 -27 2545.08  164.33
   8   2 -26   36.78   24.23
   8   2 -25 6331.33  466.57
   8   2 -24  180.51   82.32
   8  -2 -24  142.68   81.14
   8   2 -23 3670.94  210.50
   8  -2 -23 3660.21  198.81
  -8   2  22 3399.31  242.87
   8   2 -22 3005.54  270.89
   8  -2 -22 3300.07  246.89
  -8   2  21   90.04   29.83
   8   2 -21  129.94   66.10
   8  -2 -21  109.93   46.97
  -8   2  20  897.22   35.44
   8   2 -20  886.22  182.52
   8  -2 -20  913.65   48.01
  -8   2  19 1047.55   80.05
   8   2 -19 1111.39  116.63
   8  -2 -19 1080.82  123.17
   8   2 -18 1961.56   98.16
  -8   2  18 2084.73  117.62
   8   2 -18 1841.84  116.24
  -8  -2  18 2019.37   96.11
   8  -2 -18 1824.31   97.86
   8   2 -17 3469.44  252.68
   8   2 -17 3243.94  228.16
  -8  -2  17 3165.27  217.04
   8  -2 -17 3103.84  220.00
   8   2 -16 1857.09  128.52
  -8   2  16 1613.33  157.73
   8   2 -16 1442.60  113.40
  -8  -2  16 1891.72  134.92
   8  -2 -16 1705.73  128.32
   8   2 -1516078.68  395.88
  -8   2  1514061.80  374.37
   8   2 -1516321.83  423.08
  -8  -2  1515009.96  366.48
   8  -2 -1515404.05  388.98
   8   2 -14  188.89   60.29
  -8   2  14  166.73   88.37
   8   2 -14  184.50   61.38
  -8  -2  14  142.90   14.74
   8  -2 -14  175.20   61.93
  -8   2  13 2161.39  133.48
   8   2 -13 2075.36  126.07
   8   2 -13 1678.61  130.54
  -8  -2  13 1995.67  118.98
   8  -2 -13 1828.43  117.01
  -8   2  12 4245.42  157.18
   8   2 -12 5060.00  178.89
   8   2 -12 4592.28  178.38
  -8  -2  12 4746.71  168.60
   8  -2 -12 4233.16  166.39
   8   2 -11  580.79  164.19
   8   2 -11  535.72   28.17
  -8  -2  11  530.73   23.73
   8  -2 -11  599.16   36.44
  -8   2  1010651.42  270.12
   8   2 -1011671.76  285.28
   8   2 -1010733.37  284.43
  -8  -2  1010833.10  267.99
   8  -2 -1011075.62  279.00
  -8   2   9 1486.65   81.97
   8   2  -9 1705.71   83.78
   8   2  -9 1561.22   93.91
  -8  -2   9 1733.42   94.59
   8  -2  -9 1715.31   95.77
  -8   2   8 1675.64   88.32
   8   2  -8 1798.72   88.47
  -8   2   8 1782.49  113.00
   8   2  -8 1247.74   80.19
  -8  -2   8 1557.00   84.10
  -8   2   7 1245.61  117.37
   8   2  -7  962.15   53.84
   8   2  -7  865.74   58.82
  -8   2   7 1023.08   58.11
  -8  -2   7 1020.64   56.11
   8  -2  -7  984.19   72.24
  -8   2   618171.16  463.19
  -8   2   617205.64  448.92
   8   2  -616844.34  435.53
   8  -2  -614753.31  386.94
  -8  -2   615875.94  401.76
  -8   2   5 7712.81  205.93
  -8   2   5 7426.03  197.21
   8   2  -5 6645.13  328.01
   8  -2  -5 7558.23  216.96
  -8  -2   5 7297.18  191.79
  -8   2   4  750.37   67.68
   8   2  -4  844.97   65.63
  -8   2   4  677.48   26.69
   8   2  -4  848.43   57.22
  -8  -2   4  870.97   68.79
   8  -2  -4  772.44   51.05
  -8  -2   4  792.68   74.39
  -8   2   3  599.71   36.43
   8   2  -3  568.70   22.27
   8   2  -3  637.27   36.18
  -8  -2   3  668.57   30.86
   8  -2  -3  667.11   27.95
   8  -2  -3  642.45   26.21
  -8  -2   3  660.84   30.45
   8  -2  -3  499.94   46.79
  -8   2   223663.25  593.46
   8   2  -225196.14  628.02
   8   2  -225693.72  647.80
  -8  -2   226770.70  671.52
   8  -2  -225070.45  635.00
   8  -2  -226890.06  676.93
  -8  -2   226906.57  674.67
   8  -2  -225066.82  631.88
  -8   2   1 7724.91  202.33
   8   2  -1 7030.21  336.51
  -8  -2   1 7387.39  199.43
   8  -2  -1 8059.21  213.72
  -8   2   0 3222.45  157.14
   8   2   0 3083.77  151.89
  -8  -2   0 3067.19  154.27
   8  -2   0 3180.90  162.20
   8  -2   0 3322.56  166.24
  -8   2  -120814.49  521.62
   8   2   118240.63  461.79
  -8  -2  -119306.61  490.89
   8  -2   121421.24  551.23
  -8  -2  -119811.06  498.76
   8  -2   117998.23  460.45
  -8   2  -2 3500.66  169.00
   8   2   2 3298.63  169.85
   8   2   2 3349.78  168.54
   8  -2   2 3417.68  168.95
  -8  -2  -2 3020.19  153.44
  -8   2  -3  110.67   22.44
  -8   2  -3   73.67   43.19
   8   2   3  123.50   49.53
   8   2   3  101.35   26.68
   8  -2   3   45.55   31.52
  -8  -2  -3   92.66   21.95
   8   2   418736.57  472.21
   8  -2   419804.75  501.37
  -8  -2  -420775.95  527.24
  -8   2  -510994.46  270.73
   8   2   511717.48  290.13
   8   2   511906.67  321.18
   8   2   511331.20  284.46
  -8   2  -511610.25  298.63
   8  -2   511589.28  289.94
  -8   2  -6   17.95    9.63
   8   2   6    0.86   14.40
   8   2   6   47.54   29.22
   8   2   6    5.07   25.25
  -8   2  -6   37.55   25.38
   8  -2   6    3.27    9.92
  -8   2  -710116.66  353.55
   8   2   7 9925.69  348.40
   8   2   7 9556.74  348.79
  -8   2  -710890.08  390.24
   8   2   710839.57  377.09
   8  -2   710628.18  370.59
  -8   2  -8   37.02   29.56
   8   2   8   18.81   14.65
   8   2   8   30.97    9.66
  -8   2  -8    5.69   19.02
   8   2   8   17.49   15.85
   8  -2   8   -0.95   10.60
  -8   2  -9 6347.56  200.37
   8   2   9 6641.58  220.63
  -8   2  -9 7395.04  241.71
   8   2   9 6926.47  217.60
   8   2   9 6546.98  206.61
  -8   2 -10   71.56   19.24
   8   2  10  108.55   47.68
  -8   2 -10   85.53   29.43
   8   2  10   84.09   27.08
   8   2  10   90.21   41.02
  -8   2 -1111677.63  291.10
   8   2  1110915.40  292.95
  -8   2 -1112884.71  337.31
   8   2  1111557.08  292.21
   8   2  1111629.41  295.65
  -8   2 -12 1336.92   43.42
   8   2  12 1667.49  138.27
  -8   2 -12 1654.98  129.36
   8   2  12 1385.79   45.60
   8   2  12 1682.97  122.49
  -8   2 -13    3.81   13.03
   8   2  13   30.82   46.55
  -8   2 -13   31.69   30.86
   8   2  13    8.20   15.08
   8   2  13   11.63   12.06
   8   2  14  240.20   42.33
  -8   2 -14  218.96   77.85
   8  -2  14  238.88   54.49
   8   2  15 2023.30   67.43
   8   2  15 2027.83   39.85
  -8   2 -15 1992.65   67.86
   8  -2  15 2175.03  147.05
   8   2  16  624.37   56.31
   8   2  16  723.85   27.59
  -8   2 -16  723.37  119.79
   8  -2  16  606.56   56.91
   8   2  17 1881.76  160.69
  -8   2 -17 1779.67  143.73
   8   2  18  506.83  111.56
  -8   2 -18  502.58   41.98
   8   2  19 1402.36  225.37
  -8   2 -19 1535.36  129.75
  -8   2 -20 2700.81  219.72
  -8   2 -21 1923.51  149.97
  -8   2 -22  573.21   47.97
   8   4 -27 1126.06  116.94
   8   4 -26 2515.95  170.25
   8   4 -25   70.02   69.72
   8   4 -24 9472.78  686.83
  -8   4  23 4922.60  414.25
   8   4 -23 5526.07  474.78
  -8   4  22    8.73   28.29
   8   4 -22   26.57   46.83
  -8   4  21  252.94   96.74
   8   4 -21  296.17   81.42
   8  -4 -21  185.90   66.34
  -8   4  20  209.69   84.14
   8   4 -20  189.65   44.95
   8  -4 -20  122.08   58.60
  -8   4  19  741.85   90.18
   8   4 -19  760.87  170.46
   8  -4 -19  766.87   38.76
  -8   4  18   87.39   42.39
   8   4 -18   82.26   20.31
   8   4 -18   72.55   62.99
   8  -4 -18   93.79   32.53
  -8   4  17  224.04   60.19
   8   4 -17  241.10   48.28
   8   4 -17  251.54  100.13
   8  -4 -17  401.43   62.85
   8   4 -16 6203.09  227.62
  -8   4  16 5763.03  325.24
   8   4 -16 6563.94  249.15
   8   4 -16 6055.54  402.01
   8  -4 -16 6503.49  266.03
   8   4 -15 5347.43  223.27
  -8   4  15 4412.40  315.52
   8   4 -15 5618.04  238.77
   8   4 -15 5703.42  265.05
   8  -4 -15 5144.25  221.63
   8   4 -1411149.17  274.33
  -8   4  1411368.35  304.05
   8   4 -1411263.13  286.24
   8   4 -1411097.10  308.91
   8  -4 -14 9921.20  258.73
   8   4 -13   11.50   13.50
  -8   4  13   39.41   95.43
   8   4 -13   20.40   28.79
   8   4 -13   20.26   36.92
   8  -4 -13   17.86   14.55
   8   4 -12  561.17   45.22
  -8   4  12  494.28   46.82
   8   4 -12  753.51   58.34
   8   4 -12  586.89   58.51
   8  -4 -12  526.48   45.78
   8   4 -11 1363.60   88.32
  -8   4  11 1073.37   80.59
   8   4 -11 1261.15   87.59
   8   4 -11 1269.22   99.91
   8  -4 -11 1105.65   76.98
   8   4 -10  884.64   55.42
  -8   4  10 1035.04  172.56
   8   4 -10 1099.73   74.57
   8   4 -10  942.34   85.37
   8  -4 -10  799.93   55.89
   8   4  -9   33.22   12.55
  -8   4   9   40.95   46.39
   8   4  -9   62.14   34.50
   8   4  -9   43.94   48.34
   8  -4  -9   31.00   25.59
   8   4  -8 2761.04  181.55
   8   4  -8 2869.36  184.41
  -8   4   7 4020.36  201.05
   8   4  -7 3601.06  178.06
   8   4  -7 3868.58  199.38
   8  -4  -7 3686.55  179.96
  -8   4   6 2116.03  117.99
   8   4  -6 1418.95   79.05
   8   4  -6 2069.09  116.56
   8  -4  -6 1918.58   99.37
  -8   4   5 2082.55  113.44
   8   4  -5 2523.59  134.28
  -8   4   4 1041.01   71.25
   8   4  -4 1005.71  110.49
   8   4  -4 1018.47   64.92
   8  -4  -4 1043.56   65.46
  -8   4   3   18.82   23.79
   8   4  -3   13.81   15.60
   8   4  -3    1.47   12.94
   8  -4  -3   22.13   27.44
  -8   4   2 4369.07  215.45
   8   4  -2 3802.84  190.92
   8   4  -2 3897.62  191.67
   8  -4  -2 3438.86  174.57
  -8   4   1  111.24   30.91
   8   4  -1  124.61  110.53
  -8   4   1   81.62   36.23
   8   4  -1   48.69   22.57
  -8   4   0   35.36   24.55
   8   4   0   44.77   57.19
  -8   4   0   79.71   36.25
   8   4   0   94.64   24.95
  -8  -4   0   83.60   24.32
  -8   4  -1   66.29   29.66
   8   4   1   15.15   37.17
  -8   4  -1   22.39   47.63
   8   4   1   82.87   19.78
  -8  -4  -1   54.26   12.93
  -8   4  -2   79.62   23.68
   8   4   2   51.90   32.80
  -8   4  -2   70.21   36.15
   8   4   2   33.00   15.17
  -8  -4  -2   53.33   16.78
  -8   4  -3  498.03   33.82
   8   4   3  525.31   43.04
  -8   4  -3  411.54   46.69
   8   4   3  558.54   41.06
  -8  -4  -3  470.47   34.57
  -8   4  -4 1210.68   77.49
   8   4   4 1283.22  122.91
  -8   4  -4 1343.79   99.32
   8   4   4 1131.87   85.29
  -8  -4  -4 1140.25   97.67
  -8   4  -5 1750.68  108.69
   8   4   5 1603.62  108.45
  -8   4  -5 1712.68  120.68
   8   4   5 1689.83  103.46
  -8  -4  -5 1716.88  106.15
  -8   4  -6 8309.24  256.68
   8   4   6 8071.70  268.21
  -8   4  -6 6785.31  232.38
   8   4   6 7747.56  239.66
  -8  -4  -6 7985.49  244.83
  -8   4  -7  547.47   41.73
   8   4   7  555.14   77.80
  -8   4  -7  593.82  166.29
   8   4   7  381.55   62.02
  -8  -4  -7  588.44   47.30
  -8   4  -828356.69  684.30
   8   4   827502.47  718.14
   8   4   826979.99  651.09
  -8   4  -828049.25  735.04
   8   4   830753.19  741.35
  -8   4  -9 1155.70   80.38
   8   4   9 1111.79   98.16
  -8   4  -9 1075.82  176.61
   8   4   9 1016.73   76.44
   8   4   9  966.75   67.87
  -8   4 -10   18.76   16.05
   8   4  10   25.07   36.70
  -8   4 -10   23.18   28.79
   8   4  10    5.65    7.17
   8   4  10    3.45    7.26
  -8   4 -11 1714.92   84.74
   8   4  11 1899.52  116.27
  -8   4 -11 2076.43  118.59
   8   4  11 1906.91   87.06
  -8   4 -12  745.17   40.83
   8   4  12  940.72   98.19
  -8   4 -12  859.74  156.35
   8   4  12  782.50   37.83
  -8   4 -13    3.88    6.72
   8   4  13  -25.38   36.43
  -8   4 -13  -38.11   42.46
  -8   4 -14 6992.27  267.51
   8   4  14 5535.27  236.86
  -8   4 -14 6699.95  280.95
  -8   4 -15   10.63   15.48
  -8   4 -15   12.89   30.69
  -8   4 -16 5886.73  310.96
   8   4  17  437.51  181.59
  -8   4 -17  538.87  185.04
   8   4  18 4205.31  261.82
  -8   4 -18 3687.62  231.79
   8   4  19  101.79   81.44
  -8   4 -19  134.98   86.14
   8   4  20   70.11   35.88
  -8   4 -20   83.22   46.07
   8   6 -25 1065.30  146.77
  -8   6  24   23.35   29.75
   8   6 -24   53.09   58.27
  -8   6  23   73.50   36.67
   8   6 -23   80.67   72.61
  -8   6  22 1085.82  181.87
   8   6 -22 1190.13  253.10
  -8   6  21   56.96   40.26
   8   6 -21   33.80   48.15
  -8   6  20  438.37  114.10
   8   6 -20  618.08  190.55
  -8   6  19  159.63   73.17
   8   6 -19  218.54   74.95
  -8   6  18 2169.64  171.60
   8   6 -18 2913.69  233.04
   8  -6 -18 2326.71  169.26
  -8   6  17 4837.26  388.23
   8   6 -17 3226.34  255.38
   8  -6 -17 4319.20  236.44
  -8   6  16 8347.74  460.75
   8   6 -16 7293.42  396.83
   8   6 -16 8249.09  465.62
   8  -6 -16 6934.28  379.16
  -8   6  15 3159.03  228.57
   8   6 -15 2973.73  205.69
   8   6 -15 2938.81  218.02
   8  -6 -15 3056.11  205.56
  -8   6  14 4579.04  308.70
   8   6 -14 4644.18  306.00
   8   6 -14 5148.43  353.97
   8  -6 -14 4778.17  317.98
  -8   6  13    0.03   31.49
   8   6 -13  166.06   56.47
   8   6 -13   64.27   36.95
   8  -6 -13  108.96   38.06
  -8   6  12 5649.34  323.86
   8   6 -12 6004.61  334.51
   8   6 -12 6029.40  345.26
   8  -6 -12 5571.79  306.81
  -8   6  11 8689.45  382.26
   8   6 -11 8601.53  368.72
   8   6 -11 7499.68  335.48
   8  -6 -11 8737.22  373.66
  -8   6  10 5885.00  269.72
   8   6 -10 6826.63  305.14
   8   6 -10 6020.67  279.49
   8  -6 -10 6820.55  290.07
  -8   6   9 1404.38   78.90
   8   6  -9 1182.04   55.21
   8   6  -9 1233.74   88.44
   8  -6  -9 1341.21   50.31
  -8   6   8  108.99   62.18
   8   6  -8   76.64   38.44
   8   6  -8   52.28   31.64
   8  -6  -8  123.48   45.59
  -8   6   7  799.06   76.79
   8   6  -7  827.89   95.77
   8   6  -7  715.38   66.50
   8  -6  -7  694.65   56.37
  -8   6   6   30.54   43.85
   8   6  -6   74.84   45.09
   8   6  -6  143.43   36.38
   8  -6  -6   69.97   24.92
  -8   6   510032.81  276.86
   8   6  -512904.47  342.11
   8   6  -511377.58  308.04
   8  -6  -511521.81  299.42
  -8   6   4  136.76   93.21
   8   6  -4   70.56   41.89
   8   6  -4  155.99   77.44
  -8   6   319893.11  641.47
   8   6  -318696.24  599.53
  -8   6   320404.61  626.18
   8   6  -321416.22  658.83
  -8   6   2 2486.68  136.20
   8   6  -2 2167.81  121.76
  -8   6   2 2517.50  150.30
   8   6  -2 2290.63  228.42
  -8   6   1 3390.46  176.44
   8   6  -1 4161.68  213.40
  -8   6   1 3415.95  176.58
   8   6  -1 3205.36  164.97
  -8   6   0   54.90   23.27
   8   6   0   46.66   40.98
  -8   6   0   46.13   23.40
   8   6   0   44.66   21.25
  -8   6  -1  532.05   58.80
   8   6   1  608.98   76.25
  -8   6  -1  616.53  159.01
   8   6   1  514.66  175.36
  -8   6  -2 4450.80  274.79
   8   6   2 4046.03  256.85
  -8   6  -2 4195.38  254.07
   8   6   2 4120.96  242.69
  -8   6  -3 5546.98  323.40
   8   6   3 5876.11  352.41
  -8   6  -3 4334.92  320.97
   8   6   3 5014.45  296.79
  -8   6  -4 6467.96   88.59
   8   6   4 6093.50  363.36
   8   6   4 6558.29  179.33
  -8  -6  -4 7081.21  185.52
  -8   6  -5 1178.06   50.46
   8   6   5 1052.15  168.50
  -8   6  -5 1009.23   62.91
   8   6   5 1080.83   50.11
  -8  -6  -5 1120.64   36.09
  -8   6  -624453.23 1007.89
   8   6   623647.09  990.43
  -8   6  -625235.19 1051.78
   8   6   626065.89 1069.25
  -8  -6  -625564.03 1045.30
  -8   6  -7   12.22   14.93
   8   6   7  -11.49   42.07
  -8   6  -7   26.04   36.80
   8   6   7   10.30   11.93
  -8  -6  -7    3.64    6.78
  -8   6  -8  667.58   44.92
   8   6   8  709.69   85.61
  -8   6  -8  936.96  247.33
   8   6   8  971.57   50.36
  -8  -6  -8  807.31   42.79
  -8   6  -9 1727.71  105.13
   8   6   9 1890.18  210.96
  -8   6  -9 1789.09  132.06
  -8   6 -10 1438.89   97.49
   8   6  10 1548.22  113.29
  -8   6 -10 1361.32  177.36
  -8   6 -11 3238.85  215.27
   8   6  11 3364.94  281.63
  -8   6 -11 3085.06  249.23
  -8   6 -12 1283.15   31.06
   8   6  12 1179.20   69.12
  -8   6 -12 1187.18  104.87
  -8   6 -13    9.05    6.65
   8   6  13   33.46   58.91
  -8   6 -13   26.19   48.27
   8   6  14  781.66  214.51
  -8   6 -14  649.31   66.54
   8   6  15  107.00   76.74
  -8   6 -15   70.72   41.91
   8   6  16 2301.31  299.72
  -8   6 -16 1918.91  189.80
   8   6  17 1365.72  135.58
  -8   6 -17 1806.75  204.50
   8   6  18 1122.16  198.64
  -8   6 -18  999.33  118.77
   8   6  19 6130.79  473.56
  -8   6 -19 6402.13  412.00
   8   6  20   25.96   52.14
  -8   6 -20   75.45   63.24
  -8   8  22   37.76   34.64
   8   8 -22  131.56   62.93
  -8   8  21  474.83   66.23
   8   8 -21  154.02  115.68
  -8   8  20   72.48   52.68
   8   8 -20   98.20   63.15
  -8   8  19  865.38   95.22
   8   8 -19  895.87  114.72
  -8   8  18 5891.94  438.17
   8   8 -18 6212.88  480.52
  -8   8  17 2132.09  189.70
   8   8 -17 2201.04  256.82
  -8   8  16 2279.12  190.13
   8   8 -16 2965.42  215.69
  -8   8  15 1022.21   83.81
   8   8 -15  799.27   87.51
   8   8 -15 1062.37   83.48
  -8   8  14 1012.92  140.88
   8   8 -14  921.15  109.05
   8   8 -14 1018.06  184.85
   8  -8 -14 1058.26   40.16
  -8   8  13 1992.69  172.57
   8   8 -13 1969.42  151.41
   8   8 -13 2090.29  175.89
   8  -8 -13 2159.39  164.87
  -8   8  12   41.72   48.41
   8   8 -12   55.08   36.93
   8   8 -12   26.10   24.68
   8  -8 -12   12.97   16.10
  -8   8  11 1173.52  145.97
   8   8 -11 1174.38   59.18
   8   8 -11 1298.49  270.17
   8  -8 -11 1124.51   80.54
  -8   8  10   40.25   65.26
   8   8 -10   22.49   30.98
   8   8 -10   36.47   40.58
   8  -8 -10   37.01   41.93
  -8   8   9 4614.93  208.48
   8   8  -9 6036.27  253.14
   8   8  -9 5715.51  252.94
   8  -8  -9 4949.73  220.03
  -8   8   8   -6.49   47.06
   8   8  -8   33.61   28.37
   8   8  -8   -6.52   49.84
   8  -8  -8   28.87   40.24
  -8   8   7  150.71   78.54
   8   8  -7  135.26   77.27
   8   8  -7  138.77  106.90
   8  -8  -7   83.24   47.30
  -8   8   613448.61  648.84
   8   8  -613226.46  637.47
   8   8  -614294.29  688.51
   8  -8  -613895.40  658.61
  -8   8   5 3414.18  251.01
   8   8  -5 3031.61  247.81
   8   8  -5 3537.00  246.93
  -8   8   4  248.87   93.55
   8   8  -4  245.65   86.91
  -8   8   4  279.81   96.15
   8   8  -4  261.43  120.60
  -8   8   3 5078.29  344.83
   8   8  -3 5836.33  132.89
  -8   8   3 4839.67  324.25
   8   8  -3 5832.55  125.04
  -8   8   2 7156.75  361.61
   8   8  -2 6680.76  385.97
  -8   8   2 6725.77  332.12
   8   8  -2 7267.20  361.10
  -8   8   1 8211.53  406.79
   8   8  -1 7883.92  405.15
  -8   8   1 9165.48  445.40
  -8   8   010129.68  492.13
   8   8   0 9469.41  502.09
  -8   8   010266.86  543.69
   8   8   010141.33  489.28
  -8   8  -1 1135.99  135.92
   8   8   1  883.65   84.39
  -8   8  -1 1199.85   91.61
   8   8   1 1086.47   82.77
  -8   8  -2 1003.52   81.69
   8   8   2  931.91   94.94
  -8   8  -2 1155.95  262.20
   8   8   2 1174.58  112.50
  -8   8  -3 5964.39  270.46
   8   8   3 5975.60  265.27
  -8   8  -3 5434.70  237.36
   8   8   3 5955.88  242.17
  -8   8  -4 2171.31  162.94
   8   8   4 2353.21  187.16
  -8   8  -4 3081.64  224.01
   8   8   4 2667.75  186.56
  -8   8  -5 1179.74   79.03
   8   8   5 1492.34  217.86
  -8   8  -5 1344.54  326.61
   8   8   5 1145.94   53.29
  -8   8  -6   21.42   29.20
   8   8   6   33.24   36.70
  -8   8  -6  168.98  139.07
  -8   8  -7 1318.32   84.93
   8   8   7 1536.59  141.36
  -8   8  -7 1358.65  110.12
  -8   8  -8 1401.66  108.47
   8   8   8 1586.85  245.04
  -8   8  -8 1593.04  145.30
  -8   8  -9 1853.24  156.04
   8   8   9 1581.40  145.78
  -8   8  -9 1681.48  184.96
  -8   8 -10 4311.99  237.59
   8   8  10 5040.16  294.08
  -8   8 -10 4846.99  310.56
  -8   8 -11 1183.27  119.07
   8   8  11 1484.44  233.96
  -8   8 -11 1148.68  266.55
  -8   8 -12   32.04   14.41
   8   8  12   53.58   43.42
  -8   8 -12   31.38   52.11
   8   8  13   58.94   66.96
  -8   8 -13   61.68   43.88
   8   8  14  609.86  244.69
  -8   8 -14  582.45  250.34
   8   8  15  989.61  191.76
  -8   8 -15  982.23  109.54
   8   8  16  247.58  117.94
  -8   8 -16  337.49  183.16
   8   8  17  189.05  134.61
  -8   8 -17   40.07   59.96
  -8  10  17   42.65   37.58
   8  10 -17   37.29   41.19
  -8  10  16 1654.91  158.28
   8  10 -16 1165.26  206.93
  -8  10  15 1883.16  176.07
   8  10 -15 2135.55  158.38
  -8  10  14   49.27   75.93
   8  10 -14  164.56   91.55
  -8  10  13 1207.69  164.23
   8  10 -13 1087.46  141.29
   8  10 -13  888.63  344.41
  -8  10  12  635.26   71.42
   8  10 -12  548.88   63.50
   8  10 -12  678.90   72.80
  -8  10  11  380.86  176.27
   8  10 -11  315.46  149.15
   8  10 -11  506.86  251.27
   8 -10 -11  516.95   39.42
  -8  10  10  -13.91   54.35
   8  10 -10   35.82   50.90
   8  10 -10   67.68   54.87
   8 -10 -10   27.15   28.48
  -8  10   9 2387.99  207.36
   8  10  -9 2941.81  300.26
   8  10  -9 3402.09  378.54
   8 -10  -9 3819.19  300.58
  -8  10   8  843.83  103.11
   8  10  -8 1347.38  143.22
   8  10  -8  919.07  283.60
   8 -10  -8 1268.66  125.87
  -8  10   7 5681.65  350.25
   8  10  -7 5782.16  353.25
   8  10  -7 6093.92  375.30
   8 -10  -7 5481.29  346.26
  -8  10   6  854.42   70.39
   8  10  -6  727.86   57.82
   8  10  -6  850.87   77.84
   8 -10  -6  850.75  134.17
  -8  10   5   55.48   45.69
   8  10  -5   49.32   55.66
  -8  10   5   95.38   54.10
  -8  10   4  715.08  213.96
   8  10  -4  562.69  165.61
  -8  10   4  704.88   67.46
   8  10  -4  790.37  150.36
  -8  10   3  158.97   54.43
   8  10  -3  115.78   69.06
   8  10  -3  131.69   70.35
  -8  10   2 1421.52  128.90
   8  10  -2 1087.64   73.15
  -8  10   2  924.08  121.50
   8  10  -2 1146.77  105.46
  -8  10   1 9760.48  570.53
   8  10  -1 9668.80  573.30
  -8  10   1 8919.75  522.23
   8  10  -1 8668.63  507.46
  -8  10   0  219.33   65.98
   8  10   0   62.99   43.75
  -8  10   0  265.19   83.61
   8  10   0  125.81   58.02
  -8  10  -1 3041.07  195.90
   8  10   1 2921.54  232.86
  -8  10  -1 2625.94  212.05
   8  10   1 2848.94  224.85
  -8  10  -2   39.05   37.78
   8  10   2   29.32   47.33
  -8  10  -2   55.44   30.58
   8  10   2   37.27   19.49
  -8  10  -3  274.64   85.92
   8  10   3  209.47   99.59
  -8  10  -3  265.67  121.86
  -8  10  -4  205.95  127.39
   8  10   4  326.43  133.04
  -8  10  -4  397.81  131.16
  -8  10  -5  498.87   51.75
   8  10   5  456.86  207.65
  -8  10  -5  519.77  174.54
  -8  10  -6   94.40   84.79
   8  10   6  121.70   92.73
  -8  10  -6   31.65   73.05
  -8  10  -7 9528.02  679.65
   8  10   7 9854.10  721.67
  -8  10  -7 8038.01  616.20
  -8  10  -8 1785.87  139.22
   8  10   8 1257.83  243.61
  -8  10  -8 1196.93  111.13
  -8  10  -9 2801.67  168.22
   8  10   9 2851.89  193.35
  -8  10  -9 2835.48  210.81
  -8  10 -10  314.67  101.12
   8  10  10  291.75  127.70
  -8  10 -10  277.49   92.09
   8  10  11 1974.66  187.84
  -8  10 -11 1405.50  133.33
   8  10  12  461.78  312.37
  -8  10 -12  510.68  227.43
   8  10  13 1208.75  321.18
  -8  10 -13 1203.25  334.20
  -8  12   7 1030.36  101.99
   8  12  -7  942.73  189.66
   8  12  -7  523.51  202.27
  -8  12   6 6050.48  369.35
   8  12  -6 5904.73  365.16
   8  12  -6 5873.11  339.90
   8 -12  -6 6311.13  350.47
  -8  12   5 1727.01  129.09
   8  12  -5 1749.54  140.58
   8  12  -5 1612.62  129.89
   8 -12  -5 1655.69  109.17
  -8  12   416228.92  876.50
   8  12  -416755.94  908.04
  -8  12   417577.06  941.66
   8  12  -415418.52  861.90
  -8  12   3  850.66  233.25
   8  12  -3  992.19  152.12
  -8  12   3  828.73  116.55
   8  12  -3  930.66  185.05
  -8  12   2 1304.30  114.86
   8  12  -2 1347.73  129.90
  -8  12   2 1085.74  155.93
   8  12  -2 1085.80  103.13
  -8  12   1  185.66   83.79
   8  12  -1   50.68   81.94
  -8  12   0  534.37  251.45
   8  12   0  444.84  139.01
  -8  12   0  659.38  138.64
  -8  12  -1   41.63   52.97
   8  12   1   92.07   80.33
  -8  12  -1   50.01   32.48
  -8  12  -2   23.59   46.19
   8  12   2   66.75   49.73
  -8  12  -3  251.35  192.60
   8  12   3  320.76  196.29
  -8  12  -3  408.90  200.43
   9   1 -28 1003.09  102.22
   9   1 -27  230.12  176.18
   9   1 -26 1112.70  158.21
   9  -1 -26  884.78   98.08
   9   1 -25  608.25  192.53
   9  -1 -25  779.41  119.89
   9   1 -24  141.17   63.71
   9  -1 -24   93.26   43.31
   9   1 -23  128.58   44.38
   9  -1 -23  207.80   86.62
  -9   1  22  752.91   46.02
   9   1 -22  713.86  141.29
   9  -1 -22  843.95  106.38
  -9   1  2110102.60  539.86
   9   1 -21 8933.99  490.62
   9  -1 -21 9644.82  523.71
   9   1 -20 1608.95  128.26
  -9   1  20 1338.66   95.00
  -9  -1  20 1363.15   95.81
   9  -1 -20 1210.85  123.51
   9   1 -19 4327.57  293.36
  -9   1  19 4407.84  289.60
  -9  -1  19 5065.19  325.46
   9  -1 -19 5012.01  348.13
   9   1 -18 4120.15  231.92
  -9   1  18 4363.33  241.46
   9   1 -18 4369.15  255.72
  -9  -1  18 4638.42  253.88
   9  -1 -18 4706.18  289.80
   9   1 -17 1484.42   63.60
  -9   1  17 1799.86  138.59
   9   1 -17 2005.60  153.22
  -9  -1  17 1819.85  131.67
   9  -1 -17 1738.58  131.47
   9   1 -16 7934.81  224.35
   9   1 -16 7622.34  201.92
  -9  -1  16 7324.62  188.24
   9  -1 -16 7119.40  199.35
   9   1 -1512697.60  319.60
  -9   1  1511825.05  297.43
  -9  -1  1513071.44  324.59
   9  -1 -1512097.00  325.73
   9   1 -14  314.49   65.26
   9   1 -14  327.89  138.27
   9  -1 -14  336.15  100.98
   9   1 -13  361.68   36.08
  -9   1  13  268.44   24.38
   9   1 -13  315.04   32.79
  -9  -1  13  340.83   32.23
   9  -1 -13  324.86  103.68
   9   1 -12  154.81   47.72
  -9   1  12  238.31   93.20
   9   1 -12  248.81   73.78
  -9  -1  12  146.77   16.34
   9  -1 -12  197.45   66.01
   9   1 -1112798.13  323.15
  -9   1  1111828.05  297.91
   9   1 -1112321.92  318.39
  -9  -1  1110992.85  269.70
   9  -1 -1112915.69  327.74
   9   1 -10  552.68   47.70
  -9   1  10  513.86   29.55
  -9  -1  10  491.56   69.87
   9  -1 -10  404.43   50.35
   9   1  -9 1461.29   77.82
  -9   1   9 1545.16   80.11
   9   1  -9 1502.76  109.30
  -9  -1   9 1600.81   85.25
   9  -1  -9 1628.75   88.10
   9   1  -8 7554.63  196.67
  -9   1   8 6406.02  308.17
   9   1  -8 7405.89  205.77
  -9  -1   8 6762.20  320.69
   9  -1  -8 6942.41  334.12
   9   1  -7  586.58   35.39
  -9   1   7  592.89   24.35
   9   1  -7  621.23   47.32
  -9  -1   7  549.98   20.82
   9  -1  -7  670.02   70.58
   9   1  -6 3074.35  159.21
  -9   1   6 3140.13  152.98
  -9  -1   6 2983.61  148.62
   9  -1  -6 3117.86  156.84
  -9   1   5  137.72   17.68
   9   1  -5  114.93   29.05
   9   1  -5   39.57   53.65
  -9  -1   5  150.20   42.16
   9  -1  -5  142.42   41.90
  -9   1   4   10.36   19.80
   9   1  -311979.68  310.62
  -9   1   313531.77  342.47
  -9  -1   312724.90  323.32
  -9  -1   312812.49  336.74
   9  -1  -313035.70  336.64
   9   1  -214019.29  359.71
  -9   1   213398.82  343.78
  -9  -1   214172.26  376.23
  -9  -1   214086.89  360.98
   9  -1  -214402.39  370.13
   9   1  -1   62.61   23.42
  -9   1   1   64.48   20.83
  -9  -1   1   69.25   25.17
  -9  -1   1   27.72   12.62
   9  -1  -1   29.81   27.51
   9   1   0 1455.78   78.36
  -9   1   0 1289.31   67.27
  -9  -1   0 1192.06   63.97
   9  -1   0 1319.86   75.32
   9   1   1  394.55   40.68
  -9   1  -1  323.07   19.17
  -9  -1  -1  442.08   48.95
   9  -1   1  275.27   30.30
   9   1   232450.38  811.99
   9  -1   231991.81  803.00
  -9  -1  -234333.42  862.38
   9   1   326113.48  657.01
  -9  -1  -324880.44  627.47
   9  -1   329309.06  746.88
  -9  -1  -324869.18  626.78
   9   1   410780.80  275.58
   9   1   411993.71  301.43
  -9  -1  -411796.69  296.47
   9  -1   411308.36  287.30
   9   1   5 1259.33   68.91
  -9   1  -5 1306.24   67.81
   9   1   5 1147.32   85.05
  -9  -1  -5 1318.14   74.09
   9  -1   5 1420.93   88.10
   9   1   6 1735.27   91.19
  -9   1  -6 1821.54   91.27
   9   1   6 2035.26  122.52
  -9  -1  -6 1994.65  104.58
   9  -1   6 2422.94  124.13
  -9   1  -7  736.48   59.59
   9   1   7  678.94   50.94
   9   1   7  740.93   52.66
   9   1   7  577.30   59.49
   9  -1   7  692.10   67.41
  -9   1  -8 3095.84  186.96
   9   1   8 2912.95  194.52
  -9   1  -8 3267.71  199.00
   9   1   8 3053.82  184.24
   9   1   8 2940.36  179.72
  -9   1  -9   38.84   26.11
   9   1   9   52.38   33.32
  -9   1  -9   45.56   28.51
   9   1   9    7.35   21.88
   9   1   9   18.18   20.84
  -9   1 -10 3187.03  189.30
   9   1  10 4095.69  242.18
  -9   1 -10 3867.84  233.22
  -9   1 -1112216.02  318.67
   9   1  1112206.07  319.56
  -9   1 -1111816.39  308.56
   9   1  12  454.35  100.63
   9   1  12  382.37   43.08
  -9   1 -12  245.94   92.77
   9  -1  12  431.97   39.80
   9   1  13 2136.45  105.57
  -9   1 -13 2026.38  106.68
   9  -1  13 2089.02  129.63
   9   1  14 1137.96  135.92
   9   1  14 1116.56   72.49
  -9   1 -14 1082.71  122.02
   9  -1  14 1179.88  119.88
   9   1  15 2282.03  161.67
   9   1  15 2215.20  152.22
  -9   1 -15 2589.70  191.67
   9  -1  15 2560.04  175.98
   9   1  16 4918.36  274.31
   9   1  16 4982.77  270.87
  -9   1 -16 5353.03  303.93
   9  -1  16 4710.28  259.97
   9   1  17   30.57   41.98
   9   1  17   53.14   24.29
  -9   1 -17   47.41   44.29
   9  -1  17   81.40   37.15
   9   1  18  783.45  107.20
  -9   1 -18 1089.59   59.66
  -9   1 -19 5622.71  331.17
  -9   1 -20   95.86   48.59
  -9   1 -21 3711.57  213.09
   9   3 -28   61.30   68.06
   9   3 -27   50.81   38.45
   9   3 -26  193.69   89.74
   9   3 -25   41.84   51.38
   9   3 -24  493.86  184.64
  -9   3  23 1307.92  107.31
   9   3 -23 1385.01  126.13
   9  -3 -23 1185.35  105.10
  -9   3  22 7821.60  398.50
   9   3 -22 8068.58  427.63
   9  -3 -22 7952.38  418.92
  -9   3  21  380.33   50.23
   9  -3 -21  364.38   71.89
  -9   3  20 3477.19  259.72
   9   3 -20 3088.45  241.03
   9  -3 -20 3596.71  269.94
  -9   3  19 3803.75  160.68
   9   3 -19 3539.20  138.64
   9   3 -19 3201.50  232.94
   9  -3 -19 3212.19  229.68
   9   3 -18 5006.08  323.24
   9   3 -18 4758.04  324.89
   9  -3 -18 4663.86  335.96
  -9   3  17 1401.91   80.73
   9   3 -17 1456.89   70.70
   9   3 -17 1480.78   72.99
   9   3 -17 1517.66  237.27
   9  -3 -17 1462.18   80.36
   9   3 -16 6493.32  273.73
  -9   3  16 6494.99  281.46
   9   3 -16 6243.20  267.10
   9   3 -16 6851.41  307.93
   9  -3 -16 6936.07  304.35
   9   3 -15 2411.56  168.25
  -9   3  15 2389.82  175.24
   9   3 -15 2109.79  154.32
   9   3 -15 2052.01  178.33
   9  -3 -15 1962.54  142.68
   9   3 -14  867.62   61.41
  -9   3  14  968.88  144.23
   9   3 -14  883.45   65.29
   9   3 -14  876.45   76.03
   9  -3 -14  891.70   75.67
   9   3 -13  512.37   38.91
  -9   3  13  282.62  107.66
   9   3 -13  526.74   51.73
   9   3 -13  459.45  143.59
   9  -3 -13  477.92   52.56
   9   3 -1210865.45  329.46
  -9   3  1211715.98  365.40
   9   3 -1211315.03  382.43
   9  -3 -1210764.31  334.96
  -9   3  11 7018.42  255.30
   9   3 -11 8411.00  291.46
   9   3 -11 7796.35  308.52
  -9  -3  11 8268.81  292.33
   9  -3 -11 6961.88  254.07
  -9   3  10 3210.79  194.47
   9   3 -10 3632.48  212.15
   9   3 -10 3318.59  207.88
  -9  -3  10 3574.50  212.26
   9  -3 -10 3287.52  197.14
  -9   3   9  206.70   54.98
   9   3  -9  124.13   30.34
   9   3  -9  181.71   77.86
  -9  -3   9  146.72   38.67
   9  -3  -9  112.47   21.68
   9   3  -8  290.62   96.88
  -9   3   8  394.88  104.88
  -9  -3   8  357.95   25.56
   9  -3  -8  272.69   27.31
   9   3  -7  657.51   42.35
  -9   3   7  596.25   58.84
  -9  -3   7  614.16   25.99
   9  -3  -7  585.73   31.59
   9   3  -6 2213.77  144.54
  -9   3   6 1982.63  108.41
  -9  -3   6 2101.26  107.86
   9  -3  -6 2041.51  124.30
  -9   3   514798.23  390.15
   9   3  -514118.11  355.23
   9   3  -515343.50  387.75
   9  -3  -515648.98  395.79
   9   3  -4 7422.32  198.00
   9  -3  -4 7324.39  193.74
  -9   3   3  184.40   88.42
   9   3  -3  210.50   85.36
   9   3  -3  186.44   48.61
   9  -3  -3  152.79   26.04
  -9   3   2 9734.17  263.16
   9   3  -210786.40  279.92
   9   3  -210074.91  259.93
   9  -3  -2 9664.61  251.65
  -9   3   112256.64  321.61
   9   3  -111754.80  301.93
   9   3  -112776.62  322.24
   9  -3  -113298.31  337.98
  -9   3   0 7496.72  193.06
   9   3   0 7339.77  199.92
   9   3   0 8012.96  208.16
  -9  -3   0 7774.90  201.20
  -9   3  -1  809.78   48.62
   9   3   1  782.46   61.42
   9   3   1  771.87   48.68
  -9  -3  -1  716.09   38.33
   9  -3   1  765.94   85.37
  -9   3  -2 3395.79  164.61
   9   3   2 3116.06  169.51
  -9   3  -2 3126.01  165.11
   9   3   2 3152.20  155.32
  -9  -3  -2 3800.83  183.29
  -9   3  -3  721.40   39.12
   9   3   3  552.11   37.06
  -9   3  -3  631.54   43.36
   9   3   3  588.91   32.78
  -9  -3  -3  624.51   66.73
  -9   3  -4  539.80   31.78
   9   3   4  438.96   39.60
  -9   3  -4  558.39   69.05
   9   3   4  511.33   30.51
  -9  -3  -4  463.25   41.52
  -9   3  -517015.39  583.25
   9   3   518273.67  639.92
  -9   3  -517200.42  601.91
   9   3   517422.35  599.10
  -9  -3  -518475.49  642.29
  -9   3  -6 1801.04  119.61
   9   3   6 1667.83  110.29
  -9   3  -6 1869.88  126.56
   9   3   6 1763.74  107.93
  -9   3  -727707.07  828.04
   9   3   727834.50  848.71
  -9   3  -727064.90  824.34
   9   3   727433.57  822.09
   9   3   727300.04  818.27
  -9   3  -8 2166.68  106.13
   9   3   8 2094.08  144.73
  -9   3  -8 2013.21  114.50
   9   3   8 1966.29  104.15
   9   3   8 2203.19  113.45
  -9   3  -9  522.17   72.66
   9   3   9  586.29  180.63
  -9   3  -9  488.78   42.37
   9   3   9  496.63   31.83
   9   3   9  494.78   36.07
  -9   3 -10 8347.61  347.10
   9   3  10 8106.29  353.99
  -9   3 -10 7985.93  346.38
   9   3  10 7673.70  323.07
   9   3  10 7793.83  324.27
  -9   3 -11 6105.70  257.05
   9   3  11 6384.99  285.34
  -9   3 -11 6940.42  311.98
   9   3  11 6975.17  293.38
   9   3  11 5861.50  245.73
  -9   3 -1220613.57  746.14
   9   3  1220613.82  762.94
  -9   3 -1218592.96  715.75
   9   3  1221181.44  766.26
  -9   3 -13 1230.13   80.53
   9   3  13 1069.62  152.29
  -9   3 -13 1190.08  173.72
   9   3  13 1194.63   72.41
  -9   3 -14  744.88   29.54
   9   3  14  869.67   63.17
  -9   3 -14  974.20  153.56
  -9   3 -15    5.05   10.01
   9   3  15   32.29   28.62
  -9   3 -15   25.02   32.44
   9   3  16 2435.07  188.75
  -9   3 -16 2279.01  174.09
   9   3  17 3269.67  187.57
  -9   3 -17 3151.13  179.57
   9   3  18 1193.09  166.28
  -9   3 -18 1480.82  127.61
   9   3  19  209.90   80.76
  -9   3 -19  252.31  108.37
   9   3  20   41.03   31.54
  -9   3 -20   43.42   40.11
  -9   3 -21 1432.94   69.85
  -9   3 -22  791.78  149.51
   9   5 -26  266.03  150.49
   9   5 -25   97.02   78.56
  -9   5  24 1145.02  101.36
   9   5 -24 1404.15  139.64
  -9   5  23 1941.98  152.07
   9   5 -23 1767.51  155.15
  -9   5  22 2746.35  224.12
   9   5 -22 3634.08  300.16
  -9   5  21 4214.49  256.00
   9   5 -21 5213.34  325.16
  -9   5  20  751.89   98.39
   9   5 -20  684.87   87.64
   9  -5 -20  708.50   58.90
   9   5 -19   72.24   58.91
   9  -5 -19   37.78   31.15
  -9   5  18   23.40   31.66
   9   5 -18   14.56   13.93
   9   5 -18   75.17   56.71
   9  -5 -18   21.33   24.15
  -9   5  17  393.89   52.48
   9   5 -17  445.76   52.82
   9   5 -17  498.98  166.39
   9  -5 -17  395.98   55.38
  -9   5  16 9654.25  467.32
   9   5 -16 8219.77  394.01
   9   5 -16 8306.55  415.23
   9  -5 -16 8519.44  405.59
  -9   5  15 8983.74  437.12
   9   5 -1510054.09  484.52
   9   5 -15 8656.52  529.13
   9  -5 -15 9973.52  472.92
  -9   5  14 2652.87  201.23
   9   5 -14 2174.77  112.66
   9   5 -14 2345.41  162.13
   9  -5 -14 2080.48  109.55
  -9   5  13  -25.63   38.96
   9   5 -13   -1.30   19.99
   9   5 -13   24.89   41.52
   9  -5 -13    0.43   13.04
  -9   5  12  609.52  190.79
   9   5 -12  769.27   40.02
   9   5 -12  746.58  107.98
   9  -5 -12  767.18   36.73
  -9   5  11 1033.63   96.10
   9   5 -11  608.68   60.20
   9   5 -11  793.44   90.52
   9  -5 -11  773.39   71.29
  -9   5  10 3033.81  218.78
   9   5 -10 3697.35  219.81
   9   5 -10 3483.90  222.39
   9  -5 -10 3175.42  189.81
  -9   5   9 5201.77  308.37
   9   5  -9 5380.40  314.32
   9   5  -9 4764.42  294.42
   9  -5  -9 5033.51  291.69
  -9   5   8 2100.26  129.55
   9   5  -8 1734.04  157.10
   9   5  -8 1898.10   75.61
   9  -5  -8 1939.67  102.10
  -9   5   7  196.60   65.10
   9   5  -7   59.14   43.31
   9   5  -7  111.43   39.44
   9  -5  -7   83.41   27.43
  -9   5   6 7524.61  252.22
   9   5  -6 7573.53  246.66
   9   5  -6 7930.71  271.76
   9  -5  -6 8078.06  257.41
  -9   5   523574.87  721.40
   9   5  -523279.26  711.22
   9   5  -522126.29  694.24
   9  -5  -524339.30  738.61
  -9   5   4  630.85   76.89
   9   5  -4  470.04   83.19
   9   5  -4  400.32   44.88
   9  -5  -4  477.94   75.06
  -9   5   3  974.93   90.31
   9   5  -3  863.74   66.83
   9   5  -3  940.18   68.30
   9  -5  -3  793.06   68.61
  -9   5   2 2962.55  181.77
   9   5  -2 3003.40  190.91
   9   5  -2 2986.01  188.57
  -9   5   112708.40  396.98
   9   5  -111312.14  363.64
  -9   5   110271.40  363.28
   9   5  -111934.69  374.54
  -9   5   0   14.62   20.22
   9   5   0   18.32   38.47
  -9   5   0    7.55   24.58
   9   5   0   40.80   34.05
  -9   5  -1 5799.44  201.85
   9   5   1 5845.34  207.81
  -9   5  -1 6308.41  217.87
   9   5   1 5937.27  195.12
  -9   5  -2  915.45   70.16
   9   5   2  736.72   70.02
  -9   5  -2  792.42   69.65
   9   5   2  670.39   82.98
  -9   5  -3 1680.12  116.77
   9   5   3 1732.76  149.84
  -9   5  -3 1758.42  125.84
   9   5   3 1542.99  104.21
  -9  -5  -3 1907.14   39.18
  -9   5  -414285.04  358.51
   9   5   415125.60  401.88
  -9   5  -414196.65  374.90
   9   5   413995.32  351.53
  -9  -5  -414618.68  361.38
  -9   5  -5   18.16   18.35
   9   5   5   19.06   32.16
  -9   5  -5   28.10   38.37
   9   5   5    8.42   10.34
  -9  -5  -5   19.95   17.87
  -9   5  -6 4667.40  274.27
   9   5   6 4957.48  298.90
  -9   5  -6 5913.07  349.93
   9   5   6 5139.47  295.40
  -9  -5  -6 4831.78  275.83
  -9   5  -7 2200.74  155.48
   9   5   7 1892.41  188.66
  -9   5  -7 2098.90  158.28
   9   5   7 2079.31  146.31
  -9  -5  -7 2074.46  144.83
  -9   5  -8   24.91   14.01
   9   5   8   42.31   27.65
   9   5   8   -2.46   11.12
  -9   5  -8   54.22   49.72
   9   5   8   34.48   17.08
  -9   5  -9   76.75   22.48
   9   5   9   64.57   57.31
  -9   5  -9  169.59   54.82
   9   5   9   74.80   26.58
  -9   5 -10 2181.28  144.23
   9   5  10 2143.81   80.61
  -9   5 -10 2322.83  173.61
   9   5  10 2008.41   32.43
  -9   5 -11  336.04   45.36
   9   5  11  357.52  116.77
  -9   5 -11  410.09  134.13
  -9   5 -12   14.33   13.12
   9   5  12   27.41   39.50
  -9   5 -12   25.67   44.79
  -9   5 -13  498.05   47.37
   9   5  13  639.24  105.45
  -9   5 -13  460.64  203.49
  -9   5 -14 1820.87  132.89
   9   5  14 2060.47  235.08
  -9   5 -14 1846.23  161.86
   9   5  15 4886.15  289.62
  -9   5 -15 5296.00  291.13
  -9   5 -16 2044.57  174.70
   9   5  17 3623.12  297.54
  -9   5 -17 4051.98  327.35
   9   5  18 2059.46  170.90
  -9   5 -18 2832.41  225.42
   9   5  19   15.03   27.17
  -9   5 -19   29.34   68.64
   9   5  20 2686.66  203.04
  -9   5 -20 2941.90  211.05
  -9   5 -21 1460.40  119.91
   9   7 -24 1562.12  159.48
  -9   7  23   42.43   29.03
   9   7 -23   70.66   58.31
  -9   7  22   42.68   35.08
   9   7 -22   61.74   87.04
  -9   7  21  358.56  167.48
   9   7 -21  430.86  314.31
   9   7 -20  903.99  114.06
  -9   7  19 8218.27  640.53
   9   7 -19 7531.33  613.45
  -9   7  18   29.00   31.06
   9   7 -18   29.91   30.05
  -9   7  17 3148.24  186.48
   9   7 -17 3438.85  212.52
  -9   7  16  438.99  206.02
   9   7 -16  510.32   41.82
   9   7 -16  609.97  222.65
   9  -7 -16  616.38   39.65
  -9   7  15 1945.02  185.34
   9   7 -15 1976.96  149.83
   9   7 -15 2720.41  220.01
   9  -7 -15 2260.28  167.04
  -9   7  14  549.58  170.45
   9   7 -14  600.57   89.06
   9   7 -14  684.57  170.46
   9  -7 -14  529.07   76.70
  -9   7  13   37.32   51.19
   9   7 -13  142.09   40.08
   9   7 -13  103.75   66.44
   9  -7 -13   55.67   21.24
  -9   7  12 2907.51  214.70
   9   7 -12 3310.86   84.26
   9   7 -12 3255.94  233.54
   9  -7 -12 3414.19  103.07
  -9   7  11  107.47   47.44
   9   7 -11   80.56   61.13
   9   7 -11  107.09   46.46
   9  -7 -11   74.82   65.73
  -9   7  10  531.38   56.84
   9   7 -10  625.00   50.18
   9   7 -10  463.30  191.90
   9  -7 -10  553.46   45.23
  -9   7   9 7199.94  358.77
   9   7  -9 6611.85  328.33
   9   7  -9 7189.59  361.25
   9  -7  -9 6392.15  308.62
  -9   7   8 3015.42  301.86
   9   7  -8 3004.21  188.40
   9   7  -8 2786.82  235.31
   9  -7  -8 2816.04  199.08
  -9   7   721942.09  813.61
   9   7  -722143.34  821.04
   9   7  -721231.66  792.76
   9  -7  -722812.54  839.75
  -9   7   6 1363.95  239.17
   9   7  -6  999.41  437.61
   9   7  -6  978.88   94.30
   9  -7  -6 1064.29   70.50
  -9   7   5  883.39   68.75
   9   7  -5  662.65   88.46
   9   7  -5  660.00   65.38
   9  -7  -5  779.98  127.94
  -9   7   4 7790.79  309.53
   9   7  -4 8302.24  328.49
   9   7  -4 8387.81  328.99
   9  -7  -4 7977.71  337.70
  -9   7   3 1035.52   70.33
   9   7  -3 1305.11   85.92
  -9   7   3 1359.38  122.18
   9   7  -3 1208.19  136.31
  -9   7   2  203.58   82.33
   9   7  -2  107.92   59.24
  -9   7   2   87.01   41.24
   9   7  -2  124.37  104.12
  -9   7   1 2348.63  158.34
   9   7  -1 2874.98  181.57
  -9   7   1 2743.11  171.21
   9   7  -1 2565.68  154.76
  -9   7   0 5972.91  338.14
   9   7   0 5384.01  321.87
  -9   7   0 5387.13  358.32
   9   7   0 5397.49  314.61
  -9   7  -127625.91 1010.69
   9   7   130479.59 1129.35
  -9   7  -126152.25  961.65
  -9   7  -2  110.56   69.18
   9   7   2   32.20   27.24
  -9   7  -2   68.03   30.16
   9   7   2   76.67   33.23
  -9   7  -3 6117.02  107.34
   9   7   3 6259.27  267.92
  -9   7  -3 6251.49  256.52
   9   7   3 5687.86  316.44
  -9   7  -4  824.92  106.41
   9   7   4  824.89   97.35
  -9   7  -4  774.83  158.17
   9   7   4  844.79   75.07
  -9   7  -5 3117.35  210.76
   9   7   5 2857.83  227.55
  -9   7  -5 2870.67  261.13
   9   7   5 2777.90  185.92
  -9   7  -6  268.75   95.35
   9   7   6  266.41   77.80
  -9   7  -6  289.36   61.63
   9   7   6  306.07   60.65
  -9   7  -7 1548.51  139.25
   9   7   7 1650.85  254.64
  -9   7  -7 1609.13  169.87
   9   7   7 1571.30  109.96
  -9   7  -8 2387.74  180.49
   9   7   8 2142.20  262.30
  -9   7  -8 2428.37  199.12
  -9   7  -9 7130.65  392.90
   9   7   9 8045.86  564.08
  -9   7  -9 7941.14  449.85
  -9   7 -10   33.67   17.57
   9   7  10   41.99   85.38
  -9   7 -10   -9.54   51.03
  -9   7 -11 1645.20  130.00
   9   7  11 2087.26  357.79
  -9   7 -11 1685.23  186.09
  -9   7 -12   78.89   32.60
   9   7  12   60.40   96.54
  -9   7 -12   79.99   40.36
   9   7  13 1415.62  196.97
  -9   7 -13 1492.07  231.21
   9   7  14 1020.01  135.57
  -9   7 -14  990.84  209.33
   9   7  15 1542.24  144.31
  -9   7 -15 1381.75  128.57
   9   7  16   65.03   73.96
  -9   7 -16  120.25   54.26
  -9   7 -17 2282.55  160.05
   9   7  18   31.41   37.07
  -9   7 -18   51.07   50.49
  -9   9  20 2597.89  175.37
   9   9 -20 2665.34  284.42
  -9   9  19   70.20   60.38
   9   9 -19   97.18   59.59
  -9   9  18 2085.43   93.34
   9   9 -18 2542.95  202.14
  -9   9  17  715.73   85.75
   9   9 -17  539.22  198.44
  -9   9  16   97.85   48.86
   9   9 -16  156.85  100.85
  -9   9  15  444.50  205.54
   9   9 -15  488.97  189.62
  -9   9  14   48.82   42.93
   9   9 -14   63.21   40.88
   9   9 -14  198.58   88.69
  -9   9  13   64.02   27.46
   9   9 -13   29.24   31.28
   9   9 -13   32.65   43.95
   9  -9 -13   24.38   24.75
  -9   9  12 2537.57  213.16
   9   9 -12 2026.41  169.07
   9   9 -12 2185.61  190.69
   9  -9 -12 2125.91  179.20
  -9   9  11  275.05  127.86
   9   9 -11  340.82  134.46
   9   9 -11  373.85   82.56
   9  -9 -11  307.18   26.78
  -9   9  10 4346.70  252.45
   9   9 -10 3885.75  220.28
   9   9 -10 3439.29  215.96
   9  -9 -10 3877.37  205.99
  -9   9   9  175.85  102.54
   9   9  -9  290.73  138.01
   9   9  -9  405.38  151.73
   9  -9  -9  211.55   99.95
  -9   9   8  -21.43   50.78
   9   9  -8  -12.30   32.56
   9   9  -8   -6.50   42.15
   9  -9  -8   34.29   41.16
  -9   9   7 1007.21  290.85
   9   9  -7 1071.07   67.29
   9   9  -7 1200.13  252.64
   9  -9  -7 1103.41   63.32
  -9   9   6 8196.48  310.46
   9   9  -6 8496.18  315.49
   9   9  -6 9781.47  353.69
   9  -9  -6 8394.28  296.34
  -9   9   5 8204.71  304.62
   9   9  -5 6715.72  319.60
   9   9  -5 9258.76  339.61
   9  -9  -5 7899.88  291.31
  -9   9   4 1528.24  239.79
   9   9  -4 1414.11  253.21
  -9   9   4 1485.95  143.26
   9   9  -4 1181.35   77.99
  -9   9   3  577.99   56.39
   9   9  -3  746.02  211.90
  -9   9   3  738.28   68.21
  -9   9   2  276.84  119.10
   9   9  -2  389.94  232.52
  -9   9   2  551.45  145.00
   9   9  -2  140.76   81.70
  -9   9   128120.99  959.28
   9   9  -127634.24  931.35
  -9   9   129699.61 1001.01
   9   9  -129303.31  968.80
  -9   9   0   24.84   53.28
   9   9   0    0.20   45.65
  -9   9   0   47.03   67.91
   9   9   0   11.36   44.42
  -9   9  -1   31.99   28.41
   9   9   1    5.51   27.84
  -9   9  -1   40.23   49.31
   9   9   1   42.96   27.23
  -9   9  -2   46.72   29.26
   9   9   2   27.63   53.76
  -9   9  -2   20.75   27.31
   9   9   2    5.09   17.81
  -9   9  -3 9682.58  496.90
   9   9   310287.88  545.14
  -9   9  -310636.71  183.87
   9   9   310948.40  144.69
  -9   9  -4 3273.46  183.75
   9   9   4 3555.15  220.24
  -9   9  -4 3537.41  209.61
  -9   9  -5 1186.24   61.52
   9   9   5  930.35   79.75
  -9   9  -5 1099.97   76.95
  -9   9  -612184.87  696.20
   9   9   610406.94  687.28
  -9   9  -610799.85  632.20
  -9   9  -7  271.29  111.29
   9   9   7  263.54  125.06
  -9   9  -7  237.91  110.16
  -9   9  -8 1378.11  131.51
   9   9   8 1638.64  176.69
  -9   9  -8 1442.53  176.28
  -9   9  -9   42.52   21.77
   9   9   9   -1.87   28.49
  -9   9  -9   75.34   66.47
  -9   9 -10  351.38   66.19
   9   9  10  302.85  168.66
  -9   9 -10  327.29  168.82
   9   9  11 1322.05  271.58
  -9   9 -11  793.03   75.08
   9   9  12 2421.92  255.16
  -9   9 -12 2379.28  266.01
   9   9  13  426.52  221.58
  -9   9 -13  658.97  227.29
   9   9  14  289.85  175.68
  -9   9 -14  461.85  226.44
  -9   9 -15 1435.05  144.80
  -9  11  13  -44.16   62.72
   9  11 -13   12.01   35.47
  -9  11  12 3285.04  210.56
   9  11 -12 3505.03  215.20
   9  11 -12 2991.97  196.95
  -9  11  11 3902.52  277.21
   9  11 -11 4000.86  282.37
   9  11 -11 3107.84  240.33
  -9  11  10  -30.90   54.76
   9  11 -10   20.03   30.27
   9  11 -10   58.63   30.05
  -9  11   9 2023.67  150.74
   9  11  -9 2399.57  156.30
   9  11  -9 2308.97  157.58
   9 -11  -9 2527.80  150.16
  -9  11   8 4019.08  301.83
   9  11  -8 3760.47  225.86
   9 -11  -8 4265.98  238.82
  -9  11   7 1203.95  223.67
   9  11  -7 1453.35   88.69
   9  11  -7 1290.85   73.72
   9 -11  -7 1197.46   56.34
  -9  11   6   38.90   85.43
   9  11  -6    1.09   51.73
   9  11  -6  -27.79   40.50
   9 -11  -6   53.48   35.90
  -9  11   5  281.93  118.96
   9  11  -5  166.59  131.58
   9  11  -5  138.47   72.50
   9 -11  -5  260.14   77.16
  -9  11   4  475.76  235.32
   9  11  -4  894.91  186.55
   9  11  -4  773.41  118.56
  -9  11   3   33.66   49.81
   9  11  -3   89.35   84.55
  -9  11   3   57.30   38.01
   9  11  -3    7.26   17.71
  -9  11   2  322.42  154.35
   9  11  -2  279.61  210.44
  -9  11   2  288.92  172.68
   9  11  -2  319.49  165.19
  -9  11   1   99.46  106.05
   9  11  -1  232.54   96.08
   9  11  -1  119.13   75.38
  -9  11   0  175.76  121.04
   9  11   0  180.78  123.03
   9  11   0  170.33   50.61
  -9  11  -1   87.39   48.82
   9  11   1   81.58   50.91
  -9  11  -1  136.23   67.74
  -9  11  -2   55.77   73.55
   9  11   2   96.99   81.67
  -9  11  -2   23.66   38.29
  -9  11  -3 1377.65  116.51
   9  11   3 1782.61  148.26
  -9  11  -3 1119.52   74.17
  -9  11  -4   73.13   40.42
   9  11   4   50.59   28.18
  -9  11  -4   79.42   59.35
  -9  11  -5 5210.15  346.38
   9  11   5 5481.57  384.06
  -9  11  -5 5354.31  366.86
  -9  11  -6    9.18   24.57
   9  11   6   30.09   34.42
  -9  11  -6   38.57   34.60
  -9  11  -7 1362.04  106.96
   9  11   7 1232.96  250.17
  -9  11  -7  940.01  331.32
  -9  11  -8   36.70   33.43
   9  11   8   66.15   80.32
  -9  11  -8   33.05   56.43
  10   0 -28   14.74   46.91
  10   0 -27   21.76   40.58
  10   0 -26   36.65   30.01
  10   0 -25   28.77   38.03
  10   0 -24   42.91   49.64
  10   0 -23    6.75   39.36
  10   0 -22 5813.09  221.47
 -10   0  21   -0.75   12.08
  10   0 -21   26.50   18.67
 -10   0  2019452.77  728.72
  10   0 -2021543.78  850.16
 -10   0  19    8.92   10.93
  10   0 -19   51.31   36.21
 -10   0  18 6780.82  249.84
  10   0 -18 6633.10  262.43
 -10   0  17   11.09    8.93
  10   0 -17   19.10   18.30
  10   0 -16   39.00   46.53
 -10   0  15    8.25    9.18
  10   0 -15   -1.03   19.89
 -10   0  14 3098.69  148.24
  10   0 -14 3449.64  175.55
 -10   0  13   -6.95   34.86
  10   0 -13   35.05   21.89
 -10   0  12 9878.13  346.69
  10   0 -1210147.37  366.76
 -10   0  11   11.85   11.77
  10   0 -11   35.99   28.80
 -10   0  10 1624.73   81.68
  10   0 -10 1482.78   87.08
 -10   0   9    6.94    8.90
  10   0  -9   21.43   36.55
 -10   0   823253.86  564.32
  10   0  -828137.23  692.07
 -10   0   7    5.77   10.47
  10   0  -7   17.75   22.40
 -10   0   6 3198.68  157.59
  10   0  -6 3717.75  185.74
 -10   0   5   14.80   13.58
  10   0  -5   21.77   11.53
 -10   0   412565.81  326.38
  10   0  -411942.74  311.60
 -10   0   3    2.98   11.33
  10   0  -3   28.43   25.48
 -10   0   2 1635.62   91.75
  10   0  -2 1620.90   87.74
 -10   0   1   12.36   15.82
  10   0  -1   18.23   21.26
 -10   0   0 6834.11  325.09
  10   0   0 6784.87  325.87
 -10   0  -1   15.37   21.40
  10   0   1   60.65   25.16
 -10   0  -3   12.97   17.34
  10   0   3   12.41   10.63
 -10   0  -4 2389.42  130.02
  10   0   4 1734.00   92.70
 -10   0  -5   -4.76   17.40
  10   0   5   18.73   14.69
 -10   0  -621458.51  737.84
  10   0   622794.04  784.72
 -10   0  -7   27.84   22.84
  10   0   7   11.01   21.74
 -10   0  -815082.14  466.74
  10   0   814944.13  463.15
 -10   0  -9   33.44   43.75
  10   0   9  -10.60   22.57
  10   0  10  231.53   91.22
  10   0  10  188.72   65.06
  10   0  11   19.22   20.38
  10   0  11    2.18   11.07
  10   0  13   13.16   26.30
  10   0  13   18.69   20.81
  10   0  14   84.64   35.58
  10   0  14   33.76   20.80
  10   0  15   32.04   18.49
  10   0  15   22.58   21.44
  10   0  16 8535.52  321.83
  10   0  16 9321.18  346.74
  10   0  17   24.98   13.92
  10   0  17  -25.53   22.06
  10   0  18 1454.91  120.09
  10   2 -28 1072.16  103.37
  10   2 -27   30.45   44.71
  10   2 -26 3873.27  229.77
  10   2 -25  440.74  217.44
  10  -2 -25  376.43  187.55
  10   2 -24  391.24  197.99
  10  -2 -24  765.40  123.29
 -10   2  23 2274.78  173.05
  10   2 -23 2830.11  230.17
  10  -2 -23 2346.21  187.29
 -10   2  22 2522.45  201.78
  10   2 -22 2310.79  195.67
  10  -2 -22 2697.17  216.63
 -10   2  21  571.99   64.17
  10   2 -21  524.52  166.24
  10  -2 -21  837.07   48.75
 -10   2  20 1716.56  119.30
  10   2 -20 2031.89  155.54
  10  -2 -20 1990.84  147.17
  10   2 -19 1553.84  197.01
 -10   2  19 1499.18   94.43
 -10  -2  19 1567.97   95.97
  10  -2 -19 1441.18   99.63
  10   2 -18  160.94   70.56
 -10   2  18  213.05   64.01
 -10  -2  18  227.01   36.68
  10  -2 -18  218.52   96.61
  10   2 -17 3640.72  218.81
  10   2 -17 3886.24  216.79
 -10  -2  17 3469.20  191.50
  10  -2 -17 3742.48  213.78
  10   2 -16   33.68   14.34
 -10   2  16  121.10   40.40
  10   2 -16   97.72   58.19
 -10  -2  16   64.93   25.44
  10  -2 -16   35.46   34.84
  10   2 -15 5590.42  319.93
 -10   2  15 4922.67  284.93
  10   2 -15 5316.68  316.50
 -10  -2  15 5498.85  316.90
  10  -2 -15 5960.52  347.10
  10   2 -14 1107.02   79.03
 -10   2  14  946.83   78.22
  10   2 -14 1175.43   95.00
 -10  -2  14 1242.90   90.84
  10  -2 -14 1138.83   87.49
  10   2 -13 5047.93  252.96
 -10   2  13 4842.49  232.68
 -10  -2  13 4782.16  226.69
  10  -2 -13 5137.05  249.45
  10   2 -12  862.70  176.10
 -10   2  12  722.10  170.72
 -10  -2  12  912.55  102.48
  10  -2 -12  957.36   71.64
  10   2 -11 7627.33  283.80
 -10   2  11 7581.69  272.90
 -10  -2  11 6623.41  233.84
  10  -2 -11 6515.30  235.73
  10   2 -10 7811.94  304.29
 -10   2  10 7812.22  279.23
 -10  -2  10 7184.77  265.57
  10  -2 -10 8026.32  289.04
 -10   2   921731.92  547.27
 -10  -2   921117.91  513.68
  10  -2  -920653.14  509.84
  10   2  -8 2472.50  136.81
 -10   2   8 3177.68  158.18
 -10  -2   8 2995.88  154.23
  10  -2  -8 3059.20  153.64
  10   2  -723000.48  575.51
 -10   2   723673.58  577.79
 -10  -2   723474.62  579.43
  10  -2  -723975.98  592.26
  10   2  -6 3953.02  198.46
 -10   2   6 4344.72  214.44
 -10  -2   6 4233.18  204.51
  10  -2  -6 4532.29  220.93
  10   2  -5  411.95  117.30
 -10   2   5  264.90   23.66
 -10  -2   5  367.31   53.76
  10  -2  -5  348.30  100.05
  10   2  -414004.11  375.34
 -10   2   413567.40  348.12
 -10  -2   414022.92  348.32
  10  -2  -415201.23  380.36
  10   2  -3   89.42   33.09
 -10   2   3  152.01   34.92
 -10  -2   3  120.07   35.40
  10  -2  -3   64.25   52.17
  10   2  -2 7776.24  209.66
 -10   2   2 8915.48  233.58
 -10  -2   2 8037.80  220.87
  10   2  -1 5535.94  152.08
 -10   2   1 5537.56  145.32
 -10  -2   1 5049.58  152.61
  10  -2  -1 5300.82  147.60
  10   2   0   45.54   15.20
 -10   2   0   56.00   20.59
 -10  -2   0   56.88   20.77
  10  -2   0   43.51   56.96
  10   2   1 1197.56   65.90
 -10   2  -1 1055.34   58.02
 -10  -2  -1 1291.22   76.04
  10  -2   1 1163.96   86.89
  10   2   2  125.45   29.85
 -10   2  -2   82.23   26.27
 -10  -2  -2   95.56   48.68
 -10  -2  -2   46.01   11.03
  10  -2   2   80.67   50.06
  10   2   3  984.14   57.99
 -10   2  -3  981.60   52.99
 -10  -2  -3  930.31   63.70
 -10  -2  -3  849.45   49.75
  10  -2   3 1363.04  120.61
 -10   2  -4  733.70   55.89
  10   2   4  841.08   67.30
  10   2   4  888.38   60.75
  10  -2   4  706.19   72.83
 -10  -2  -4  843.26   64.07
 -10   2  -5 1208.91   75.76
  10   2   5 1081.52   93.29
  10   2   5 1101.07   78.70
  10   2   5 1294.41  107.97
  10  -2   5 1306.17  114.67
 -10   2  -6  901.48   58.89
  10   2   6  849.87   63.01
 -10   2  -6 1051.27   75.84
  10   2   6  942.97   64.68
  10   2   6  882.66   76.89
 -10   2  -7 1476.46   97.16
  10   2   7 1467.81  116.67
 -10   2  -7 1448.55  112.76
  10   2   7 1263.00   89.35
  10   2   7 1520.92  101.03
 -10   2  -8 1136.24   81.37
  10   2   8 1119.63  132.34
 -10   2  -8 1204.63   93.75
  10   2   8 1095.36   80.05
  10   2   8 1090.56   78.20
 -10   2  -9   20.17   12.03
  10   2   9   14.81   33.59
 -10   2  -9   14.98   15.84
  10   2   9   26.82   21.69
 -10   2 -10 8214.04  342.86
  10   2  10 9215.39  395.44
 -10   2 -10 9094.52  389.49
  10   2  10 9428.36  398.62
 -10   2 -11 2309.33  132.11
  10   2  11 2265.83  213.36
 -10   2 -11 2599.48  183.57
  10   2  11 2259.28  134.76
 -10   2 -12  331.63  101.77
  10   2  12  331.41  109.48
 -10   2 -12  218.90   89.25
  10   2  12  334.37   28.90
 -10   2 -13 4337.59  291.37
  10   2  13 4183.39  295.64
 -10   2 -13 4575.26  319.82
  10   2  13 4447.95  289.23
  10   2  1419024.24  714.53
 -10   2 -1420267.68  785.42
  10  -2  1420823.71  790.62
  10   2  15   38.60   35.90
  10   2  15   32.99   25.11
 -10   2 -15   31.07   21.23
  10  -2  15   20.14   19.03
  10   2  16 2222.14  172.00
 -10   2 -16 2364.28  180.48
  10  -2  16 2289.99  168.68
  10   2  17 3750.95  209.78
 -10   2 -17 3841.35  224.92
  10   2  18  561.96  124.04
 -10   2 -18  631.11  203.29
  10   2  19  831.82  129.64
 -10   2 -19  825.18   54.17
 -10   2 -20 4376.51  242.03
 -10   2 -21   50.05   39.89
  10   4 -27   39.08   30.81
  10   4 -26 1098.19  118.96
  10   4 -25  116.29  120.36
 -10   4  24  520.62   83.69
  10   4 -24  683.22  178.47
 -10   4  23   76.45   36.29
  10   4 -23  112.70   53.74
 -10   4  22 1831.60  147.28
  10   4 -22 1876.23  162.43
  10  -4 -22 1806.03  145.50
 -10   4  21  365.48  123.53
  10   4 -21  425.99  185.49
  10  -4 -21  394.47   73.30
 -10   4  20  431.60  147.90
  10   4 -20  501.70  162.74
  10  -4 -20  445.14   62.89
  10   4 -19   54.09   56.87
  10  -4 -19   86.45   26.86
 -10   4  18  126.20   39.70
  10   4 -18  138.93   44.02
  10   4 -18  163.94   61.24
  10  -4 -18  162.73   56.53
 -10   4  17   74.80   30.30
  10   4 -17   55.92   20.96
  10   4 -17   49.75   69.73
  10  -4 -17  100.14   32.99
 -10   4  16 8842.99  434.46
  10   4 -16 8242.60  392.11
  10   4 -16 7746.46  407.95
  10  -4 -16 8252.10  394.82
 -10   4  15    3.35   18.53
  10   4 -15    5.27   23.06
  10   4 -15  -48.87   45.04
  10  -4 -15   17.62   20.89
 -10   4  14  523.42   57.40
  10   4 -14  640.34   36.75
  10   4 -14  636.88  179.12
  10  -4 -14  619.67   47.14
 -10   4  13   56.38   42.26
  10   4 -13   12.45   32.69
  10   4 -13   60.32   53.94
  10  -4 -13   21.75   19.94
 -10   4  1230448.84  776.65
  10   4 -1234185.89  833.73
  10   4 -1234527.92  878.74
  10  -4 -1236132.55  901.97
 -10   4  11  377.18  172.09
  10   4 -11  344.89  136.29
  10   4 -11  502.02  150.19
  10  -4 -11  450.16   40.59
 -10   4  1014277.36  446.98
  10   4 -1012570.83  390.51
  10   4 -1012415.17  401.41
  10  -4 -1012701.53  400.98
 -10   4   9  860.10  231.24
  10   4  -9  732.02  122.43
  10   4  -9  730.16   69.58
  10  -4  -9  665.87   61.01
 -10   4   8 3212.41  165.61
  10   4  -8 3414.43  173.42
  10   4  -8 3080.71  160.71
  10  -4  -8 3819.64  190.82
 -10   4   7 6487.30  243.67
  10   4  -7 7558.75  272.65
  10   4  -7 7762.98  288.03
  10  -4  -7 7114.11  256.48
 -10   4   6 4893.83  189.70
  10   4  -6 3570.98  220.88
  10   4  -6 4253.93  168.82
  10  -4  -6 3860.69  146.94
 -10   4   5   59.29   37.90
  10   4  -5  103.55   33.06
  10   4  -5  143.51   49.65
  10  -4  -5  128.37   39.07
 -10   4   4   54.09   25.12
  10   4  -4   97.71   41.34
  10   4  -4  174.26   81.07
  10  -4  -4   84.21   32.21
 -10   4   3 9406.62  335.78
  10   4  -3 9183.18  331.22
  10   4  -310202.71  364.33
  10  -4  -3 9925.78  354.09
 -10   4   2 7174.74  258.43
  10   4  -2 7697.90  284.98
  10   4  -2 7891.62  286.66
  10  -4  -2 7234.00  264.49
 -10   4   1 3445.99  213.17
  10   4  -1 3671.28   80.51
  10   4  -1 3631.15  219.44
  10  -4  -1 3391.70  211.87
 -10   4   0 1796.01  112.44
  10   4   0 1643.75  119.13
  10   4   0 1868.52  119.23
  10  -4   0 1608.82  110.28
 -10   4  -1  958.65   71.41
  10   4   1  962.16   74.23
 -10   4  -1 1333.68  132.21
  10   4   1 1019.90   75.83
  10   4   2   20.45   32.16
 -10   4  -2    1.39   25.86
  10   4   2   17.42   22.77
 -10   4  -3  153.54   43.31
  10   4   3  105.46   65.39
 -10   4  -3  122.48   48.03
  10   4   3  136.77   28.71
 -10  -4  -3   98.09   28.21
 -10   4  -4 4918.95  234.72
  10   4   4 4647.23  259.87
 -10   4  -4 4994.53  249.38
  10   4   4 4998.83  244.62
 -10  -4  -4 4750.20  225.80
 -10   4  -5  516.35  103.61
  10   4   5  447.73   69.63
 -10   4  -5  485.55  153.83
  10   4   5  444.87   31.36
 -10  -4  -5  404.34   48.86
 -10   4  -6 2924.52  185.87
  10   4   6 3410.75  210.28
 -10   4  -6 3408.61  209.84
  10   4   6 2952.16  173.51
 -10  -4  -6 3187.33  185.50
 -10   4  -7 3243.58  188.02
  10   4   7 3386.34  211.05
  10   4   7 2834.60  165.93
 -10   4  -7 3424.42  211.57
  10   4   7 3089.93  186.72
 -10   4  -8 5244.57  224.25
  10   4   8 5031.29  232.19
 -10   4  -8 4459.81  147.29
  10   4   8 4791.57  203.90
  10   4   8 4800.59  204.72
 -10   4  -9   25.01   14.67
  10   4   9   70.43   31.22
 -10   4  -9   36.21   34.57
  10   4   9   12.14   12.12
 -10   4 -10 5511.55  302.50
  10   4  10 5355.43  308.94
 -10   4 -10 6119.24  124.44
  10   4  10 5423.56  295.41
 -10   4 -1112588.65  592.54
  10   4  1112180.07  598.21
 -10   4 -1113356.51  641.70
  10   4  1112086.67  566.54
 -10   4 -12  505.17   50.08
  10   4  12  503.63  164.38
 -10   4 -12  601.91  215.01
 -10   4 -13   15.26   12.78
  10   4  13   21.84   36.03
 -10   4 -13   30.03   36.12
 -10   4 -14   15.06   21.32
  10   4  14   48.01   32.11
 -10   4 -14   43.11   30.92
 -10   4 -15 1124.57   36.63
 -10   4 -15  775.59   54.92
  10   4  16 2590.76  213.28
 -10   4 -16 2769.55  222.11
  10   4  17  830.68  161.48
 -10   4 -17 1053.79  133.12
  10   4  18   30.33   29.74
 -10   4 -18   67.65   50.82
  10   4  19 1126.55  176.42
 -10   4 -19 1049.67  108.59
  10   4  20 4651.96  270.24
 -10   4 -20 5399.98  303.35
 -10   4 -21    4.93   32.50
 -10   6  25 1754.82  119.87
  10   6 -25 1984.97  232.92
 -10   6  24  333.27   93.27
  10   6 -24  436.70  211.25
 -10   6  23 2452.73  149.52
  10   6 -23 1962.74  105.50
 -10   6  22   83.77   56.10
  10   6 -22  121.44   64.58
 -10   6  21 1714.21  141.33
  10   6 -21 1957.92  166.73
  10   6 -20 2365.77  211.18
 -10   6  19  235.27  112.05
  10   6 -19  135.76   73.69
  10  -6 -19  139.34   46.90
 -10   6  18  628.82  101.64
  10   6 -18  424.56  152.89
  10  -6 -18  499.79   88.31
 -10   6  17  110.47  100.27
  10   6 -17   16.19   19.26
  10   6 -17   45.17   52.66
  10  -6 -17   10.55   23.24
 -10   6  16 9157.77  531.18
  10   6 -16 9938.79  544.22
  10   6 -16 8495.15  479.44
  10  -6 -1610258.91  548.87
 -10   6  15   55.65   33.86
  10   6 -15   97.22   23.46
  10   6 -15   42.55   47.95
  10  -6 -15   97.43   28.64
 -10   6  14 1062.80   60.16
  10   6 -14 1245.13   50.31
  10   6 -14 1061.61  100.29
  10  -6 -14 1177.87   46.25
 -10   6  13 1538.07  105.63
  10   6 -13 2052.82  105.67
  10   6 -13 1850.74  132.47
  10  -6 -13 1751.29  117.00
 -10   6  12  236.41   96.99
  10   6 -12  180.41  105.18
  10   6 -12  292.33  102.28
  10  -6 -12  359.57   43.06
 -10   6  11  999.23  296.49
  10   6 -11  922.62   65.15
  10   6 -11 1196.25  181.68
  10  -6 -11 1074.25   65.60
 -10   6  1024306.00  896.09
  10   6 -1025595.21  938.25
  10   6 -1022455.25  835.82
  10  -6 -1024004.00  874.08
 -10   6   9 1112.24  108.66
  10   6  -9  909.16  327.38
  10   6  -9 1018.89  283.98
  10  -6  -9 1069.42   66.05
 -10   6   8 3555.24  257.13
  10   6  -8 3034.67  220.19
  10   6  -8 3270.97  240.60
  10  -6  -8 3766.92  265.44
 -10   6   7 5072.79  230.47
  10   6  -7 4680.95  227.88
  10   6  -7 4481.78  139.19
  10  -6  -7 4523.94  201.99
 -10   6   6 6608.63  293.95
  10   6  -6 6218.56  275.10
  10   6  -6 6079.78  277.28
  10  -6  -6 6280.48  273.04
 -10   6   5  311.22  120.53
  10   6  -5  227.99  140.35
  10   6  -5  180.80   78.60
  10  -6  -5  298.93   92.79
 -10   6   4 6386.18  117.49
  10   6  -4 5884.34  347.66
  10   6  -4 5912.98  348.54
  10  -6  -4 6777.29  191.86
 -10   6   3 1427.86  170.56
  10   6  -3 1818.99  147.71
  10   6  -3 1458.04  134.05
  10  -6  -3 1495.31  112.64
 -10   6   2 9973.90  269.33
  10   6  -2 8491.14  282.23
  10   6  -2 9160.33  325.35
  10  -6  -2 8613.68  258.15
 -10   6   1 5041.38  231.38
  10   6  -1 3803.72  273.03
 -10   6   1 4607.35  223.16
  10   6  -1 4329.15  304.79
 -10   6   0 3695.73  261.30
  10   6   0 3376.23  245.94
 -10   6   0 4100.51  300.97
  10   6   0 4128.23  292.14
 -10   6  -1 3176.30  232.59
  10   6   1 3230.37  237.47
 -10   6  -1 3221.28  295.95
  10   6   1 3359.53  247.69
 -10   6  -2 6326.97  276.37
  10   6   2 6157.33  283.12
 -10   6  -2 6038.36  273.13
 -10   6  -3 3419.36  253.44
  10   6   3 3510.02  286.21
 -10   6  -3 3120.47  228.46
  10   6   3 3443.91  259.85
 -10   6  -4  435.47   60.73
  10   6   4  545.13  123.28
 -10   6  -4  487.02  132.29
  10   6   4  335.32   47.41
 -10   6  -5  131.63   31.63
  10   6   5   64.41   53.79
 -10   6  -5  199.84   74.52
  10   6   5  136.35   58.44
 -10   6  -6 1921.50  123.33
  10   6   6 2261.17  185.15
 -10   6  -6 1516.51  177.95
  10   6   6 1961.38  124.41
 -10   6  -7   38.64   18.68
  10   6   7   15.88   27.09
 -10   6  -7   82.91   35.82
  10   6   7   43.81   29.90
 -10   6  -8 7752.37  312.36
  10   6   8 7585.78  319.91
 -10   6  -8 7743.22  320.06
  10   6   8 7376.02  284.07
 -10   6  -9  563.39   31.78
  10   6   9  429.78  160.39
 -10   6  -9  641.52  170.61
 -10   6 -10   12.44   21.81
  10   6  10   64.20   74.60
 -10   6 -10   69.85   33.18
 -10   6 -11 2670.26  192.19
  10   6  11 2650.54  215.35
 -10   6 -11 2814.41  219.12
 -10   6 -12  249.29   45.99
  10   6  12  199.42   93.29
 -10   6 -12  173.35   79.60
 -10   6 -13  526.04   53.64
  10   6  13  310.53   92.37
 -10   6 -13  471.36  164.41
  10   6  14 2366.26  203.04
 -10   6 -14 1673.07  149.96
  10   6  15 4830.36  389.23
 -10   6 -15 4292.44  343.35
 -10   6 -16   35.33   27.74
  10   6  17 2860.61  183.04
 -10   6 -17 2629.99  208.74
  10   6  18   38.07   39.13
 -10   6 -18   24.18   55.33
  10   6  19   47.65   84.30
  10   8 -22 2126.59  178.39
 -10   8  21   36.35   63.43
  10   8 -21   81.72   62.08
 -10   8  20  815.78  130.99
  10   8 -20  524.70  251.39
 -10   8  19  205.13  113.64
  10   8 -19  132.60  106.13
 -10   8  18  581.15  116.39
  10   8 -18  764.69  161.30
 -10   8  17   57.31   66.96
  10   8 -17   77.28   73.80
 -10   8  16  157.93   49.88
  10   8 -16   90.47   79.40
 -10   8  15 6925.50  415.80
  10   8 -15 7677.81  447.32
  10   8 -15 8668.43  520.43
  10  -8 -15 7441.94  429.18
 -10   8  14    1.67   52.92
  10   8 -14   47.53   23.75
  10   8 -14   40.18   49.15
  10  -8 -14   98.76   45.25
 -10   8  13 3790.72  222.53
  10   8 -13 3803.43  209.69
  10   8 -13 3391.34  256.24
  10  -8 -13 3469.68  185.34
 -10   8  12  352.95  130.72
  10   8 -12  412.44  120.10
  10   8 -12  357.95  144.85
  10  -8 -12  366.37   96.48
 -10   8  11  224.46  105.58
  10   8 -11  309.54  106.72
  10   8 -11  343.00  157.56
  10  -8 -11  270.85  114.46
 -10   8  10  497.60  124.03
  10   8 -10  433.74  162.99
  10   8 -10  441.92  232.12
  10  -8 -10  517.62  110.50
 -10   8   9  625.15  147.16
  10   8  -9  722.39  106.37
  10   8  -9  704.48   76.56
  10  -8  -9  638.08  110.59
 -10   8   8  866.80  222.13
  10   8  -8  835.72   64.84
  10   8  -8  969.29   85.68
  10  -8  -8  936.93   50.94
 -10   8   7 1382.08   86.03
  10   8  -7 1384.90   74.56
  10   8  -7 1199.58  129.89
  10  -8  -7 1545.21  127.45
 -10   8   6 1227.71   68.82
  10   8  -6 1065.58   70.30
  10   8  -6 1139.64   85.49
  10  -8  -6 1213.18   64.49
 -10   8   5   13.28   26.44
  10   8  -5   20.57   36.11
  10   8  -5  -30.29   44.54
  10  -8  -5   -5.63   36.42
 -10   8   4 7682.20  316.10
  10   8  -4 7710.97  398.08
  10   8  -4 8145.84  332.81
  10  -8  -4 7938.99  318.42
 -10   8   3  279.11   97.00
  10   8  -3   43.78   64.08
  10   8  -3   97.49   53.44
 -10   8   2  547.22   74.17
  10   8  -2  575.21   57.29
 -10   8   2  597.89   58.26
 -10   8   1  301.21  108.20
  10   8  -1  251.16  181.19
 -10   8   1  378.95  122.37
  10   8  -1  267.88   91.42
 -10   8   0 1658.83  134.77
  10   8   0 1409.14  197.36
 -10   8   0 1387.93  160.78
  10   8   0 1291.36  101.69
 -10   8  -1 1049.37   66.00
  10   8   1 1022.01  116.25
 -10   8  -1  960.82  108.23
  10   8   1 1144.63  137.66
 -10   8  -225451.20 1361.19
  10   8   227348.90  300.70
 -10   8  -224546.91 1308.11
  10   8   227289.97  226.16
 -10   8  -3 1375.22   58.01
  10   8   3 1825.35  173.36
 -10   8  -3 1456.67  166.45
  10   8   3 1422.29  117.54
 -10   8  -4  984.85   75.58
  10   8   4  802.80  232.03
 -10   8  -4  993.15  110.84
  10   8   4 1141.33   97.12
 -10   8  -5 3507.00  256.49
  10   8   5 3759.29  269.32
 -10   8  -5 4073.00  172.77
  10   8   5 3672.52   79.33
 -10   8  -6  490.25   41.81
  10   8   6  646.53  129.40
 -10   8  -6  415.86  133.54
 -10   8  -7  630.49   46.84
  10   8   7  640.61  159.33
 -10   8  -7  641.66  173.50
 -10   8  -8  661.70   37.21
  10   8   8  365.31  238.18
 -10   8  -8  603.30  183.87
 -10   8  -9  -11.24   19.41
  10   8   9  113.34   64.86
 -10   8  -9   41.29   36.88
 -10   8 -10  762.35   36.54
  10   8  10  612.79  206.62
 -10   8 -10  551.29  160.47
 -10   8 -11 1258.62  123.60
  10   8  11 1344.24  123.35
 -10   8 -11 1439.29  273.27
  10   8  1215335.50 1184.50
 -10   8 -1215739.19  253.59
  10   8  13 2900.75  195.75
 -10   8 -13 3280.49  203.55
  10   8  14  240.28  103.54
 -10   8 -14  373.43  170.87
  10   8  15   62.75   43.79
 -10   8 -15   42.61   38.13
  10   8  16 3740.26  245.67
 -10   8 -16 3901.84  240.45
  10  10 -16  786.07  188.55
 -10  10  15  342.19  198.70
  10  10 -15  511.82  180.18
 -10  10  14 1822.41  136.12
  10  10 -14 2038.47  149.90
 -10  10  13 1931.57  100.31
  10  10 -13 1626.19   76.42
  10  10 -13 1650.84  121.53
 -10  10  12    7.68   38.54
  10  10 -12   58.83   67.72
  10  10 -12  -62.69   68.23
 -10  10  11 5324.95  320.88
  10  10 -11 5763.56  321.16
  10  10 -11 5332.61  312.35
  10 -10 -11 5077.66  274.62
 -10  10  10  348.07  175.97
  10  10 -10  241.34  163.03
  10  10 -10  376.00  143.03
  10 -10 -10  215.72   65.63
 -10  10   9   38.48   64.08
  10  10  -9   95.18  137.02
  10  10  -9  126.03  104.66
  10 -10  -9  129.27   54.36
 -10  10   8 3555.31  275.65
  10  10  -8 3177.72  248.00
  10  10  -8 3566.28  281.42
  10 -10  -8 3573.23  265.34
 -10  10   7 1206.66  211.45
  10  10  -7 1030.49  118.56
  10  10  -7 1086.62  226.17
  10 -10  -7 1220.47  149.97
 -10  10   6   38.30   34.86
  10  10  -6   34.21   38.54
  10 -10  -6    2.31   46.39
 -10  10   5   37.34   47.30
  10  10  -5   24.04   21.68
  10  10  -5   50.80   60.85
  10 -10  -5   20.05   27.06
 -10  10   4   33.02   41.42
  10  10  -4  110.17   82.99
  10  10  -4   51.53   46.22
  10 -10  -4   47.75   39.81
 -10  10   3  663.78   54.05
  10  10  -3  688.78   68.09
 -10  10   3  680.63  107.80
  10  10  -3  701.73  124.91
 -10  10   2 3063.89  251.25
  10  10  -2 3763.85  310.88
 -10  10   2 3392.53  278.85
  10  10  -2 3493.28  285.42
 -10  10   1 1076.92  122.77
  10  10  -1  803.82  141.02
 -10  10   1  730.13  192.34
  10  10  -1  990.22  145.07
 -10  10   0 1460.07  169.82
  10  10   0 1392.66  221.41
 -10  10   0 1497.94  185.92
  10  10   0 1285.26  159.11
 -10  10  -1 4200.32  333.62
  10  10   1 4140.79  340.01
 -10  10  -1 3407.31  323.30
  10  10   1 3627.98  290.17
 -10  10  -2  113.89   63.68
  10  10   2  121.41   89.12
 -10  10  -2  140.81   65.43
 -10  10  -3 2438.13  191.13
  10  10   3 2102.22  185.01
 -10  10  -3 2044.38  167.32
 -10  10  -4 2000.39  155.28
  10  10   4 2103.90  178.39
 -10  10  -4 2275.66  205.93
 -10  10  -5 9076.03  476.56
  10  10   5 8981.50  497.11
 -10  10  -5 8648.16  471.40
 -10  10  -6 3664.88  223.80
  10  10   6 3128.54  210.55
 -10  10  -6 3307.70  206.15
 -10  10  -7  226.84   79.47
 -10  10  -7  118.41   82.33
 -10  10  -8 1055.27  105.10
  10  10   8  590.79  324.59
 -10  10  -8  735.28  277.60
 -10  10  -9 4999.34  333.24
  10  10   9 5317.07  375.36
 -10  10  -9 5811.24  395.82
  10  10  10 1277.59  126.77
 -10  10 -10 1487.82  127.42
  10  10  11   50.69   88.48
 -10  10 -11  182.75  109.81
  11   1 -28  306.01  173.19
  11   1 -27  514.96   89.69
  11  -1 -27  428.95  125.11
  11   1 -26 2339.67  147.99
  11  -1 -26 2387.55  147.61
  11   1 -25  659.69  133.61
  11  -1 -25  837.96   54.81
  11   1 -24 2039.24  199.31
  11  -1 -24 2091.61   77.85
  11   1 -23   48.00   43.39
  11  -1 -23    5.06   17.83
 -11   1  22  182.84   68.99
  11   1 -22  193.05   96.10
  11  -1 -22  200.75   59.57
 -11   1  21 3601.10  266.06
  11   1 -21 3063.67  306.26
  11  -1 -21 4028.29  305.15
  11   1 -20   59.51   31.49
 -11   1  20   35.41   11.94
 -11  -1  20   46.92   26.60
  11  -1 -20    9.00   40.00
  11   1 -19 3175.64  229.93
 -11   1  19 3415.54   50.83
 -11  -1  19 3027.70  200.44
  11  -1 -19 3364.66   87.46
  11   1 -18  360.39  151.30
 -11   1  18  318.35   57.24
 -11  -1  18  403.82   42.94
  11  -1 -18  426.90   97.99
  11   1 -1710967.16  421.66
 -11  -1  1711261.83  411.70
  11  -1 -1710615.58  402.71
  11   1 -16 8272.36  371.07
 -11   1  16 8376.19  369.59
 -11  -1  16 7984.42  331.96
  11  -1 -1610371.05  441.41
 -11   1  15  950.31   91.48
  11   1 -15  573.27   59.99
  11  -1 -15  670.52   66.43
  11   1 -14 6880.06  238.80
 -11   1  14 7223.87  197.97
 -11  -1  14 7004.25  178.83
  11  -1 -14 6526.27  118.62
  11   1 -1317365.73  541.37
 -11   1  1316969.13  515.67
 -11  -1  1316672.97  502.08
  11  -1 -1316995.54  526.86
  11   1 -12 2370.44  129.63
 -11   1  12 2527.47  124.34
 -11  -1  12 2476.58  129.81
  11  -1 -12 2288.47  135.22
  11   1 -11 1373.67  120.66
 -11   1  11 1246.77   80.46
 -11  -1  11 1274.76   81.27
  11  -1 -11 1062.29   83.73
  11   1 -10 6704.84  249.66
 -11   1  10 5881.35  216.06
 -11  -1  10 6488.81  228.70
  11  -1 -10 6570.81  240.59
  11   1  -9  649.44   49.14
 -11   1   9  852.93   58.07
 -11  -1   9  830.93   56.72
  11  -1  -9  597.82   50.47
  11   1  -811769.00  306.53
 -11   1   812887.44  319.05
 -11  -1   812451.37  307.22
  11  -1  -813157.37  364.06
  11   1  -7 1341.46   80.63
 -11   1   7 1728.01   88.67
 -11  -1   7 1342.01   71.32
  11  -1  -7 1450.42   84.79
  11   1  -6   69.99   30.37
 -11   1   6  122.01   45.96
 -11  -1   6  143.25   44.18
  11  -1  -6  132.51   36.68
  11   1  -5 2043.88  116.59
 -11   1   5 2070.53  104.23
 -11  -1   5 2094.67  105.84
  11  -1  -5 2139.80  112.79
  11   1  -4 3057.42  154.37
 -11   1   4 2417.45  132.72
 -11  -1   4 2283.86  115.69
  11  -1  -4 2412.16  132.15
  11   1  -3  287.54  101.71
 -11   1   3  225.14   22.01
 -11  -1   3  231.03   60.12
  11  -1  -3  296.85   74.17
  11   1  -2   30.28   20.76
 -11   1   2   12.87   16.24
 -11  -1   2   56.89   28.47
  11  -1  -2    6.78   18.39
  11   1  -1 2775.80  139.42
 -11   1   1 2389.74  117.92
 -11  -1   1 2677.43  133.74
  11  -1  -1 2310.62  144.74
  11   1   0  674.47   30.09
 -11   1   0  737.96   43.08
 -11  -1   0  670.99   29.02
  11  -1   0  631.70   37.94
  11   1   1  800.74   53.36
 -11   1  -1  866.30   50.18
 -11  -1  -1  856.15   51.66
  11  -1   1  833.59   54.97
  11   1   2  367.83   72.96
 -11   1  -2  319.70   18.68
 -11  -1  -2  284.73   39.39
  11  -1   2  288.53   29.85
  11   1   3 7566.44  271.89
 -11   1  -3 8556.72  304.24
 -11  -1  -3 8178.14  290.84
  11  -1   3 7689.43  278.74
  11   1   4 4424.50  163.68
 -11   1  -4 4141.11  150.25
 -11  -1  -4 4520.85  168.55
  11  -1   4 4401.41  176.15
  11   1   5 3801.03  161.99
 -11   1  -5 3826.07  140.26
 -11  -1  -5 3376.16  203.53
  11  -1   5 3827.70  147.25
  11   1   6 6629.26  211.48
 -11   1  -6 6853.43  216.61
 -11  -1  -6 6072.05  199.01
  11  -1   6 6510.79  221.73
  11   1   7 8313.21  267.27
 -11   1  -7 8234.89  269.50
 -11  -1  -7 7302.61  267.03
  11  -1   7 9596.88  305.41
 -11   1  -8 2056.64  143.22
  11   1   8 2321.97  147.11
  11   1   8 2311.73  151.74
  11  -1   8 2524.28  156.52
 -11   1  -9  151.47   32.61
  11   1   9   48.73   32.02
  11   1   9   70.98   37.97
  11  -1   9   39.15   42.23
 -11   1 -10 5653.38  242.99
  11   1  10 5692.37  252.39
  11  -1  10 4996.45  221.68
 -11   1 -1113464.33  497.75
  11   1  1113020.75  498.40
  11   1  1113191.01  486.61
  11  -1  1112605.66  470.63
 -11   1 -12 8110.28  388.01
  11   1  12 8676.19  430.94
  11   1  12 8467.69  409.29
  11  -1  12 7962.04  399.22
  11   1  13  291.43   39.13
  11   1  13  219.87   54.47
  11  -1  13  335.76   37.17
  11   1  14 4061.96  311.96
  11   1  14 5255.90  286.28
  11  -1  14 5056.10  278.46
  11  -1  14 5261.06  291.90
  11   1  15  322.00   76.63
  11   1  15  355.95   47.85
  11  -1  15  283.47   93.44
  11  -1  15  391.61  123.98
  11   1  16 1091.93  163.92
  11   1  16 1394.83  114.86
  11  -1  16 1042.24   44.71
  11  -1  16 1472.79  125.70
  11   1  17 2487.97  197.03
  11  -1  17 2594.60  212.83
  11   1  18 2020.44  204.91
  11  -1  18 2459.58  199.82
  11  -1  19  295.76   77.40
  11   3 -27 1426.90  166.20
  11   3 -26  342.20  189.33
  11   3 -25 1062.39  157.00
  11   3 -24  242.53  187.14
  11  -3 -24  489.13   91.57
 -11   3  23  983.16   94.43
  11   3 -23  922.96  206.27
  11  -3 -23 1004.18  133.62
 -11   3  22 2761.58  212.67
  11   3 -22 3223.43  209.84
  11  -3 -22 2791.50  217.99
 -11   3  21   22.38   30.20
  11   3 -21   19.51   33.94
  11  -3 -21   20.10   18.01
 -11   3  20   -1.19   26.92
  11   3 -20   16.25   11.34
  11   3 -20    0.66   37.66
  11  -3 -20   27.91   34.31
 -11   3  19 5267.63  288.66
  11   3 -19 5524.16  297.93
  11   3 -19 5408.08  324.72
  11  -3 -19 5210.73  302.61
  11   3 -18 3699.97  152.25
  11   3 -18 3287.27   98.13
  11  -3 -18 3548.52  176.25
 -11   3  17  102.49   31.54
  11   3 -17   85.64   31.04
  11   3 -17   52.05   71.64
  11  -3 -17   83.89   28.15
  11   3 -16 4825.87  281.96
 -11   3  16 4542.18  256.64
 -11  -3  16 5002.66  280.77
  11  -3 -16 5175.46  289.94
  11   3 -15 3487.06  211.34
 -11   3  15 4180.08  234.85
 -11  -3  15 3264.81  183.76
  11  -3 -15 4050.21  254.02
 -11   3  14 8103.37  452.43
  11   3 -14 9242.49  405.28
  11  -3 -14 7611.15  326.33
 -11   3  1328189.80  695.74
  11   3 -1328658.20  737.08
  11  -3 -1327742.13  690.85
  11   3 -1212912.44  348.96
 -11   3  1210956.58  353.99
 -11  -3  1211814.17  308.93
  11  -3 -1211649.11  302.29
  11   3 -1123398.12  722.10
 -11   3  1120842.50  633.18
 -11  -3  1124279.46  764.83
  11  -3 -1125025.00  768.56
  11   3 -10 1687.64  168.59
 -11   3  10 1782.24  123.25
 -11  -3  10 1840.58  131.41
  11  -3 -10 1560.16  115.83
  11   3  -9 1380.11  125.25
 -11   3   9 1275.21  142.68
 -11  -3   9 1228.83  121.08
  11  -3  -9 1196.24   85.21
  11   3  -8 5083.02  201.80
 -11   3   8 4935.32  193.58
 -11  -3   8 5253.96  216.77
  11  -3  -8 5673.84  208.32
  11   3  -7 1519.82  103.98
 -11   3   7 1540.10  108.16
 -11  -3   7 1809.56  116.59
  11  -3  -7 1776.22  114.72
  11   3  -6 1640.33  125.44
 -11   3   6 1792.57  114.11
 -11  -3   6 1767.35  118.67
  11  -3  -6 1488.60   98.91
  11   3  -5 3861.22  161.56
 -11   3   5 4432.38  165.49
 -11  -3   5 3865.50  173.22
  11  -3  -5 3903.61  150.98
  11   3  -4 5683.27  211.52
 -11   3   4 6138.48  223.05
 -11  -3   4 5996.83  220.42
  11  -3  -4 5762.73  214.79
  11   3  -3 4851.72  186.85
 -11   3   3 5266.31  193.67
 -11  -3   3 5261.83  197.17
  11  -3  -3 5043.27  193.53
 -11   3   2 1183.54   82.15
  11   3  -2 1202.62   84.35
  11  -3  -2 1095.64   79.93
 -11   3   118546.81  638.80
  11   3  -117814.36  621.80
 -11   3   0  571.64   39.39
  11   3   0  450.01  118.27
  11   3   0  510.48   67.13
  11  -3   0  632.77   48.69
 -11   3  -1 3550.51  210.25
  11   3   1 3784.18  186.54
  11   3   1 3658.35   71.40
  11  -3   1 3592.62  218.10
 -11   3  -2  636.48   78.92
  11   3   2  666.03   47.00
  11   3   2  742.12   79.71
  11  -3   2  489.04   41.79
 -11   3  -3  487.32   38.54
  11   3   3  530.45   54.61
  11   3   3  372.28   77.87
  11  -3   3  507.32  164.28
 -11   3  -4 4268.12  211.04
  11   3   4 4260.37  226.28
  11   3   4 4281.61  210.31
  11  -3   4 4212.14  211.23
 -11   3  -5 1606.87  105.57
  11   3   5 1527.65  113.18
 -11   3  -5 1433.34  154.76
  11   3   5 1586.13  106.40
 -11   3  -6   40.21   19.97
  11   3   6   43.03   38.12
 -11   3  -6   88.33   52.88
  11   3   6  103.45   30.65
 -11   3  -7 3328.84  193.65
  11   3   7 3155.42  225.37
 -11   3  -7 3343.81  217.37
  11   3   7 3025.70  177.80
 -11   3  -8 1717.36  122.39
  11   3   8 1448.18   65.44
 -11   3  -8 1649.85  129.26
  11   3   8 1699.53  139.46
 -11   3  -914892.01  541.74
  11   3   916568.05  619.36
 -11   3  -917351.30  645.48
  11   3   915169.10  553.45
 -11   3 -10  487.92   53.62
  11   3  10  561.91   80.92
 -11   3 -10  458.96  170.47
  11   3  10  488.44   50.93
 -11   3 -11 6831.26  325.36
  11   3  11 6746.71  335.66
 -11   3 -11 6852.51  338.98
  11   3  11 5754.46   68.24
 -11   3 -12   45.93   51.21
  11   3  12   61.30   27.81
 -11   3 -12   -0.39   38.17
  11   3  12   54.49   15.02
 -11   3 -13  541.35   28.31
  11   3  13  366.40  139.72
 -11   3 -13  410.54  139.23
  11   3  13  391.16   22.97
 -11   3 -14  291.79   48.92
 -11   3 -14  226.54   84.66
 -11   3 -15  247.67  100.20
  11   3  15  343.66  102.29
 -11   3 -15  300.31  100.25
  11   3  16  239.67  131.61
 -11   3 -16  317.77  124.18
  11   3  17  180.41  121.65
 -11   3 -17  233.13   59.74
  11   3  18  177.21   85.76
 -11   3 -18  304.08  108.41
  11   3  19 2302.73   88.60
 -11   3 -19 2324.66  144.37
 -11   3 -20  178.16   69.18
 -11   3 -21    7.10   27.34
  11   5 -26   52.60   58.28
  11   5 -25  521.48  146.10
 -11   5  24  595.56  134.19
  11   5 -24 1196.40   86.59
 -11   5  23   17.25   11.84
  11   5 -23   41.10   70.22
 -11   5  22   91.70   57.56
  11   5 -22   90.09   30.46
 -11   5  21  408.77  163.37
  11   5 -21  296.04  114.41
  11  -5 -21  593.24  120.74
 -11   5  20  406.65  103.35
  11   5 -20  314.62  121.53
  11  -5 -20  406.51   96.00
 -11   5  19   49.36   20.37
  11   5 -19   11.31   47.80
  11  -5 -19   46.33   45.73
 -11   5  18 1763.04  159.03
  11   5 -18 1541.08  128.47
  11   5 -18 2059.32  166.29
  11  -5 -18 1852.05  139.61
 -11   5  17  155.18   50.03
  11   5 -17   63.13   56.15
  11   5 -17  109.70  104.18
  11  -5 -17   73.19   18.55
 -11   5  16 3737.19  165.57
  11   5 -16 4239.76  180.29
  11   5 -16 4171.79  224.47
  11  -5 -16 4005.82  177.64
 -11   5  15 4061.26  185.15
  11   5 -15 4485.58  185.29
  11   5 -15 4735.15  219.77
  11  -5 -15 4865.74  200.11
 -11   5  14 6898.92  339.54
  11   5 -14 7655.09  368.61
  11   5 -14 8113.20  406.08
  11  -5 -14 8115.19  401.86
 -11   5  13 8414.36  326.23
  11   5 -13 9296.10  354.02
  11   5 -13 9658.47  385.11
  11  -5 -1310160.90  381.79
 -11   5  12 6009.56  342.63
  11   5 -12 6102.67  136.01
  11   5 -12 5593.15  377.40
  11  -5 -12 6078.26  129.28
 -11   5  11 4864.23  219.87
  11   5 -11 5006.80  228.90
  11   5 -11 5094.33  249.23
  11  -5 -11 5111.17  223.22
 -11   5  10  594.47  182.95
  11   5 -10  690.07   46.36
  11   5 -10  808.74  106.75
  11  -5 -10  670.84   38.38
 -11   5   9 1028.52   88.19
  11   5  -9  885.62   52.31
  11   5  -9  849.48   62.85
  11  -5  -9  949.82   86.76
 -11   5   8 9492.76  263.84
  11   5  -8 9399.17  264.36
  11   5  -8 8449.23  245.37
  11  -5  -8 8794.57  262.57
 -11   5   717680.83  478.92
  11   5  -718662.97  487.43
  11   5  -718787.49  495.00
  11  -5  -718857.64  483.42
 -11   5   6  625.99  110.93
  11   5  -6  299.37  117.33
  11   5  -6  469.29  160.64
  11  -5  -6  452.53  132.97
 -11   5   5 2263.38  155.71
  11   5  -5 2259.99  156.44
  11   5  -5 2172.87  147.61
  11  -5  -5 1908.68  138.39
 -11   5   4 1589.58  119.04
  11   5  -4 2212.15  145.01
  11   5  -4 1817.59  134.17
  11  -5  -4 2258.67  143.22
 -11   5   3 4394.31  260.18
  11   5  -3 3962.35  241.50
  11   5  -3 3708.90  237.06
  11  -5  -3 4214.23  252.21
 -11   5   2  649.90  128.29
  11   5  -2  691.77  111.08
  11   5  -2  603.23   58.69
  11  -5  -2  691.53   66.71
 -11   5   1 1983.43  183.00
  11   5  -1 2196.60  146.35
  11   5  -1 2035.81  147.05
  11  -5  -1 2291.46  145.58
 -11   5   0  627.10   57.19
  11   5   0  698.58   73.51
  11   5   0  597.68   69.76
  11  -5   0  670.72   94.81
 -11   5  -1 1025.65   81.48
  11   5   1 1019.22  146.73
 -11   5  -1 1097.85  107.68
  11   5   1  964.40  104.64
 -11   5  -2 2069.92  151.74
  11   5   2 2388.65  160.03
 -11   5  -2 2112.19  155.87
  11   5   2 2392.03  212.57
 -11   5  -3 2077.72  149.41
  11   5   3 2205.34  174.35
 -11   5  -3 2026.12  159.42
 -11   5  -4 2426.60  172.26
  11   5   4 2883.40  215.99
 -11   5  -4 2355.19  179.13
  11   5   4 2167.27  156.22
 -11   5  -5 4894.95  270.97
  11   5   5 4357.47  254.19
 -11   5  -5 4622.63  267.78
  11   5   5 4499.80  251.15
 -11   5  -6 9021.15  342.01
  11   5   6 9664.56  378.50
 -11   5  -6 8976.76  352.26
  11   5   6 9544.66  355.51
 -11   5  -7  700.88   42.71
  11   5   7  750.40  185.12
 -11   5  -7  905.93  196.42
  11   5   7  757.58   98.07
 -11   5  -8  299.94   22.37
  11   5   8  225.39  159.67
 -11   5  -8  307.35  127.49
  11   5   8  271.81   48.41
 -11   5  -9 1839.43  128.52
  11   5   9 1614.10  184.19
 -11   5  -9 1565.84  169.51
  11   5   9 1870.55  129.32
 -11   5 -10 2651.69  183.94
  11   5  10 2529.42  192.01
 -11   5 -10 2739.12  205.87
 -11   5 -11 6207.11  332.27
  11   5  11 7003.77  396.35
 -11   5 -11 6722.49  379.75
 -11   5 -12 1594.11  116.74
  11   5  12 1773.93  236.51
 -11   5 -12 1331.77   65.95
 -11   5 -13  200.78   50.17
  11   5  13  242.50  121.51
 -11   5 -13  195.96   74.44
 -11   5 -14   36.47   26.02
  11   5  14   -7.45   36.87
 -11   5 -14   41.94   12.67
 -11   5 -15  126.83   43.84
  11   5  16   18.47   26.31
 -11   5 -16  -37.05   37.43
  11   5  17 1270.96  115.90
 -11   5 -17 1623.56  139.87
  11   5  18  300.08  116.39
 -11   5 -18  418.26  161.85
  11   5  19 7852.83  545.47
 -11   5 -19 8461.20  577.07
 -11   7  23  744.55  139.37
  11   7 -23  752.79  184.52
 -11   7  22   56.86   50.96
  11   7 -22   59.21   76.08
 -11   7  21  566.61   82.24
  11   7 -21  635.46  182.54
 -11   7  20  107.15   36.74
  11   7 -20  188.31  125.21
 -11   7  19  396.25  145.49
  11   7 -19  585.04  137.47
 -11   7  18  171.49   76.18
  11   7 -18  141.86   72.58
 -11   7  17 3945.14  265.95
  11   7 -17 3289.38  300.58
  11  -7 -17 3731.53  232.57
 -11   7  16  -49.20   37.40
  11   7 -16   24.77   21.92
  11   7 -16   20.82   61.77
  11  -7 -16    5.92   13.50
 -11   7  15 4519.72  260.27
  11   7 -15 4730.15  259.21
  11   7 -15 4402.55  301.43
  11  -7 -15 5169.87  268.00
 -11   7  14  178.27   87.15
  11   7 -14  230.17   94.20
  11   7 -14  377.12  143.13
  11  -7 -14  221.63   83.43
 -11   7  13  292.08   94.77
  11   7 -13   76.36   33.86
  11   7 -13  185.82   79.88
  11  -7 -13  225.02   90.46
 -11   7  12 1068.42   74.06
  11   7 -12 1247.83   61.67
  11   7 -12 1246.57   82.52
  11  -7 -12 1233.37   56.79
 -11   7  11 7207.44  401.27
  11   7 -11 7710.45  426.96
  11   7 -11 7654.30  432.49
  11  -7 -11 7518.25  418.53
 -11   7  10 2011.78  163.78
  11   7 -10 2015.79  151.52
  11   7 -10 1842.74  150.16
  11  -7 -10 1973.61  194.46
 -11   7   9  -24.46   46.18
  11   7  -9  -25.76   37.79
  11   7  -9   20.98   25.25
  11  -7  -9   41.16   26.24
 -11   7   8 1169.83  192.35
  11   7  -8 1361.89  107.43
  11   7  -8 1329.85  177.07
  11  -7  -8 1214.64   90.78
 -11   7   7   82.55   55.38
  11   7  -7   41.33   33.46
  11   7  -7   88.18   64.31
  11  -7  -7   44.00   28.28
 -11   7   6   46.53   28.63
  11   7  -6   36.55   57.44
  11   7  -6   73.01   48.77
  11  -7  -6   67.03   55.83
 -11   7   5 5478.73  367.38
  11   7  -5 4962.97  368.93
  11   7  -5 5558.56  372.21
  11  -7  -5 6322.17  313.59
 -11   7   4  450.69  116.87
  11   7  -4  483.69   53.53
  11   7  -4  328.82  125.96
  11  -7  -4  507.24   41.01
 -11   7   3 3366.11  231.28
  11   7  -3 3096.12  222.17
  11   7  -3 3847.03  262.40
  11  -7  -3 3320.37  229.13
  11   7  -2 1120.40   84.02
  11  -7  -2 1186.20   91.97
 -11   7   112817.34  670.59
  11   7  -113131.55  670.05
 -11   7   114969.35  757.71
 -11   7   0  510.96   43.97
  11   7   0  455.50  126.88
 -11   7   0  435.18   85.93
  11   7   0  356.39  134.98
 -11   7  -1 5455.27  362.05
  11   7   1 5523.63  376.85
 -11   7  -1 4783.72  324.24
  11   7   1 4852.72  322.86
 -11   7  -2 6135.97  302.48
  11   7   2 5523.05  243.39
 -11   7  -2 5932.50  281.26
  11   7   2 5532.75  225.73
 -11   7  -3 7772.95  307.51
  11   7   3 7242.99  323.00
 -11   7  -3 8542.59  349.47
  11   7   3 7804.90  313.70
 -11   7  -4  935.58   67.88
  11   7   4  911.33  243.57
 -11   7  -4  997.67  223.33
  11   7   4  856.15   98.20
 -11   7  -5 1151.11   44.57
  11   7   5 1168.25  104.55
 -11   7  -5 1445.66  186.86
  11   7   5 1259.54   46.86
 -11   7  -6   64.22   39.36
  11   7   6   99.96   63.93
 -11   7  -6   63.11   33.11
  11   7   6   34.86   39.61
 -11   7  -7 7156.38  245.62
  11   7   7 7002.54  273.32
 -11   7  -7 7737.85  291.54
 -11   7  -8  839.87   53.03
  11   7   8  904.21  193.53
 -11   7  -8  809.91  259.76
 -11   7  -9 3232.51  192.88
  11   7   9 3600.14  221.68
 -11   7  -9 3753.85  215.74
 -11   7 -10   21.10   31.67
  11   7  10   20.26   49.82
 -11   7 -10  -49.64   51.32
 -11   7 -11  752.47   34.35
  11   7  11  560.81  169.24
 -11   7 -11  692.49   57.38
 -11   7 -12    8.52   11.83
  11   7  12  -10.64   45.88
 -11   7 -12   -6.08   46.00
  11   7  13 5803.05  438.83
 -11   7 -13 6359.79  469.14
  11   7  14  478.50  158.79
 -11   7 -14  402.07  127.46
  11   7  15   17.26   30.67
 -11   7 -15  -13.07   50.64
 -11   7 -16   98.27   96.85
  11   7  17  120.33  103.35
 -11   7 -17  121.81   54.23
 -11   9  19  329.99  215.48
  11   9 -19  245.88  245.61
 -11   9  18   39.43   50.21
  11   9 -18   49.53   68.86
 -11   9  17  333.68  119.22
  11   9 -17  240.43  193.26
 -11   9  16 1268.27   89.48
  11   9 -16 1444.38   90.34
 -11   9  15   57.32   34.04
  11   9 -15    3.92   66.76
 -11   9  14 2933.38  323.56
  11   9 -14 2326.96  182.31
  11   9 -14 2390.88  297.97
  11  -9 -14 2539.83  189.71
 -11   9  13  108.84   76.46
  11   9 -13  107.55   40.80
  11   9 -13  106.89   65.81
  11  -9 -13  146.51   80.80
 -11   9  12 4061.90  334.19
  11   9 -12 2986.35  244.38
  11   9 -12 3802.59  368.07
  11  -9 -12 3569.52  280.38
 -11   9  11 4603.30  370.24
  11   9 -11 5672.45  447.24
  11   9 -11 5491.32  440.05
  11  -9 -11 4636.89  361.18
 -11   9  10   54.36   41.17
  11   9 -10   43.89   24.91
  11   9 -10   65.45   39.11
  11  -9 -10    9.72   26.67
 -11   9   9  207.55   92.32
  11   9  -9  182.89   75.69
  11   9  -9  240.97  103.50
  11  -9  -9  169.37   64.51
 -11   9   8   66.07   49.60
  11   9  -8   71.69   58.56
  11   9  -8   17.44   34.04
  11  -9  -8   -6.76   28.55
 -11   9   7 2616.18  217.18
  11   9  -7 2175.16  202.21
  11   9  -7 1725.42  151.19
  11  -9  -7 2043.68  191.61
 -11   9   6  719.02  236.72
  11   9  -6  759.84  152.95
  11   9  -6  912.87  284.11
  11  -9  -6  749.98   47.26
 -11   9   5   30.35   68.18
  11   9  -5   18.99   22.21
  11   9  -5   17.34   22.27
  11  -9  -5   16.31   40.11
 -11   9   4 6826.70  364.43
  11   9  -4 8052.92  430.19
  11  -9  -4 6867.69  362.07
 -11   9   3 1468.86  138.19
  11   9  -3 1236.69  236.43
  11   9  -3 1208.37   73.38
  11  -9  -3 1314.07  119.16
 -11   9   2  230.36  104.88
  11   9  -2   87.88   78.90
 -11   9   2  284.96  100.92
  11   9  -2  275.63  129.29
 -11   9   1  628.28   48.21
  11   9  -1  596.02  241.13
 -11   9   1  624.17  109.82
  11   9  -1  538.72  203.98
 -11   9   0   83.43   39.74
  11   9   0   34.07   63.81
 -11   9   0   71.38   55.79
  11   9   0   80.05   38.41
 -11   9  -1 3892.84  239.06
  11   9   1 3547.42  233.42
 -11   9  -1 3808.44  256.41
  11   9   1 3600.97  269.74
 -11   9  -2 2814.17  223.41
  11   9   2 2647.03  224.67
 -11   9  -2 3157.24  207.61
  11   9   2 2631.92  209.79
 -11   9  -3  171.51   63.54
  11   9   3  131.61   66.83
 -11   9  -3  148.83   72.55
 -11   9  -4 1450.81  142.13
  11   9   4 1383.37  265.49
 -11   9  -4 1539.68  264.93
 -11   9  -5  478.54   96.98
  11   9   5  640.42  260.69
 -11   9  -5  539.71  184.74
 -11   9  -6 4035.79  316.18
  11   9   6 4494.19  369.06
 -11   9  -6 3932.35  322.74
 -11   9  -7   49.37   33.84
  11   9   7   16.51   49.45
 -11   9  -7  -36.62   67.00
 -11   9  -8 3361.23  184.22
  11   9   8 3417.31  220.19
 -11   9  -8 3622.61  249.15
 -11   9  -9   18.53   24.42
  11   9   9   43.16   36.35
 -11   9  -9   57.16   41.01
 -11   9 -10 5126.46  281.62
  11   9  10 4690.25  281.77
 -11   9 -10 5047.91  294.08
  11   9  11  152.71  127.37
 -11   9 -11  248.74   96.76
  11   9  12 2628.88  207.27
 -11   9 -12 2648.44  272.60
  11   9  13   95.03   60.78
 -11   9 -13   37.62   37.19
 -11  11  11  406.71  194.70
  11  11 -11  310.73  210.44
 -11  11  10 2027.33  137.60
  11  11 -10 1781.17  127.41
  11  11 -10 2165.23  160.43
 -11  11   9   31.66   53.39
  11  11  -9   14.94   38.51
  11 -11  -9   19.49   44.58
 -11  11   8   17.41   41.04
  11  11  -8   34.99   34.66
  11  11  -8   27.86   42.22
  11 -11  -8   34.22   33.16
 -11  11   7  212.67   86.01
  11  11  -7  209.41   67.96
  11  11  -7  293.76  137.26
  11 -11  -7  135.37  118.73
 -11  11   6 1045.58  153.51
  11  11  -6 1368.65  138.17
  11  11  -6 1199.72  128.15
  11 -11  -6 1235.41  159.47
 -11  11   5 2578.63  169.22
  11  11  -5 2236.49  168.13
  11  11  -5 2622.06  168.36
  11 -11  -5 2822.77  172.42
 -11  11   4 1942.57   87.11
  11  11  -4 1934.13  140.20
  11  11  -4 2000.25   96.77
  11 -11  -4 2160.72  139.47
 -11  11   3 4786.44  277.20
  11  11  -3 4766.05  287.56
  11  11  -3 4574.07  268.16
  11 -11  -3 4897.47  276.18
 -11  11   2  366.68  128.60
  11  11  -2  356.89  240.92
  11  11  -2  224.85  149.85
  11 -11  -2  292.86  131.92
 -11  11   1 2653.58  174.18
  11  11  -1 2553.03  176.28
 -11  11   1 1869.80  176.91
 -11  11   0  179.63  107.41
  11  11   0   71.37   73.34
 -11  11   0  154.39   90.60
 -11  11  -1  514.59  236.56
  11  11   1  510.69  228.37
 -11  11  -1  542.67  183.01
 -11  11  -2 1824.04  155.78
  11  11   2 1730.57  162.67
 -11  11  -2 1730.21  197.59
  11  11   3   97.61   76.20
 -11  11  -3  209.92   74.03
 -11  11  -4 1364.99  107.60
  11  11   4 1589.30  144.55
 -11  11  -4 1442.29  130.39
 -11  11  -5  100.38   56.70
  11  11   5  127.48  102.28
 -11  11  -5   74.88   77.28
  12   0 -28  536.24  117.43
  12   0 -27   30.83   36.33
  12   0 -26   75.50   38.23
  12   0 -25   10.11   28.89
  12   0 -24   61.56   45.14
  12   0 -23    5.54   30.56
  12   0 -22 1354.21  125.39
 -12   0  21   10.64   11.72
  12   0 -21   22.02   39.31
 -12   0  20 5641.04  304.15
  12   0 -20 5995.88  337.08
 -12   0  19  -10.50   15.03
  12   0 -19   40.83   49.35
 -12   0  1812504.63  586.79
  12   0 -1812361.62  625.46
 -12   0  17   13.28   15.20
  12   0 -17    9.69   55.38
  12   0 -16 2591.17  185.82
 -12   0  15   -9.33   30.05
  12   0 -15    7.90   22.84
 -12   0  1421182.06  527.35
  12   0 -1422506.54  570.99
 -12   0  13   28.57   20.36
  12   0 -13   14.14   35.11
 -12   0  12 5687.45  200.02
  12   0 -12 5994.70  202.45
 -12   0  11  -16.05   17.52
  12   0 -11    3.09   20.04
 -12   0  1018463.28  633.26
  12   0 -1021072.42  732.67
 -12   0   9   -5.86   18.29
  12   0  -9    9.58   28.81
 -12   0   823247.33  794.89
  12   0  -823175.16  802.84
 -12   0   7   33.22   26.75
  12   0  -7   36.93   35.21
 -12   0   6 2546.76  130.58
  12   0  -6 2821.32  207.70
 -12   0   5   18.66   21.38
  12   0  -5   14.96   26.78
 -12   0   418443.70  450.59
  12   0  -418519.29  461.85
 -12   0   3   30.93   22.69
  12   0  -3   10.13   22.88
 -12   0   220472.08  503.66
  12   0  -220632.61  524.69
 -12   0   1   20.82   14.94
  12   0  -1    5.72   30.81
 -12   0   0  208.14   59.89
  12   0   0  206.55   59.84
 -12   0  -1   13.51   14.99
  12   0   1   11.14   19.80
 -12   0  -2 4242.63  167.18
  12   0   2 5261.85  194.27
 -12   0  -3   33.28   25.05
  12   0   3  -14.60   21.13
 -12   0  -4 4425.97  231.45
  12   0   4 4935.86  242.75
 -12   0  -5   24.75   20.15
  12   0   5   31.31   36.74
 -12   0  -651017.94  255.75
  12   0   649142.17 1194.01
 -12   0  -7   12.07   14.75
  12   0   7   15.70   22.26
 -12   0  -8 1702.95  125.58
  12   0   8 1647.55  138.09
 -12   0  -9   11.79   29.06
  12   0   9    7.84   25.21
 -12   0 -10 3502.97  208.75
  12   0  10 3609.51  208.67
  12   0  11   -2.92   22.31
  12   0  11   21.04   12.54
  12   0  12  250.01   99.73
  12   0  12  273.30   76.90
  12   0  13   17.02   20.24
  12   0  13    7.26   13.79
  12   0  14 1249.64   97.73
  12   0  14 1359.02   48.89
  12   0  15   16.69   24.72
  12   0  15   13.39   25.86
  12   0  16 1285.52  109.03
  12   0  16 1363.69  117.58
  12   0  17    1.46   15.77
  12   0  17   22.64   26.58
  12   2 -27  680.57   72.16
  12   2 -26 1650.31   87.86
  12   2 -25    3.00   51.74
  12  -2 -25   12.53   40.23
  12   2 -24  616.62   71.68
  12  -2 -24  561.18  103.70
 -12   2  23  472.32   69.64
  12   2 -23  425.64  198.56
  12  -2 -23  493.92  149.61
 -12   2  22   -2.29   16.84
  12   2 -22   39.00   35.30
  12  -2 -22    6.74   19.81
 -12   2  21 1095.59   71.39
  12   2 -21 1054.58   85.38
  12  -2 -21 1105.67   56.29
  12   2 -20  714.58   79.81
 -12   2  20  846.06   66.54
 -12  -2  20  793.17   45.25
  12  -2 -20  778.76   94.02
  12   2 -19 9365.36  382.72
 -12   2  19 8714.83  336.68
 -12  -2  19 9841.10  378.78
  12  -2 -19 8939.66  355.09
  12   2 -18 2220.63  173.56
 -12  -2  18 2233.91  151.43
  12  -2 -18 2019.75  197.24
  12   2 -17 6783.72  340.92
 -12   2  17 6255.42  308.37
 -12  -2  17 6779.97  322.43
  12  -2 -17 7268.20  370.55
  12   2 -16 1334.30  158.81
 -12   2  16 1580.87  123.37
 -12  -2  16 1426.85   74.25
  12  -2 -16 1388.18   84.17
  12   2 -15 3577.62  288.82
 -12   2  15 3843.30  271.61
 -12  -2  15 3895.15  268.54
  12  -2 -15 4507.97   92.22
 -12   2  14 7887.36  367.61
  12   2 -14 9129.24  397.26
  12  -2 -14 7800.13  348.39
  12   2 -13 2827.94  177.39
 -12   2  13 3020.58  212.47
 -12  -2  13 2578.56  152.11
  12  -2 -13 2881.91  184.85
  12   2 -12 4383.81  264.78
 -12   2  12 4029.88  241.14
 -12  -2  12 3732.58  229.45
  12  -2 -12 4470.03  262.79
  12   2 -11   37.13   46.89
 -12   2  11    0.52    9.62
 -12  -2  11   21.84   14.08
  12  -2 -11   17.11   23.29
  12   2 -10  163.81   69.07
 -12   2  10  179.87   46.99
 -12  -2  10  245.67   25.03
  12  -2 -10  185.91   45.81
  12   2  -9   24.29   30.22
 -12   2   9   84.66   45.18
 -12  -2   9   -6.31   18.68
  12  -2  -9   49.18   25.29
  12   2  -8 7338.11  274.58
 -12   2   8 6405.39  248.45
 -12  -2   8 6039.71  216.93
  12  -2  -8 6321.91  237.26
  12   2  -7 5722.37  260.07
 -12   2   7 5939.33  227.34
 -12  -2   7 6216.99  232.16
  12  -2  -7 6004.70  221.86
  12   2  -6 2342.84  162.39
 -12   2   6 2221.50  136.86
 -12  -2   6 2277.47  141.04
  12  -2  -6 2219.28  140.59
  12   2  -5 2811.17  189.62
 -12   2   5 2917.95  176.08
 -12  -2   5 3102.49  187.82
  12  -2  -5 2515.02  188.12
  12   2  -4 2322.96  176.03
 -12   2   4 2590.32  156.77
 -12  -2   4 2844.02  173.34
  12  -2  -4 2430.12  156.62
  12   2  -3  612.57   43.44
 -12   2   3  645.14   82.52
 -12  -2   3  671.74   96.49
  12  -2  -3  657.39   53.65
  12   2  -2   17.13   30.27
 -12   2   2    9.92   17.91
 -12  -2   2   -6.92   23.77
  12  -2  -2   34.18   38.08
  12   2  -1   60.23   15.56
 -12   2   1  100.78   27.20
 -12  -2   1   64.15   36.12
  12  -2  -1   59.04   38.15
  12   2   0 4009.32  160.82
 -12   2   0 4406.41  159.95
 -12  -2   0 3775.43  159.79
  12  -2   0 4441.83  170.37
  12   2   1 4493.25  176.10
 -12   2  -1 4059.57  156.72
 -12  -2  -1 4378.28  174.87
  12  -2   1 4723.27  180.89
  12   2   2   10.96   20.68
 -12   2  -2   21.00   17.85
 -12  -2  -2   16.39   31.89
  12  -2   2  103.25   32.88
  12   2   3 1112.82  123.06
 -12   2  -3  847.18   60.41
 -12  -2  -3  881.20   68.26
  12  -2   3  904.95   73.95
 -12   2  -4 1495.92  102.91
  12   2   4 1337.95  102.40
  12  -2   4 1595.31  176.12
 -12   2  -510451.10  264.03
  12   2   510067.35  269.96
  12   2   5 9943.09  256.36
  12  -2   510571.09  282.35
 -12   2  -6  181.35   19.34
  12   2   6  105.59   90.73
  12   2   6  222.67   60.29
  12  -2   6  154.76   63.51
 -12   2  -7 4672.84  200.95
  12   2   7 4260.88  301.29
  12  -2   7 4851.59  218.01
 -12   2  -8 2916.71  203.43
  12   2   8 3373.99  282.42
  12  -2   8 2345.21  229.14
 -12   2  -9 4061.16  226.30
  12   2   9 4115.29  240.51
  12   2   9 3843.06  214.65
  12  -2   9 4395.72  281.10
 -12   2 -10   92.41   37.70
  12   2  10   54.79   34.24
  12  -2  10   60.48   36.91
 -12   2 -11 1891.19  118.23
  12   2  11 1642.38  144.48
  12   2  11 1833.35  112.13
  12  -2  11 1535.54  103.60
 -12   2 -1211614.57  453.17
  12   2  1210822.43  428.02
  12   2  1211021.63  420.87
  12  -2  12 9475.23  374.10
 -12   2 -13 3635.53  270.41
  12   2  13 3257.45  244.31
  12  -2  13 3041.22  233.90
  12   2  14    2.84   40.65
  12   2  14   20.83   16.42
  12  -2  14   19.31   40.09
  12   2  15 4617.00  252.48
  12  -2  15 4474.30  235.86
  12  -2  15 4036.51  220.83
  12   2  16 6035.92  360.67
  12  -2  16 5445.06  326.67
  12   2  17 1545.66  153.75
  12  -2  17 1655.30  160.93
  12   2  18  112.85   49.76
  12  -2  18  120.09   78.95
  12  -2  19  894.43   56.20
  12   4 -26 2784.22  193.11
  12   4 -25  332.19  143.65
 -12   4  24  290.12  135.47
  12   4 -24  267.22  123.99
 -12   4  23  788.45   48.18
  12   4 -23  491.61  218.19
  12  -4 -23  574.34   66.41
 -12   4  22  347.03  128.84
  12   4 -22  320.72  230.79
  12  -4 -22  587.20   51.59
 -12   4  21   82.81   39.01
  12   4 -21  154.59   56.93
  12  -4 -21  152.43   44.96
 -12   4  20 1320.68  189.81
  12   4 -20 1340.81  272.93
  12  -4 -20 1233.15  106.26
  12   4 -19   43.62   40.38
  12   4 -19  100.84   66.72
 -12   4  18 5819.18  322.06
  12   4 -18 6766.18  375.00
  12   4 -18 6229.95  359.34
  12  -4 -18 5919.60  326.45
 -12   4  17 4962.73  207.60
  12   4 -17 5125.75  214.38
  12   4 -17 4699.04  215.17
  12  -4 -17 3923.05  189.49
 -12   4  16 2318.53  171.55
  12   4 -16 2420.79  184.00
  12   4 -16 2497.79  183.87
  12  -4 -16 2536.08  179.45
 -12   4  15 1210.51   98.56
  12   4 -15 1272.01   85.61
  12   4 -15 1295.38  106.08
  12  -4 -15 1117.83   99.80
 -12   4  14  614.27  170.99
  12   4 -14  504.20  109.63
  12   4 -14  590.53  172.20
  12  -4 -14  503.87   61.88
 -12   4  13 2628.79  166.36
  12   4 -13 2646.14  156.92
  12   4 -13 2706.64  170.12
  12  -4 -13 2606.64  175.56
 -12   4  12 3790.13  268.05
  12   4 -12 4334.58  303.22
  12   4 -12 4114.09  298.84
  12  -4 -12 4434.01  310.10
 -12   4  11   84.40   43.67
  12   4 -11   -1.27   30.43
  12   4 -11   87.23   45.00
  12  -4 -11   98.26   66.10
 -12   4  10   23.06   20.55
  12   4 -10   26.48   41.20
  12   4 -10   20.21   36.24
  12  -4 -10   25.30   17.46
 -12   4   9 1835.72  133.26
  12   4  -9 1642.28  124.11
  12   4  -9 1608.88  127.16
  12  -4  -9 1716.43  127.34
 -12   4   810409.34  274.60
  12   4  -8 9531.82  252.77
  12   4  -811104.45  303.48
  12  -4  -811499.61  299.19
 -12   4   7 2337.94  145.54
  12   4  -7 2116.09  173.19
  12   4  -7 2682.02  171.52
  12  -4  -7 2423.16  149.76
 -12   4   6 7106.13  244.97
  12   4  -6 7281.14  237.34
  12   4  -6 8062.83  268.64
  12  -4  -6 8176.84  262.63
 -12   4   5   49.45   27.11
  12   4  -5   28.65   36.82
  12   4  -5   26.11   28.71
  12  -4  -5   17.83   29.62
 -12   4   4 5641.34  189.55
  12   4  -4 6537.56  221.08
  12   4  -4 6014.86  204.21
  12  -4  -4 6137.21  203.83
 -12   4   3 2523.21  129.79
  12   4  -3 2581.55  165.28
  12   4  -3 2599.47  137.87
  12  -4  -3 2599.83  137.09
 -12   4   2 4871.99  235.79
  12   4  -2 5228.33  260.73
  12   4  -2 4879.12  241.73
  12  -4  -2 5070.58  272.32
 -12   4   1  486.15   43.41
  12   4  -1  593.29  176.52
  12   4  -1  538.47  134.93
  12  -4  -1  687.60  150.41
 -12   4   0  118.20   28.43
  12   4   0  130.05   55.08
  12   4   0  122.39   42.35
  12  -4   0   91.66   44.58
 -12   4  -1  625.05   52.87
  12   4   1  532.78   57.06
  12   4   1  612.66   55.52
  12  -4   1  526.43   74.39
 -12   4  -2  923.56   69.75
  12   4   2 1066.92  174.91
  12   4   2 1149.96  108.85
  12  -4   2 1004.99   84.21
 -12   4  -3   22.62   12.25
  12   4   3   19.12   38.62
  12   4   3    6.51   15.47
  12  -4   3   28.12   51.82
 -12   4  -4   23.14   33.11
  12   4   4   25.68   28.07
  12  -4   4   26.09   35.44
 -12   4  -5   11.55   23.41
  12   4   5   17.37   38.89
 -12   4  -5   62.26   33.43
  12   4   5   17.83   21.08
 -12   4  -6 7182.51  272.01
  12   4   6 6707.47  268.87
 -12   4  -6 7774.82  316.87
  12   4   6 7610.07  287.47
 -12   4  -7 7607.81  289.14
  12   4   7 7207.41  286.97
 -12   4  -7 8142.82  360.67
  12   4   7 6975.66  276.32
 -12   4  -8 3314.30  217.36
  12   4   8 3060.75  220.38
 -12   4  -8 3376.45  238.30
  12   4   8 3151.02  221.71
 -12   4  -9 6567.31  317.45
  12   4   9 6563.45  331.41
 -12   4  -9 7218.46  360.85
  12   4   9 6594.45  314.83
 -12   4 -10 4809.91  200.81
  12   4  10 5325.57  235.62
 -12   4 -10 5205.36  231.75
  12   4  10 4492.79  178.58
 -12   4 -11 1487.43  119.47
  12   4  11 1126.21  109.98
 -12   4 -11 1351.76  109.59
 -12   4 -12  650.56   32.51
  12   4  12  979.63  138.86
 -12   4 -12  713.43   66.51
 -12   4 -13   35.39   23.77
  12   4  13   73.31   70.80
 -12   4 -13   26.96   30.48
 -12   4 -14  832.28   35.98
  12   4  14  495.99  201.85
 -12   4 -14  487.44  159.47
  12   4  15 2910.05  241.41
 -12   4 -15 2815.92  233.08
  12   4  16 1520.89  130.95
 -12   4 -16 1645.73  140.18
  12   4  17   68.49   29.60
 -12   4 -17   73.22   58.27
  12   4  18  148.58   76.36
 -12   4 -18  127.53   63.98
  12   4  19  304.69  132.41
 -12   4 -19  345.89  126.91
 -12   6  24  505.04   49.10
  12   6 -24  639.25  175.76
 -12   6  23   97.61   47.86
  12   6 -23  425.43  153.68
 -12   6  22 5344.84  313.63
  12   6 -22 5114.42  308.74
 -12   6  21 2945.87  177.49
  12   6 -21 2928.46  211.64
  12   6 -20 2305.51  219.73
 -12   6  19 1039.46  135.10
  12   6 -19 1535.70  236.66
  12  -6 -19 1119.56  126.34
 -12   6  18  381.54  161.01
  12   6 -18  305.63  122.94
  12  -6 -18  278.87  100.43
 -12   6  17  744.37  223.69
  12   6 -17  830.47   47.13
  12   6 -17  843.09   73.26
  12  -6 -17  816.78   79.37
 -12   6  16  184.64   62.97
  12   6 -16  138.86   56.36
  12   6 -16  272.43  100.56
 -12   6  15 1193.27   98.58
  12   6 -15 1395.10  110.24
  12   6 -15 1046.50   97.30
  12  -6 -15 1122.04   47.62
 -12   6  14   50.93   67.79
  12   6 -14    8.36   33.02
  12   6 -14  173.52   98.15
  12  -6 -14  122.05   44.42
 -12   6  13 2101.84  160.33
  12   6 -13 2355.13  169.17
  12   6 -13 2077.42  255.49
  12  -6 -13 2041.12  155.98
 -12   6  12  133.05   74.15
  12   6 -12  206.45   77.07
  12   6 -12  185.63   81.44
  12  -6 -12  156.84   56.10
 -12   6  11  665.73  155.13
  12   6 -11  441.23  134.14
  12   6 -11  501.65  143.30
  12  -6 -11  388.12   47.87
 -12   6  10  886.03   96.06
  12   6 -10  679.83   49.72
  12   6 -10  810.74  221.27
  12  -6 -10  782.88   75.44
 -12   6   9   51.55   24.23
  12   6  -9  100.76   64.60
  12   6  -9  133.80   48.20
  12  -6  -9  133.98   38.48
 -12   6   8 1237.34  158.33
  12   6  -8 1353.41  171.79
  12   6  -8 1195.06  216.89
  12  -6  -8 1142.88   99.41
 -12   6   7 5396.52  313.04
  12   6  -7 4340.32  281.36
  12   6  -7 4691.55  275.02
  12  -6  -7 4092.45  244.95
 -12   6   6 3090.13  190.83
  12   6  -6 2772.47  194.66
  12   6  -6 2607.99  186.97
  12  -6  -6 2712.10  163.68
 -12   6   510677.34  408.53
  12   6  -510739.37  411.55
  12   6  -511385.68  439.09
  12  -6  -511529.78  435.89
 -12   6   4  739.88   76.28
  12   6  -4  451.68   53.87
  12   6  -4  557.54  248.38
  12  -6  -4  433.77  163.62
 -12   6   315070.97  579.44
  12   6  -313545.10  515.59
  12   6  -313639.20  515.51
  12  -6  -314725.50  551.17
 -12   6   2   39.79   52.16
  12   6  -2   46.61   42.40
  12   6  -2   36.71   25.46
  12  -6  -2   26.81   34.30
 -12   6   1 2621.80  156.21
  12   6  -1 2894.92  187.19
  12   6  -1 2743.98  173.13
  12  -6  -1 2321.40  150.82
 -12   6   0  240.87   66.35
  12   6   0  209.77  108.90
  12   6   0  300.38  128.27
  12  -6   0  227.25  103.36
 -12   6  -1 2233.25   81.48
  12   6   1 2107.32  136.03
 -12   6  -2 6746.36  326.35
  12   6   2 6942.90  349.89
 -12   6  -2 7623.20  377.56
  12   6   2 6847.70  332.23
 -12   6  -3 2468.41  169.21
  12   6   3 2163.84  187.54
 -12   6  -3 2542.29  199.16
  12   6   3 2220.56  153.80
 -12   6  -412788.03  615.55
  12   6   412607.67  628.72
 -12   6  -412422.61  598.53
  12   6   414620.79  697.70
 -12   6  -5  271.03   74.24
  12   6   5  261.92  100.41
 -12   6  -5  160.85   48.91
  12   6   5  190.01   52.95
 -12   6  -6  213.10   55.00
  12   6   6  147.94   69.93
 -12   6  -6  208.14   77.25
  12   6   6  166.65   55.62
 -12   6  -7 1413.78  134.05
  12   6   7 1337.02   97.75
 -12   6  -7 1769.16  152.99
  12   6   7 1321.96   72.81
 -12   6  -8 2998.59  222.60
  12   6   8 3184.59  262.25
 -12   6  -8 2906.39  232.87
 -12   6  -9   43.20   14.63
  12   6   9   40.58   47.18
 -12   6  -9  -76.18   50.58
 -12   6 -10 2081.88  164.03
  12   6  10 2464.58  213.89
 -12   6 -10 2617.38  219.78
 -12   6 -11   33.33   18.95
  12   6  11   16.15   44.87
 -12   6 -11   -3.33   24.20
 -12   6 -12   68.81   52.20
  12   6  12  148.83   73.22
 -12   6 -12   74.66   94.05
  12   6  13  915.59  117.23
 -12   6 -13  796.92  104.19
  12   6  14 1298.08  162.42
 -12   6 -14 1728.67  206.54
  12   6  15  309.10  162.74
 -12   6 -15  378.10  149.27
  12   6  16  150.96   99.15
 -12   6 -16   73.95   44.92
  12   6  17 3944.48  243.97
 -12   6 -17 3488.71  268.15
  12   8 -21  202.54  110.75
 -12   8  20 8119.41  534.51
  12   8 -20 5879.72  409.27
  12   8 -19  341.75  162.06
 -12   8  18 1558.48  188.57
  12   8 -18 1368.52  111.79
 -12   8  17  739.76   85.91
  12   8 -17  929.29  141.14
 -12   8  16  139.51   37.58
  12   8 -16   35.46   64.06
  12  -8 -16   73.99   33.87
 -12   8  15 4323.92  346.23
  12   8 -15 4503.94  355.85
  12   8 -15 4917.70  400.12
  12  -8 -15 4344.86  339.64
 -12   8  14  989.10  115.31
  12   8 -14  880.20   96.02
  12   8 -14  889.64  119.69
  12  -8 -14 1008.02  108.31
 -12   8  13  390.70  185.21
  12   8 -13  257.21  100.02
  12   8 -13  291.77  200.99
  12  -8 -13  352.70   64.44
 -12   8  12   47.85   89.46
  12   8 -12   18.43   43.84
  12   8 -12   45.52   24.41
  12  -8 -12   87.65   30.60
 -12   8  11  325.41  110.77
  12   8 -11  319.78   80.07
  12   8 -11  257.93  127.25
  12  -8 -11  181.09   68.01
 -12   8  10 2924.73  176.47
  12   8 -10 3032.21  177.28
  12   8 -10 3049.98  196.13
  12  -8 -10 2949.89  164.69
 -12   8   9   73.89   65.00
  12   8  -9   16.66   30.69
  12   8  -9   23.72   38.05
  12  -8  -9   54.96   28.02
 -12   8   8 1749.67  144.37
  12   8  -8 1909.24  177.20
  12   8  -8 1978.17  196.80
  12  -8  -8 2035.46  154.63
 -12   8   7  300.68  137.34
  12   8  -7  398.60  132.65
  12   8  -7  567.18   54.04
  12  -8  -7  438.33   58.01
 -12   8   6  851.00  220.13
  12   8  -6 1090.58   78.80
  12   8  -6  964.28   84.56
  12  -8  -6  893.08  143.71
 -12   8   5  172.10   56.56
  12   8  -5   38.43   36.64
  12   8  -5  142.59   70.98
  12  -8  -5   58.01   85.85
 -12   8   411444.09  485.57
  12   8  -411606.98  492.25
  12   8  -411029.94  389.51
 -12   8   3   17.26   36.90
  12   8  -3   17.95   45.23
  12  -8  -3   37.00   37.89
 -12   8   2   62.29   34.47
  12   8  -2   28.96   58.42
  12   8  -2    3.82   34.74
  12  -8  -2   35.37   54.38
 -12   8   1 8162.99  292.77
  12   8  -1 8657.32  327.60
  12   8  -1 8687.44  311.92
  12  -8  -1 8238.85  296.84
 -12   8   0  236.22   74.57
  12   8   0  137.22  151.80
 -12   8   0  383.60   94.46
  12   8   0  189.01   77.08
 -12   8  -1 1343.43   66.81
  12   8   1 1082.32   74.74
 -12   8  -1 1165.99   92.47
  12   8   1 1004.24   91.60
 -12   8  -2 4124.97  158.63
  12   8   2 4226.99  199.30
 -12   8  -2 4195.82  180.74
  12   8   2 4180.68  164.43
 -12   8  -3 2712.94  216.92
  12   8   3 2666.40  233.03
 -12   8  -3 3480.26  205.79
  12   8   3 2620.61  209.64
 -12   8  -4 1748.80  188.53
  12   8   4 1822.12  252.05
 -12   8  -4 2342.72  295.94
 -12   8  -5 1982.59  156.71
  12   8   5 2288.24  201.90
 -12   8  -5 2261.35  227.04
 -12   8  -6 1226.54  138.82
  12   8   6 1326.21  128.47
 -12   8  -6 1539.48  201.46
 -12   8  -7  257.49   75.55
  12   8   7  183.02  164.95
 -12   8  -7  302.65   82.88
 -12   8  -8  103.10   52.44
  12   8   8   52.37   46.48
 -12   8  -8  113.25   70.83
 -12   8  -9 2401.91  176.63
  12   8   9 2851.16  233.28
 -12   8  -9 1971.72  174.46
 -12   8 -10  923.98   75.49
  12   8  10  812.66  160.24
 -12   8 -10  509.78  198.90
  12   8  11 2516.95  180.23
 -12   8 -11 2217.04  218.99
  12   8  12   13.22   74.79
 -12   8 -12   16.94   25.17
  12   8  13  412.21  254.44
 -12   8 -13  603.78  209.14
  12   8  14 4796.23  292.46
 -12   8 -14 4522.86  271.91
 -12  10  15 1211.27  113.28
  12  10 -15  941.01  171.89
 -12  10  14  154.21  104.08
  12  10 -14  238.55   78.56
 -12  10  13   48.90   54.71
  12  10 -13   76.71   48.35
  12  10 -13    9.85   44.01
 -12  10  12  548.09  162.00
  12  10 -12  318.48  186.96
  12  10 -12  660.31  117.60
  12 -10 -12  531.15   59.95
 -12  10  11 1151.69  244.29
  12  10 -11 1083.20   69.65
  12  10 -11 1448.67  195.62
  12 -10 -11 1239.44   61.25
 -12  10  10  -31.69   68.52
  12  10 -10  153.86   78.44
  12  10 -10   75.48   65.43
  12 -10 -10  166.83   64.88
 -12  10   9 5917.61  332.80
  12  10  -9 5214.00  296.83
  12  10  -9 4752.07  281.06
  12 -10  -9 5070.86  276.36
 -12  10   8   55.91   51.30
  12  10  -8  295.80  141.25
  12  10  -8  207.26  135.58
  12 -10  -8  136.39   57.54
 -12  10   7 2233.79  105.48
  12  10  -7 1894.68  160.10
  12 -10  -7 2107.34  163.84
 -12  10   6 1519.80  137.29
  12  10  -6 1261.55  120.77
  12  10  -6 1780.71  149.08
  12 -10  -6 1453.87  172.06
 -12  10   5  154.49  114.67
  12  10  -5  134.70   64.79
  12  10  -5  102.83   49.35
  12 -10  -5  147.87   73.94
 -12  10   4   58.44   36.43
  12  10  -4    2.22   40.10
  12  10  -4   41.48   33.28
  12 -10  -4    9.33   32.17
 -12  10   3 1709.60  144.42
  12  10  -3 1886.62  166.41
  12  10  -3 1728.50  203.10
  12 -10  -3 1656.35  140.27
 -12  10   2 1663.36  140.05
  12  10  -2 1858.07  166.51
  12  10  -2 1477.97  218.70
  12 -10  -2 1303.25  110.06
 -12  10   1   72.74   91.20
  12  10  -1   35.85   34.60
  12  10  -1   25.93   54.94
  12 -10  -1   24.60   56.18
 -12  10   0 2274.96   78.60
  12  10   0 2724.48  179.83
 -12  10   0 2858.80  285.21
  12  10   0 2889.59  170.95
 -12  10  -1  149.39   55.41
  12  10   1  195.65  102.91
 -12  10  -1  193.09  102.65
 -12  10  -2  703.98  133.04
  12  10   2  249.82  219.53
 -12  10  -2  383.16  133.51
 -12  10  -3    8.18   37.24
  12  10   3   80.65   38.59
 -12  10  -3   34.69   58.30
 -12  10  -4  331.43  164.55
  12  10   4  413.74  114.38
 -12  10  -4  509.51  217.06
 -12  10  -5 1285.27   75.17
  12  10   5 1200.50   86.98
 -12  10  -5 1306.53  227.20
 -12  10  -6 3139.10  212.04
  12  10   6 3318.20  246.74
 -12  10  -6 3441.13  249.45
 -12  10  -7 2980.90  202.38
  12  10   7 3837.54  284.80
 -12  10  -7 2805.82  245.88
 -12  10  -8 1669.09  150.61
  12  10   8 2234.98  169.60
 -12  10  -8 1720.45  171.18
  13   1 -27  399.86  162.86
  13  -1 -27  268.00  149.52
  13   1 -26   48.00   32.92
  13  -1 -26   25.20  102.15
  13   1 -25 1289.66  191.47
  13  -1 -25 1198.14  103.12
  13   1 -24  462.19  152.04
  13  -1 -24  429.44  103.33
  13   1 -23 3422.10  278.88
  13  -1 -23 3067.99  250.26
 -13   1  22 4877.71  248.32
  13   1 -22 4431.82  248.33
  13  -1 -22 5326.06  285.44
  13   1 -21 1118.25  180.98
 -13   1  21 1160.58   37.45
 -13  -1  21 1128.74   32.35
  13  -1 -21 1229.81  146.68
  13   1 -20 4780.25  357.56
 -13   1  20 5392.24  300.52
 -13  -1  20 5895.63  325.03
  13  -1 -20 5004.71  341.91
  13   1 -19 5523.61  315.81
 -13   1  19 5931.72  318.80
 -13  -1  19 6505.31  348.51
  13  -1 -19 5768.38  348.57
  13   1 -18 2123.58  165.27
 -13   1  18 1709.31  117.69
 -13  -1  18 1674.60  114.69
  13  -1 -18 1827.34  139.72
  13   1 -17 9719.66  474.47
 -13  -1  17 9195.26  435.29
  13  -1 -17 9454.38  457.39
  13   1 -16 1888.99  180.27
 -13   1  16 1787.32   89.24
 -13  -1  16 1823.17   89.42
  13  -1 -16 1806.20  107.26
 -13   1  15 2276.85  131.79
  13   1 -15 2333.60  175.39
  13  -1 -15 2336.16  144.55
  13   1 -14   38.74   26.66
 -13   1  14   -4.62   23.86
 -13  -1  14   69.33   27.74
  13  -1 -14    7.29   39.59
  13   1 -13  343.84  118.92
 -13   1  13  367.86   24.87
 -13  -1  13  378.61   62.77
  13  -1 -13  327.20   79.49
  13   1 -12 1716.35  136.15
 -13   1  12 2413.77  182.85
 -13  -1  12 1983.89  159.66
  13  -1 -12 1726.77  146.09
  13   1 -11 8056.31  266.70
 -13   1  11 8331.32  259.01
 -13  -1  11 8358.47  260.02
  13  -1 -11 7808.27  289.28
  13   1 -10 3060.46  164.61
 -13   1  10 2526.72  125.21
 -13  -1  10 2514.78  124.42
  13  -1 -10 2184.58  131.13
  13   1  -9   59.14   53.09
 -13   1   9   42.48   19.24
 -13  -1   9   21.62   28.53
  13  -1  -9   41.41   37.52
  13   1  -811453.64  364.40
 -13   1   811742.50  359.14
 -13  -1   811538.34  354.77
  13  -1  -8 9883.59  314.72
  13   1  -7  694.66  110.26
 -13   1   7  770.84  103.42
 -13  -1   7  723.13   85.55
  13  -1  -7  709.32   58.09
  13   1  -6 5537.64  235.62
 -13   1   6 6306.65  226.79
 -13  -1   6 6447.74  231.64
  13  -1  -6 6484.13  240.97
  13   1  -519847.72  703.87
 -13   1   519099.61  656.35
 -13  -1   520341.23  700.69
  13  -1  -518657.03  656.72
  13   1  -4 1221.93  115.67
 -13   1   4 1171.82   75.96
 -13  -1   4 1020.07   69.12
  13  -1  -4 1075.47   74.64
  13   1  -3 4645.90  201.92
 -13   1   3 4298.87  170.57
 -13  -1   3 4976.25  184.01
  13  -1  -3 4288.27  167.74
  13   1  -2 2841.41  174.99
 -13   1   2 2672.62  163.86
 -13  -1   2 2556.87  157.44
  13  -1  -2 2333.68  181.89
  13   1  -1  671.52   42.96
 -13   1   1  744.31   54.33
 -13  -1   1  639.64   55.05
  13  -1  -1  562.21   68.92
  13   1   0  156.06   44.86
 -13   1   0  112.32   30.34
 -13  -1   0   55.02   23.77
  13  -1   0   44.90   28.81
  13   1   1 3174.92  176.28
 -13   1  -1 3363.45  170.23
 -13  -1  -1 3476.52  183.53
  13  -1   1 3422.62  173.95
  13   1   2 8384.41  278.89
 -13   1  -2 8526.39  265.01
 -13  -1  -2 9021.89  285.90
  13  -1   2 8839.28  282.93
  13   1   3 1166.17  119.54
 -13   1  -3 1035.37   73.52
 -13  -1  -3  951.85   73.47
  13  -1   3  935.48   75.98
  13   1   4 1295.32  105.43
 -13   1  -4 1173.78   88.04
 -13  -1  -4 1301.64   96.68
  13  -1   4 1364.93  110.04
  13   1   516117.51  406.85
 -13   1  -515993.10  399.38
 -13  -1  -515762.85  424.45
  13  -1   514795.85  391.15
  13   1   6  378.53   46.92
 -13   1  -6  316.16   36.53
 -13  -1  -6  293.33  117.12
  13  -1   6  382.65   97.12
  13   1   7  914.19  106.85
 -13   1  -7  693.17   39.66
 -13  -1  -7  911.13   52.93
  13  -1   7  813.22   65.36
 -13   1  -8  629.42   69.91
  13   1   8  653.70   64.71
  13   1   8  723.36  102.99
  13  -1   8  738.61   57.96
 -13   1  -912627.18  475.78
  13   1   912015.77  453.29
  13  -1   911707.76  439.78
 -13   1 -10 2034.50   57.95
  13   1  10 2248.14  227.40
  13   1  10 1962.16  121.89
  13  -1  10 1701.23  170.03
 -13   1 -11   43.89   39.98
  13   1  11  147.83   33.58
  13   1  11  113.54   31.94
  13  -1  11   66.67   26.10
 -13   1 -12  639.43   87.97
  13   1  12  662.36   35.79
  13   1  13   -0.83   25.68
  13   1  13   22.14   19.07
  13  -1  13   15.28   16.46
  13  -1  13   -6.80   31.25
  13   1  14  444.18  108.38
  13   1  14  414.96   50.57
  13  -1  14  415.40   63.70
  13  -1  14  329.38  149.20
  13   1  15   39.09   25.97
  13   1  15   95.40   37.23
  13  -1  15   65.46   20.78
  13  -1  15   53.27   35.95
  13   1  16 2431.43  204.02
  13  -1  16 2334.56  189.85
  13  -1  16 2151.00  177.84
  13   1  17  -17.40   26.87
  13  -1  17   -7.55   25.34
  13   3 -27   77.57   72.02
  13   3 -26 1738.34  159.69
  13   3 -25 4055.97  247.28
  13   3 -24 1273.10  122.43
  13  -3 -24  981.05  167.07
 -13   3  23  807.88   64.95
  13   3 -23  624.00  247.46
  13  -3 -23 1055.06   91.80
 -13   3  22 1087.83  119.35
  13   3 -22 1031.77  174.36
  13  -3 -22 1159.47  117.28
 -13   3  21 2072.68  167.58
  13   3 -21 2213.25  218.01
  13  -3 -21 2597.30  209.88
 -13   3  20 2316.89  184.48
  13   3 -20 2374.02  186.78
  13   3 -20 2278.80  191.30
  13  -3 -20 1824.13  155.49
  13   3 -19 3347.14  259.87
  13  -3 -19 3403.29  252.11
  13   3 -18  370.49  164.59
 -13   3  18  734.57   85.91
 -13  -3  18  715.07   37.55
  13  -3 -18  790.63   67.11
  13   3 -17  301.90   94.81
 -13   3  17  219.67   66.39
 -13  -3  17  343.71   46.37
  13  -3 -17  201.13   82.84
  13   3 -16 2842.14  206.35
 -13   3  16 2427.87  164.44
 -13  -3  16 2587.83  201.28
  13  -3 -16 2609.65  180.79
  13   3 -15  556.47   50.88
 -13   3  15  279.20   29.60
 -13  -3  15  593.30   60.80
  13  -3 -15  502.61  142.21
 -13   3  14 2646.26  154.05
  13   3 -14 2425.66  153.21
  13  -3 -14 2776.87  164.98
  13   3 -13 3562.77  262.96
 -13   3  13 2836.54  212.90
 -13  -3  13 3401.33  238.44
  13  -3 -13 3290.69  234.25
  13   3 -12 1162.86   76.95
 -13   3  12 1308.90  111.97
 -13  -3  12 1167.00   49.01
  13  -3 -12 1395.01   60.78
  13   3 -11  427.57   98.08
 -13   3  11  483.25  135.17
 -13  -3  11  415.93   97.88
  13  -3 -11  426.58   43.94
  13   3 -10 1498.63  131.09
 -13   3  10 1635.24  131.31
 -13  -3  10 1501.67  110.43
  13  -3 -10 1339.58  113.77
  13   3  -9 3304.27  204.71
 -13   3   9 3694.63  220.45
 -13  -3   9 3098.81  188.07
  13  -3  -9 3180.57  192.10
  13   3  -8 4293.23  258.93
 -13   3   8 3245.94  204.44
 -13  -3   8 2922.73  175.56
  13  -3  -8 3150.52  189.44
  13   3  -7  589.10   65.95
 -13   3   7  627.93   56.30
 -13  -3   7  520.92   85.84
  13  -3  -7  590.42   55.54
  13   3  -6 3263.25  172.25
 -13   3   6 3287.01  162.08
 -13  -3   6 3084.74  173.72
  13  -3  -6 3492.29  176.40
  13   3  -5  409.02  118.94
 -13   3   5  399.46   53.93
 -13  -3   5  336.95  105.49
  13  -3  -5  432.58   51.37
  13   3  -4   94.16   40.02
 -13   3   4  137.35   50.38
 -13  -3   4  214.76   79.47
  13  -3  -4  145.63  115.21
  13   3  -3  925.62   83.29
 -13   3   3  599.52   48.03
 -13  -3   3  796.85  141.49
  13  -3  -3  649.80   66.01
  13   3  -2   30.76   26.43
 -13   3   2    1.71   21.40
 -13  -3   2   49.24   34.45
  13  -3  -2   -1.35   36.05
  13   3  -119194.39  588.39
 -13   3   119794.24  599.47
 -13  -3   116799.68  522.08
  13  -3  -120301.69  624.27
 -13   3   0  255.78   55.12
  13   3   0  296.85   78.54
  13   3   0  276.48   52.05
  13  -3   0  181.74   85.33
 -13   3  -120149.76  503.59
  13   3   119781.35  518.37
  13   3   121009.20  525.60
  13  -3   118359.63  467.54
 -13   3  -2 4780.54  275.16
  13   3   2 5081.13  303.65
  13   3   2 4623.36  271.36
  13  -3   2 5401.41  319.13
 -13   3  -3  923.10   91.25
  13   3   3 1085.55  156.66
  13   3   3 1076.94  111.58
  13  -3   3  992.02  114.48
 -13   3  -4  276.30   74.77
  13   3   4  245.11   80.32
  13   3   4  204.93   59.70
  13  -3   4  239.26   49.88
 -13   3  -5 1870.12  134.24
  13   3   5 1862.29  143.71
  13  -3   5 1696.15  150.28
 -13   3  -6   11.01   15.43
  13   3   6   22.77   24.47
  13   3   6   38.47   19.28
  13  -3   6   33.87   28.20
 -13   3  -7 3014.70  174.04
  13   3   7 2788.82  200.28
  13   3   7 2800.62  160.57
  13  -3   7 2976.79  178.87
 -13   3  -8   44.08   23.76
  13   3   8   96.21   65.41
  13   3   8   64.84   29.98
  13  -3   8  131.95   63.12
 -13   3  -9 3384.88   61.68
  13   3   9 3385.48  103.20
  13   3   9 3321.75   62.16
  13  -3   9 3261.07  230.57
 -13   3 -10  619.67   76.18
  13   3  10  567.65  183.10
  13   3  10  658.42   56.37
  13  -3  10  457.90   41.93
 -13   3 -11  136.45   42.22
  13   3  11  175.83   85.81
  13   3  11  164.01   60.14
  13  -3  11  159.92   95.69
 -13   3 -12 1387.57   45.35
  13   3  12 1031.74   78.85
  13  -3  12 1535.48  199.90
 -13   3 -13 1533.93  125.51
  13   3  13 1216.75  128.76
  13  -3  13 1397.73  139.40
 -13   3 -14  800.39   42.71
  13   3  14 1106.99   67.50
 -13   3 -15 6106.61  473.70
  13   3  15 6117.24  481.02
  13   3  16   72.65   47.07
  13   3  17  171.55   98.94
  13  -3  17  176.14   81.56
  13   3  18    6.24   49.04
  13  -3  18   13.84   34.67
  13  -3  19   85.63   52.22
  13   5 -25 2068.98  153.45
 -13   5  24 1586.78  134.72
  13   5 -24 1899.18  176.02
 -13   5  23  187.95   87.51
 -13   5  22  863.42   94.16
  13   5 -22  796.27  141.41
 -13   5  21  103.26   59.71
  13   5 -21  121.85  125.51
  13  -5 -21  124.92   54.79
  13   5 -20 7694.64  602.80
  13  -5 -20 6771.49  543.78
 -13   5  19 1734.95  231.76
  13   5 -19 1456.92  161.02
  13  -5 -19 1878.82  152.61
 -13   5  18 7538.73  391.38
  13   5 -18 8098.74  414.34
  13   5 -18 7239.14  441.18
  13  -5 -18 6884.95  356.23
 -13   5  17  377.84  149.37
  13   5 -17  320.85   89.13
  13   5 -17  327.61  191.76
  13  -5 -17  297.48   84.45
 -13   5  16   43.28   30.98
  13   5 -16   12.57   17.60
  13   5 -16   51.41   51.33
  13  -5 -16   34.60   18.98
 -13   5  15 1278.24  128.44
  13   5 -15 1191.23  100.98
  13   5 -15 1379.92  303.86
  13  -5 -15 1068.43  123.29
 -13   5  14  225.00   92.52
  13   5 -14  277.27  119.83
  13   5 -14  373.14  144.14
  13  -5 -14  342.46  102.84
 -13   5  13 4979.89  212.81
  13   5 -13 4828.15  218.22
  13   5 -13 4607.15  210.14
  13  -5 -13 5128.58  228.37
 -13   5  12 1993.20   68.10
  13   5 -12 2288.02  163.56
  13   5 -12 2541.49  186.95
  13  -5 -12 2474.26  172.21
 -13   5  11 1961.64  130.11
  13   5 -11 1941.73  127.39
  13   5 -11 1854.42  126.96
  13  -5 -11 1802.42  117.20
 -13   5  10   23.29   34.94
  13   5 -10   51.19   63.86
  13   5 -10   78.11   45.19
  13  -5 -10   41.27   42.24
 -13   5   933295.82 1212.38
  13   5  -930437.01 1112.64
  13   5  -929396.15 1090.29
  13  -5  -930001.56 1111.31
 -13   5   8 1073.81  105.11
  13   5  -8  757.49   64.04
  13   5  -8  946.05   67.62
  13  -5  -8 1058.49   75.03
 -13   5   7 7681.11  332.56
  13   5  -7 8039.93  350.62
  13   5  -7 7386.37  327.84
  13  -5  -7 6590.76  326.38
 -13   5   6  362.82  122.99
  13   5  -6  408.50  159.07
  13   5  -6  368.27  100.73
  13  -5  -6  417.78   38.42
 -13   5   5  525.71   50.94
  13   5  -5  694.44  133.03
  13   5  -5  507.46   45.59
  13  -5  -5  500.61   47.53
 -13   5   4  364.94   71.44
  13   5  -4  380.77  132.71
  13   5  -4  332.32   40.60
  13  -5  -4  348.74  112.74
 -13   5   3  375.77   46.40
  13   5  -3  547.49   68.00
  13   5  -3  535.96  163.58
  13  -5  -3  460.20   40.88
 -13   5   2 4379.29  309.49
  13   5  -2 5214.30  239.56
  13   5  -2 5138.55  231.84
  13  -5  -2 4801.70  275.67
 -13   5   1   71.01   35.56
  13   5  -1   62.50   31.81
  13   5  -1   34.67   46.58
  13  -5  -1   61.68   29.06
 -13   5   0 4630.99  259.70
  13   5   0 4735.57  275.68
  13   5   0 4277.92  283.09
  13  -5   0 4242.22  245.48
 -13   5  -1  435.34   31.54
  13   5   1  508.20   60.22
  13   5   1  555.80   84.22
  13  -5   1  503.65  168.57
 -13   5  -2 8300.77  324.25
  13   5   2 7873.68  356.36
  13  -5   2 7874.52  308.88
 -13   5  -3  628.81   42.25
  13   5   3  533.06   62.27
  13   5   3  608.12   51.04
  13  -5   3  551.36   52.50
 -13   5  -411546.90  543.82
  13   5   411366.70  550.24
  13   5   410904.37  517.77
  13  -5   410922.74  527.18
 -13   5  -5   26.58   27.45
  13   5   5   55.26   28.73
 -13   5  -5   26.59   24.20
  13   5   5   16.47   20.85
 -13   5  -6 7033.60  273.13
  13   5   6 7085.16  332.60
 -13   5  -6 7968.78  327.81
  13   5   6 7115.00  279.46
 -13   5  -7   75.83   29.95
  13   5   7   43.54   71.93
 -13   5  -7   96.70   66.59
  13   5   7   39.64   20.00
 -13   5  -8  187.79   60.77
  13   5   8  202.60   77.53
 -13   5  -8  190.87   77.35
  13   5   8  115.72   31.35
 -13   5  -9   35.90   25.91
  13   5   9   62.32   70.32
 -13   5  -9   17.08   39.82
 -13   5 -10   11.34   11.26
  13   5  10   30.85   38.27
 -13   5 -10   25.30   27.55
 -13   5 -11 2184.22  176.32
  13   5  11 2113.10  195.57
 -13   5 -11 2186.25  186.72
 -13   5 -12  700.63   70.45
  13   5  12 1340.18  129.64
 -13   5 -12  762.14   99.20
 -13   5 -13  203.70   55.32
  13   5  13  199.52  147.15
 -13   5 -13  304.06  117.35
  13   5  14 3530.82  302.46
 -13   5 -14 3699.84  281.58
  13   5  15 2708.18  173.40
 -13   5 -15 2632.93  168.88
  13   5  16   16.59   53.87
 -13   5 -16   45.58   57.40
  13   5  17  517.35   87.21
  13   5  18 1262.07  117.37
 -13   5 -18 1209.07  194.23
 -13   7  22  801.91  101.94
  13   7 -22  764.33  283.54
  13   7 -21 4267.50  401.40
 -13   7  20  336.61  105.02
  13   7 -20  201.67   87.00
 -13   7  19  690.44  139.56
  13   7 -19  371.96  233.65
 -13   7  18  307.39  134.65
  13   7 -18  419.28  200.38
  13  -7 -18  392.84  142.07
 -13   7  17 1658.09  198.47
  13   7 -17 1849.26  191.61
  13  -7 -17 1873.88  174.19
 -13   7  16   82.43   56.67
  13   7 -16   63.59   57.33
  13   7 -16  125.87   68.12
  13  -7 -16  152.26   69.93
 -13   7  15 5196.07  318.06
  13   7 -15 5147.73  306.60
  13   7 -15 5609.45  350.36
  13  -7 -15 4929.06  316.35
 -13   7  14   75.34   48.82
  13   7 -14    9.80   14.26
  13   7 -14   87.27   82.13
  13  -7 -14   28.56   21.00
 -13   7  13 1740.71  157.57
  13   7 -13 1481.37  128.61
  13   7 -13 1453.73  218.47
  13  -7 -13 1210.82   81.84
 -13   7  12 3012.42  229.71
  13   7 -12 2915.53  220.64
  13   7 -12 3209.37  256.28
  13  -7 -12 2757.42  204.60
 -13   7  11 5090.11  203.80
  13   7 -11 5554.16  212.96
  13   7 -11 5283.30  227.13
  13  -7 -11 4877.73  206.74
 -13   7  10 4969.71  330.53
  13   7 -10 4902.27  283.66
  13   7 -10 4543.02  367.30
  13  -7 -10 4646.19  261.37
 -13   7   9  293.15  113.62
  13   7  -9  339.87  136.23
  13   7  -9  374.99   95.23
  13  -7  -9  336.31  114.28
 -13   7   8   15.25   40.10
  13   7  -8   21.15   48.77
  13   7  -8   29.13   39.13
  13  -7  -8   14.52   25.42
 -13   7   7  325.99  116.87
  13   7  -7  209.65  106.20
  13   7  -7  212.27   80.23
  13  -7  -7  215.60   51.69
 -13   7   6 4719.63  201.69
  13   7  -6 5312.71  233.82
  13   7  -6 5350.93  230.96
  13  -7  -6 5732.19  239.87
 -13   7   5  774.68   69.30
  13   7  -5  672.36   69.28
  13   7  -5  721.82   77.96
  13  -7  -5  667.02   92.76
 -13   7   4 6390.79  331.17
  13   7  -4 5965.14  280.98
  13   7  -4 6355.55  264.78
  13  -7  -4 5694.02  260.31
 -13   7   3   52.53   29.42
  13   7  -3  -14.60   44.91
  13   7  -3   41.49   19.09
  13  -7  -3   31.10   50.05
 -13   7   2   84.04   75.43
  13   7  -2   59.74   61.66
  13  -7  -2  135.98   68.12
 -13   7   1 4896.90  238.22
  13   7  -1 4778.02  221.55
  13   7  -1 4486.01  212.81
  13  -7  -1 4863.70  212.45
 -13   7   0  966.85   47.75
  13   7   0  963.80  169.00
  13   7   0  830.42   81.33
  13  -7   0  840.51   95.67
 -13   7  -1  130.21   61.87
  13   7   1   90.16   67.78
  13   7   1  124.98   54.97
  13  -7   1  163.98   73.42
 -13   7  -2  123.19   66.33
  13   7   2  119.79   77.52
 -13   7  -2  201.34   68.40
  13   7   2   53.99   51.35
 -13   7  -3 4047.43  150.86
  13   7   3 3695.05  123.16
 -13   7  -3 4218.43  175.57
  13   7   3 3974.27  152.93
 -13   7  -4   45.75   47.42
  13   7   4   79.64   83.43
 -13   7  -4  149.35   40.10
  13   7   4   32.30   40.93
 -13   7  -510984.64  370.63
  13   7   512176.42  438.72
 -13   7  -5 9985.54  422.69
 -13   7  -6 1196.23   49.20
  13   7   6 1080.02  177.55
 -13   7  -6  933.85  280.93
 -13   7  -7  645.48   37.29
  13   7   7  488.65   64.66
 -13   7  -7  538.41  171.89
 -13   7  -8  309.02  112.93
  13   7   8  282.03  122.56
 -13   7  -8  387.29  117.71
 -13   7  -9   43.40   17.11
  13   7   9   58.34   48.91
 -13   7  -9   42.71   38.66
 -13   7 -10   72.05   28.19
  13   7  10   54.84   52.64
 -13   7 -10  118.44  111.09
 -13   7 -11 3105.56  224.13
  13   7  11 2760.78  299.87
 -13   7 -11 3699.90  284.79
  13   7  12  323.70  157.30
 -13   7 -12  262.97  117.25
  13   7  13   26.59   62.46
 -13   7 -13   94.35   58.18
  13   7  14   51.13   70.58
 -13   7 -14  148.42   79.41
  13   7  15 2354.33  164.32
 -13   7 -15 2522.62  186.67
 -13   9  18  352.02  159.98
  13   9 -18  479.44   77.00
 -13   9  17   48.10   53.44
  13   9 -17   36.38   56.51
 -13   9  16 1573.36  160.77
  13   9 -16 1453.82  266.05
 -13   9  15 2088.09  164.16
  13   9 -15 1821.68  100.98
 -13   9  14   40.18   38.42
  13   9 -14   53.72   52.62
  13   9 -14  -30.02   58.25
  13  -9 -14   26.08   31.57
 -13   9  13 1521.10  154.45
  13   9 -13 1242.55  112.46
  13   9 -13 1229.42  124.15
  13  -9 -13 1366.85  111.06
 -13   9  12 1236.14  136.27
  13   9 -12 1274.83  111.72
  13   9 -12 1142.63  147.33
  13  -9 -12 1404.90  112.24
 -13   9  11  437.27  159.70
  13   9 -11  312.98  112.80
  13   9 -11  163.68  133.15
  13  -9 -11  236.62  128.57
 -13   9  10  111.48   64.28
  13   9 -10  167.97   97.24
  13   9 -10  134.38   96.98
  13  -9 -10   89.78   77.69
 -13   9   9  737.50   59.88
  13   9  -9  926.37  119.04
  13   9  -9  628.79  251.15
  13  -9  -9  789.18   91.08
 -13   9   8 3285.62  268.43
  13   9  -8 3235.06  267.87
  13   9  -8 2758.73  237.85
  13  -9  -8 2932.82  244.48
 -13   9   7   40.84   65.85
  13   9  -7   26.23   28.70
  13   9  -7   50.06   26.15
  13  -9  -7   58.94   34.56
 -13   9   6   56.05   43.23
  13   9  -6   84.17   51.74
  13  -9  -6   42.54   17.83
 -13   9   5  227.89  104.25
  13   9  -5  263.55  100.56
  13   9  -5  259.48  100.26
  13  -9  -5  199.58   83.45
 -13   9   4  287.24   99.40
  13   9  -4  148.43  114.84
  13   9  -4  221.55  107.74
  13  -9  -4  196.65  101.38
 -13   9   3 3296.27  266.04
  13   9  -3 3519.78  290.21
  13   9  -3 3389.97  320.99
  13  -9  -3 3649.43  292.04
 -13   9   2   28.96   24.14
  13   9  -2  -12.91   45.15
  13   9  -2  -12.10   35.00
  13  -9  -2   55.20   31.95
 -13   9   1  215.83   81.17
  13   9  -1  334.66  183.61
  13   9  -1  357.99  164.43
  13  -9  -1  399.37  171.26
 -13   9   0  502.25  183.59
  13   9   0  562.48  164.06
  13   9   0  619.69  139.15
  13  -9   0  473.87  192.12
 -13   9  -1   25.49   30.12
  13   9   1   71.86   43.81
  13   9   1   14.29   42.50
 -13   9  -2 2077.53  160.30
  13   9   2 2152.84  113.55
 -13   9  -2 2365.84  229.28
 -13   9  -3  174.23   57.10
  13   9   3  166.19  123.72
 -13   9  -3  164.23   75.66
 -13   9  -4 1167.03   97.63
  13   9   4 1057.94  125.14
 -13   9  -4 1014.47  277.32
 -13   9  -5  177.57   85.91
  13   9   5  194.10  148.64
 -13   9  -5  158.33   45.71
 -13   9  -6 1982.96  150.21
  13   9   6 2026.18  313.81
 -13   9  -6 1846.43  177.18
 -13   9  -7  178.63   65.31
  13   9   7  203.05  105.39
 -13   9  -7  252.45   51.64
 -13   9  -8 1375.05   73.62
  13   9   8 1478.75  196.87
 -13   9  -8 1505.50  162.45
 -13   9  -9  469.34   42.28
  13   9   9  677.36  240.78
 -13   9  -9  500.27  219.26
  13   9  10 1917.88  145.52
 -13   9 -10 1561.61  174.39
 -13  11   8  115.18   64.17
  13  11  -8   -1.04   40.76
  13  11  -8  -12.23   40.91
  13 -11  -8   25.58   27.42
 -13  11   7 2557.76  167.83
  13  11  -7 2202.26  155.95
  13  11  -7 2749.31  197.82
  13 -11  -7 2485.16  154.95
 -13  11   6   23.70   28.57
  13  11  -6   24.66   36.08
  13  11  -6   27.66   46.81
  13 -11  -6   54.25   29.62
 -13  11   5   82.93   47.61
  13  11  -5   80.85   78.71
  13  11  -5   29.14   43.28
  13 -11  -5   50.38   33.33
  13  11  -4  102.63   89.99
  13  11  -4  124.54   60.18
  13 -11  -4   99.57   55.79
 -13  11   3  218.66  171.33
  13  11  -3  386.14  141.19
  13  11  -3  285.92  165.95
  13 -11  -3  213.81  125.52
 -13  11   2    3.25   41.75
  13  11  -2   27.02   42.62
  13 -11  -2   18.20   25.22
 -13  11   1  260.68  136.63
  13  11  -1  157.65   86.78
  13 -11  -1  167.63   84.41
 -13  11   0   31.41   28.22
  13  11   0   44.50   68.63
  13 -11   0   37.43   32.95
  14   0 -27    8.26   52.66
  14   0 -26  794.29   55.94
  14   0 -25   -2.08   42.32
  14   0 -24 3932.09  297.77
  14   0 -23    9.45   37.23
  14   0 -22 2781.94  226.06
 -14   0  21   25.49   18.84
  14   0 -21   40.81   33.58
 -14   0  20  430.15   45.13
  14   0 -20  218.22   92.81
 -14   0  19   12.71   13.62
  14   0 -19   41.49   44.12
 -14   0  18  399.77   43.01
  14   0 -18  421.80  158.00
 -14   0  17   16.21   15.22
  14   0 -17    9.93   35.84
  14   0 -1617231.51  840.58
 -14   0  15   18.48   15.84
  14   0 -15   19.17   17.01
 -14   0  1411373.02  420.34
  14   0 -1412143.82  461.29
 -14   0  13    9.85   12.01
  14   0 -13  -16.93   37.66
 -14   0  12 1703.35  124.05
  14   0 -12 1481.21  119.64
 -14   0  11   78.24   34.00
  14   0 -11   20.78   18.11
 -14   0  10 5325.35  318.95
  14   0 -10 5646.20  340.01
 -14   0   9   56.41   27.44
  14   0  -9   21.87   30.50
 -14   0   8 5483.72   69.17
  14   0  -8 5185.45  279.12
 -14   0   7   71.77   36.81
  14   0  -7   15.78   26.28
 -14   0   6 2817.05  139.85
  14   0  -6 2783.34  152.39
 -14   0   5    3.85   22.60
  14   0  -5   15.29   36.42
 -14   0   4 2704.49  167.06
  14   0  -4 2680.77  142.39
 -14   0   3   36.55   29.42
  14   0  -3   24.50   31.81
 -14   0   216749.49  521.31
  14   0  -220560.91  642.06
 -14   0   1   27.50   44.10
  14   0  -1   18.51   22.88
 -14   0   0 8779.85  275.69
  14   0   0 8778.08  300.20
 -14   0  -1    8.45   14.79
  14   0   1   25.53   23.51
 -14   0  -2  339.92  112.74
  14   0   2  252.29   69.86
 -14   0  -3   34.40   33.23
  14   0   3  -17.97   33.53
 -14   0  -451145.56  268.96
  14   0   449949.91 1214.19
 -14   0  -5   22.14   37.00
  14   0   5   35.20   48.92
 -14   0  -7   27.19   24.32
  14   0   7   36.58   21.75
 -14   0  -819714.26  946.90
  14   0   820992.34  983.80
 -14   0  -9   58.65   47.18
  14   0   9   23.32   13.14
 -14   0 -10 2821.43  217.54
  14   0  11   -5.70   29.85
  14   0  1216223.02  544.81
  14   0  1216236.50  554.80
  14   0  13   29.63   27.10
  14   0  13   -1.48   16.33
  14   0  14 6754.35  397.22
  14   0  14 5161.38  303.37
  14   0  15   -1.59   41.16
  14   0  15    9.73   16.30
  14   0  16  319.96   59.07
  14   0  16  183.09   77.88
  14   2 -27  284.62  141.38
  14   2 -26 1630.98  146.93
  14  -2 -26 1935.30  190.49
  14   2 -25 1840.27  167.78
  14  -2 -25 1547.01  173.75
  14   2 -24   66.21   52.57
  14  -2 -24   42.16   50.30
 -14   2  23  886.85   85.38
  14   2 -23  723.66  115.50
  14  -2 -23  618.84   46.04
 -14   2  22   15.20   15.79
  14   2 -22   66.78   35.38
  14  -2 -22   66.52   54.67
 -14   2  21 1020.87   38.84
  14   2 -21  843.17   79.51
  14  -2 -21  789.54   54.22
  14   2 -20  994.78  148.21
 -14   2  20  909.66   71.41
 -14  -2  20  964.69   34.72
  14  -2 -20  810.41   93.97
  14   2 -19   81.83   69.09
 -14   2  19   81.21   28.61
 -14  -2  19   89.61   40.71
  14  -2 -19   85.01   45.85
  14   2 -18 6954.15  392.38
 -14  -2  18 7242.55  389.87
  14  -2 -18 7000.64  387.76
  14   2 -17  114.61   41.43
 -14   2  17  111.47   44.31
 -14  -2  17  122.20   46.58
  14  -2 -17   43.83   59.41
  14   2 -16 1816.64  183.22
 -14   2  16 1593.79   99.31
 -14  -2  16 1619.60  137.88
  14  -2 -16 1779.76  124.15
 -14   2  15 2750.42  868.96
  14   2 -15 2643.68  194.59
  14  -2 -15 2875.96  201.39
  14   2 -1429610.93 1109.09
 -14   2  1427369.18  992.65
 -14  -2  1425655.14  930.03
  14  -2 -1428716.00 1068.66
  14   2 -13 9520.01  430.46
 -14   2  1310296.36  383.78
 -14  -2  13 8960.98  341.27
  14  -2 -13 9923.33  378.45
  14   2 -12  470.74   66.00
 -14   2  12  496.75  173.72
 -14  -2  12  132.42   49.60
  14  -2 -12  469.10  147.65
  14   2 -11 9067.65  394.78
 -14   2  11 8704.54  382.79
 -14  -2  11 8577.79  402.55
  14  -2 -11 8653.06  415.12
  14   2 -10 5422.19  322.44
 -14   2  10 4720.42  273.60
 -14  -2  10 4926.53  285.35
  14  -2 -10 5101.65  299.37
  14   2  -9 1426.69  117.33
 -14   2   9 1481.66  124.47
 -14  -2   9 1364.70  117.27
  14  -2  -9 1286.54   99.44
  14   2  -8   20.36   28.85
 -14   2   8   39.39   26.59
 -14  -2   8   40.23   37.77
  14  -2  -8   25.76   31.48
  14   2  -7  513.15   52.94
 -14   2   7  513.69   45.26
 -14  -2   7  725.78  106.73
  14  -2  -7  604.68   56.72
  14   2  -6 6560.18  245.75
 -14   2   6 6974.62  230.66
 -14  -2   6 7195.10  233.04
  14  -2  -6 7174.72  235.56
  14   2  -5 4258.97  234.19
 -14   2   5 4435.01  215.03
 -14  -2   5 4050.72  206.86
  14  -2  -5 4715.87  232.90
  14   2  -4  526.73  139.56
 -14   2   4  346.01   35.17
 -14  -2   4  479.75   47.15
  14  -2  -4  459.21  136.58
  14   2  -3 7202.17  235.77
 -14   2   3 6525.24  208.26
 -14  -2   3 5994.52  207.45
  14  -2  -3 6704.92  223.29
  14   2  -2 3585.68  181.82
 -14   2   2 3383.56  174.69
 -14  -2   2 3433.74  175.82
  14  -2  -2 3431.72  178.54
  14   2  -1 4655.50  236.69
 -14   2   1 4642.59  233.29
 -14  -2   1 4940.53  252.16
  14  -2  -1 4813.88  243.86
  14   2   0   68.52   44.12
 -14   2   0   97.35   22.88
 -14  -2   0  194.31   63.61
  14  -2   0  172.01   76.22
  14   2   132826.36  808.94
 -14   2  -134203.51  835.38
 -14  -2  -134234.86  842.15
  14  -2   133539.44  825.55
  14   2   2 2570.03  181.18
 -14   2  -2 2927.34  173.08
 -14  -2  -2 3373.88  206.56
  14  -2   2 2650.06  165.66
  14   2   3 3431.35  242.64
 -14   2  -3 3129.76  218.72
 -14  -2  -3 3398.03  242.95
  14  -2   3 3156.34  226.05
  14   2   4  108.04   34.50
 -14   2  -4  112.85   35.47
 -14  -2  -4   76.54   44.07
  14  -2   4   59.51   36.08
 -14   2  -5  126.00   40.74
  14   2   5  131.21   32.99
  14   2   5  107.98   42.88
  14  -2   5  130.42   58.52
 -14   2  -6   11.01   22.62
  14   2   6   17.23   28.52
  14  -2   6    0.38   21.74
 -14   2  -7 3312.43  219.04
  14   2   7 2848.69  195.98
  14  -2   7 2912.26  199.04
 -14   2  -8 7072.41  354.84
  14   2   8 6566.19  327.31
  14   2   8 7084.92  340.52
  14  -2   8 5908.01  112.95
 -14   2  -9 1409.90  102.94
  14   2   9 1249.18   59.34
  14   2   9 1332.61   99.10
  14  -2   9 1169.35   61.32
 -14   2 -10  326.82   34.79
  14   2  10  343.95  157.98
  14   2  10  407.55   39.10
  14  -2  10  384.32  116.14
 -14   2 -11 2535.55  193.20
  14   2  11 2360.59  217.40
  14   2  11 2438.03  184.58
  14  -2  11 2686.87  209.02
 -14   2 -12 6346.20  232.38
  14   2  12 6021.65  229.09
  14   2  12 6475.11  231.96
  14  -2  12 6646.91  242.82
 -14   2 -13  105.36   61.81
  14   2  13   97.61   94.24
  14   2  13  101.36   42.39
  14  -2  13  151.05   49.81
  14   2  14   43.92   33.52
  14  -2  14   23.57   34.00
  14   2  15 1356.25  140.83
  14  -2  15 1057.96  105.17
  14  -2  15 1059.20  115.25
  14   2  16   50.24   38.99
  14  -2  16    0.24   27.49
  14   2  17   46.51   41.31
  14  -2  17   63.39   38.30
  14  -2  18   18.92   47.15
  14   4 -26  354.31  220.04
  14   4 -25 3040.86  231.00
 -14   4  24 1703.80   61.40
  14   4 -24 1653.14  176.94
 -14   4  23   35.34   29.66
  14   4 -23   69.76   50.28
  14  -4 -23   13.57   56.47
 -14   4  22  785.03   47.93
  14   4 -22  781.35  105.98
  14  -4 -22  701.62   48.99
 -14   4  21   10.61   29.58
  14   4 -21   48.89   34.68
  14  -4 -21   19.94   21.25
 -14   4  20 2556.84  199.12
  14   4 -20 2740.24  236.56
  14  -4 -20 2642.48  209.08
  14   4 -19 2748.12  222.81
  14   4 -19 2696.90  228.54
  14  -4 -19 2882.81  161.75
 -14   4  18  216.09   83.16
  14   4 -18   77.33   57.70
  14  -4 -18  222.30   37.81
 -14   4  17 3653.51  128.50
  14   4 -17 4015.58  152.14
  14   4 -17 3571.13  264.60
  14  -4 -17 3526.74  276.23
 -14   4  16 9380.48  517.88
  14   4 -16 9366.36  504.52
  14   4 -16 9009.46  501.27
  14  -4 -16 9258.93  501.39
 -14   4  15   47.12   57.51
  14   4 -15  235.95   94.91
  14   4 -15  193.50   77.54
  14  -4 -15  140.04   63.30
 -14   4  14  156.28   80.00
  14   4 -14  243.07   85.77
  14   4 -14  210.36   96.16
  14  -4 -14  215.55   74.70
 -14   4  13 1418.06  102.90
  14   4 -13 1184.37  120.35
  14   4 -13 1391.68  108.34
  14  -4 -13 1533.96  104.68
 -14   4  12 1136.76  192.50
  14   4 -12 1075.45   79.67
  14   4 -12 1116.83  183.05
  14  -4 -12 1184.74   86.88
 -14   4  11 2568.36  251.85
  14   4 -11 2303.27  144.77
  14   4 -11 2043.07  133.78
  14  -4 -11 2018.89  110.72
 -14   4  1011522.39  429.93
  14   4 -1012200.57  456.93
  14   4 -1011307.90  460.84
  14  -4 -1012399.37  464.00
 -14   4   9 1121.55   77.80
  14   4  -9 1213.71   81.83
  14   4  -9 1087.73   74.04
  14  -4  -9 1070.68   91.91
 -14   4   8 3056.42  216.66
  14   4  -8 3250.43  243.79
  14   4  -8 3282.62  237.78
  14  -4  -8 3470.68  247.30
 -14   4   7   36.20   22.11
  14   4  -7   28.35   41.37
  14   4  -7   60.22   38.01
  14  -4  -7   25.13   28.39
 -14   4   6 1757.13  132.01
  14   4  -6 1946.98  146.86
  14   4  -6 1612.30   68.42
  14  -4  -6 1672.25  129.76
 -14   4   5 1445.62   69.91
  14   4  -5 1612.72   63.17
  14   4  -5 1100.57   72.89
  14  -4  -5 1357.74  102.16
 -14   4   4  933.85   63.81
  14   4  -4  900.83  155.54
  14   4  -4  896.05   91.39
  14  -4  -4 1016.60   56.82
 -14   4   3 1143.80   46.71
  14   4  -3 1188.42   61.00
  14   4  -3 1359.09   64.87
  14  -4  -3 1487.20   64.53
 -14   4   2 6559.63  290.19
  14   4  -2 7281.60  322.25
  14   4  -2 6637.52  320.56
  14  -4  -2 6665.38  293.81
 -14   4   1  341.34   28.99
  14   4  -1  464.36  160.07
  14   4  -1  256.11   83.15
  14  -4  -1  382.17   96.67
 -14   4   0 6196.17  265.15
  14   4   0 6171.66  278.53
  14   4   0 6048.61  266.55
  14  -4   0 5994.76  266.65
 -14   4  -1 1213.84   68.70
  14   4   1 1459.80   98.82
  14   4   1 1196.17   73.67
  14  -4   1 1237.23   79.73
 -14   4  -2 2026.23   99.72
  14   4   2 2273.78  167.32
  14   4   2 2241.93  147.64
  14  -4   2 2878.30  176.58
 -14   4  -3   66.13   34.78
  14   4   3   71.85   55.31
  14  -4   3  179.63   58.18
 -14   4  -4  380.72   87.31
  14   4   4  391.74  125.56
  14   4   4  312.99   70.87
  14  -4   4  369.99  133.32
 -14   4  -5  512.84   44.64
  14   4   5  439.61   58.94
  14   4   5  477.84  116.69
  14  -4   5  444.25  124.47
 -14   4  -6 1278.32   79.11
  14   4   6 1522.73  124.92
  14   4   6 1542.62  175.40
  14  -4   6 1438.70  111.92
 -14   4  -7 2280.42  155.97
  14   4   7 2281.14  174.60
  14   4   7 2373.91  164.03
  14  -4   7 2499.14  182.65
 -14   4  -8  469.55   31.42
  14   4   8  450.64  209.20
  14   4   8  603.86   88.87
  14  -4   8  457.77  174.01
 -14   4  -9  434.77   95.55
  14   4   9  358.73  151.32
  14   4   9  345.75   65.35
  14  -4   9  257.99   83.79
 -14   4 -10  455.81   93.50
  14   4  10  639.73   61.20
  14  -4  10  436.52  136.24
 -14   4 -11   67.32   25.93
  14   4  11   -0.60   43.73
  14  -4  11   31.53   21.22
 -14   4 -12 3615.41  212.66
  14   4  12 3510.52  260.03
  14  -4  12 3542.32  221.52
 -14   4 -13  128.04   42.29
  14   4  13   33.04   52.15
  14  -4  13  109.64   49.48
 -14   4 -14 3385.99  246.56
  14  -4  14 3395.94  260.25
  14   4  15   46.04   38.66
  14   4  16 2044.34  138.93
  14  -4  16 2019.52   86.62
  14   4  17  109.13  116.19
  14  -4  17   97.42  117.20
  14   4  18   87.61   50.80
  14  -4  18   48.12   19.54
 -14   6  23 1189.26   99.05
  14   6 -23  561.67  260.06
 -14   6  22 5542.53  368.10
  14   6 -22 6045.81  416.47
 -14   6  21 1910.37   86.41
  14   6 -21 1774.00  101.78
  14   6 -20  349.62  164.00
  14  -6 -20  555.57   43.72
 -14   6  19   89.49   67.86
  14   6 -19   10.10   39.23
  14  -6 -19   47.25   26.78
 -14   6  18  166.48   62.60
  14   6 -18   60.58   45.48
  14   6 -18  151.92   57.14
  14  -6 -18  104.77   33.80
 -14   6  17  147.26   61.87
  14   6 -17  179.73   90.35
  14   6 -17  160.26  102.42
  14  -6 -17  113.41   44.34
 -14   6  16 2915.12  185.65
  14   6 -16 3552.48  217.05
  14   6 -16 3330.36  223.79
  14  -6 -16 2788.30  255.34
 -14   6  15 5056.30  274.48
  14   6 -15 4444.27  276.28
  14   6 -15 4498.90  272.54
  14  -6 -15 4449.24  237.95
 -14   6  14 1092.89  140.40
  14   6 -14 1116.23   58.75
  14   6 -14 1287.25   99.33
  14  -6 -14 1154.72   54.33
 -14   6  13 2006.65  162.77
  14   6 -13 2114.95  165.01
  14   6 -13 2242.63  197.77
  14  -6 -13 2114.18  161.03
 -14   6  12 1739.19  142.93
  14   6 -12 1740.77  143.84
  14   6 -12 1506.28  142.28
  14  -6 -12 1878.16  148.80
 -14   6  11  902.22  314.18
  14   6 -11  849.48  134.77
  14   6 -11  967.25  159.35
  14  -6 -11 1013.67   52.77
 -14   6  1014522.52  564.69
  14   6 -1012222.96  482.11
  14   6 -1012032.39  484.99
  14  -6 -1012215.37  474.51
 -14   6   9   18.35   56.12
  14   6  -9   -3.40  104.34
  14   6  -9   59.32   34.39
  14  -6  -9   35.08   31.31
 -14   6   8 1058.80   71.86
  14   6  -8 1008.35   61.96
  14   6  -8  882.02  114.80
  14  -6  -8  951.42   61.57
 -14   6   7   42.62   33.26
  14   6  -7   14.84   26.87
  14   6  -7   18.15   26.25
  14  -6  -7    8.18   35.06
 -14   6   6 2000.71  148.35
  14   6  -6 2079.69  161.43
  14   6  -6 2313.72  268.07
  14  -6  -6 1541.47  121.44
 -14   6   5   46.39   30.08
  14   6  -5  -18.91   48.31
  14   6  -5   58.16   33.19
  14  -6  -5   -8.02   32.29
 -14   6   4  259.79   91.09
  14   6  -4  104.42   81.41
  14   6  -4  445.53   62.79
  14  -6  -4  554.43  172.62
 -14   6   3 4732.42  315.78
  14   6  -3 4784.49  327.63
  14   6  -3 4692.79  315.90
  14  -6  -3 4440.48  297.48
 -14   6   2 1089.41   46.99
  14   6  -2 1026.61  115.58
  14   6  -2 1265.28   82.70
  14  -6  -2 1145.72  112.12
 -14   6   1  854.49   43.97
  14   6  -1  875.55  132.42
  14   6  -1  945.34   85.22
  14  -6  -1  851.01   51.87
 -14   6   0   42.28   27.61
  14   6   0   36.35   42.06
  14   6   0   10.00   22.31
  14  -6   0   32.09   39.39
 -14   6  -1 3126.83  214.60
  14   6   1 3511.76  192.71
  14   6   1 3398.79   83.75
  14  -6   1 3095.90  242.45
 -14   6  -2  329.24  121.49
  14   6   2  324.51   82.72
  14   6   2  255.80  112.74
  14  -6   2  304.60   95.35
 -14   6  -3 1323.74  104.80
  14   6   3 1405.24  133.74
  14   6   3 1335.20   75.15
  14  -6   3 1365.71  124.47
 -14   6  -4 1359.38   53.22
  14   6   4 1405.79  159.42
  14   6   4 1162.21  113.92
  14  -6   4 1310.72   75.60
 -14   6  -5 2905.46  211.51
  14   6   5 2833.67  226.78
  14   6   5 3016.24  220.59
  14  -6   5 2634.19  206.39
 -14   6  -6 2269.87  165.17
  14   6   6 2035.32  176.95
 -14   6  -6 2424.12  254.43
  14   6   6 1931.05  144.76
 -14   6  -7   25.68   17.98
  14   6   7   37.65   52.01
 -14   6  -7   22.81   33.15
 -14   6  -8  787.76   62.63
  14   6   8  778.69   89.45
 -14   6  -8  774.49  245.36
 -14   6  -9 4072.94  236.33
  14   6   9 4152.19  265.26
 -14   6  -9 3744.31  278.58
 -14   6 -10 3874.90  299.21
  14   6  10 3330.04  307.58
 -14   6 -10 3930.68  319.41
 -14   6 -11  898.44   89.18
  14   6  11 1070.47  106.82
 -14   6 -11  951.23  281.81
 -14   6 -12   49.26   35.48
  14   6  12   10.24   33.23
 -14   6 -12   43.25   50.28
  14   6  13  314.18  135.77
 -14   6 -13  168.22  103.14
  14   6  14  749.91  146.83
 -14   6 -14  803.60  106.36
  14   6  15 1167.22  108.37
 -14   6 -15 1104.97  125.65
 -14   8  20  551.18  126.52
  14   8 -20  203.70  147.04
 -14   8  19 1553.71  127.26
  14   8 -19 1663.06  186.03
 -14   8  18   24.03   25.67
  14   8 -18   22.83   31.79
 -14   8  17  685.46  118.31
  14   8 -17  493.32  259.48
 -14   8  16   14.77   50.30
  14   8 -16    3.85   27.20
  14   8 -16   19.62   24.92
  14  -8 -16   42.84   36.40
 -14   8  15   43.36   60.32
  14   8 -15   25.63   42.76
  14   8 -15  165.67   92.00
 -14   8  14  495.47  205.94
  14   8 -14  955.25   91.60
  14   8 -14  913.29  115.80
  14  -8 -14  675.35   72.45
 -14   8  13   -0.62   30.94
  14   8 -13   31.21   54.85
  14   8 -13   92.83   48.51
  14  -8 -13   13.86   36.10
 -14   8  12 7315.83  572.45
  14   8 -12 6598.14  516.53
  14   8 -12 5887.84  485.80
  14  -8 -12 6546.23  505.82
 -14   8  11   33.02   40.08
  14   8 -11   26.50   23.98
  14   8 -11   40.42   33.96
  14  -8 -11   48.77   37.37
 -14   8  10  239.23   78.00
  14   8 -10  106.20   68.41
  14   8 -10  138.05   55.12
  14  -8 -10  183.26   74.69
 -14   8   9  622.15  107.70
  14   8  -9  491.31  148.99
  14   8  -9  471.48  147.33
  14  -8  -9  392.58   39.33
 -14   8   8   47.71   43.08
  14   8  -8   22.17   45.64
  14   8  -8   74.83   62.39
  14  -8  -8   83.49   40.38
 -14   8   7 1474.76  129.80
  14   8  -7 1291.80  134.43
  14   8  -7 1632.75  150.26
  14  -8  -7 1357.72  119.11
 -14   8   6 1948.32  168.51
  14   8  -6 1890.76  221.75
  14   8  -6 1768.19  179.53
  14  -8  -6 1906.75  188.46
 -14   8   5  208.52   72.01
  14   8  -5  133.69  100.62
  14   8  -5  292.42  142.14
  14  -8  -5  264.06   76.68
 -14   8   4  509.28  179.31
  14   8  -4  535.16  197.08
  14  -8  -4  634.29   77.38
 -14   8   3   90.40   32.72
  14   8  -3   19.53   61.05
  14   8  -3   56.73   54.86
  14  -8  -3   59.17   32.89
 -14   8   2 4554.85  244.79
  14   8  -2 5055.22  286.34
  14   8  -2 4483.56  256.68
  14  -8  -2 4955.36  269.56
 -14   8   1 3368.96  200.84
  14   8  -1 3604.47  214.43
  14   8  -1 3692.55  207.07
  14  -8  -1 4755.40  263.21
 -14   8   012532.15  155.56
  14   8   012645.52  220.78
  14   8   012370.83  197.28
  14  -8   011527.41  682.02
 -14   8  -1 1532.66  128.73
  14   8   1 1776.41  341.46
  14   8   1 1712.63  143.45
  14  -8   1 1772.45  274.90
 -14   8  -2  131.27   33.59
  14   8   2  123.24   56.53
  14   8   2  112.68   54.81
  14  -8   2  162.50   62.19
 -14   8  -3   58.92   44.76
  14   8   3   97.62   89.07
 -14   8  -4 1173.68  135.30
  14   8   4 1107.85  166.72
 -14   8  -4 1396.23  175.28
 -14   8  -5  502.15   48.88
  14   8   5  415.21  155.65
 -14   8  -5  462.91  149.62
 -14   8  -6   22.05   22.88
  14   8   6   43.77   70.14
 -14   8  -6   63.60   46.23
 -14   8  -7  604.39   43.51
  14   8   7  480.82   63.35
 -14   8  -7  777.04  254.58
 -14   8  -8 1293.14  114.32
  14   8   8 1269.38  121.75
 -14   8  -8 1437.20  153.64
 -14   8  -9   13.21   20.86
  14   8   9  108.71   56.55
 -14   8  -9   -5.10   48.43
 -14   8 -10 2426.07  162.18
  14   8  10 2481.31  191.66
 -14   8 -10 2221.26  242.64
  14   8  11   56.92   44.40
 -14   8 -11   45.78   25.95
 -14   8 -12  119.21   78.96
 -14  10  13    3.08   33.66
  14  10 -13   48.77   39.35
  14  10 -13   90.35   57.81
  14 -10 -13   16.17   35.35
 -14  10  12  186.23   79.99
  14  10 -12   96.59   66.25
  14  10 -12  124.90   73.01
  14 -10 -12  137.54   79.02
 -14  10  11   77.58   54.73
  14  10 -11   74.95   64.15
  14  10 -11   66.91   60.30
  14 -10 -11   62.02   48.74
 -14  10  10  950.81  194.14
  14  10 -10 1263.10  124.32
  14  10 -10 1160.74  218.48
  14 -10 -10 1286.82  114.17
 -14  10   9 4221.75  330.93
  14  10  -9 4179.05  303.58
  14 -10  -9 4669.59  311.76
 -14  10   8   21.94   39.38
  14  10  -8   64.37   44.32
  14  10  -8    9.83   54.02
  14 -10  -8   34.16   19.21
 -14  10   7  336.04  192.49
  14  10  -7  390.80  228.06
  14  10  -7  474.24   72.22
  14 -10  -7  316.16  159.81
 -14  10   6  325.15  137.84
  14  10  -6  194.01  165.80
  14  10  -6  177.61   68.64
  14 -10  -6  217.52  121.87
 -14  10   5  331.53  185.94
  14  10  -5  455.13  296.08
  14  10  -5  547.21   95.82
  14 -10  -5  505.49  189.22
 -14  10   4 1238.51  140.43
  14  10  -4 1494.46  106.48
  14  10  -4 1365.71  235.95
  14 -10  -4 1508.81  155.21
 -14  10   3 1664.76   84.52
  14  10  -3 1970.84  112.33
  14  10  -3 1760.98  163.30
  14 -10  -3 1862.98  144.11
 -14  10   2 2364.63  154.81
  14  10  -2 2675.84  186.60
  14  10  -2 2024.59  137.16
  14 -10  -2 2012.47   84.50
 -14  10   1 2828.52  171.71
  14  10  -1 3483.37  223.53
  14 -10  -1 2978.16  186.61
 -14  10   0 3735.75  216.29
  14  10   0 3498.41  325.74
  14 -10   0 3589.53  216.80
 -14  10  -1   52.85   58.92
  14  10   1   89.35   91.26
  14 -10   1   36.47   30.56
 -14  10  -2 3186.19  234.91
  14  10   2 3024.39  228.50
  14 -10   2 2922.41  209.51
 -14  10  -3  167.32   89.50
  14  10   3  116.52  118.99
 -14  10  -4  160.87   70.11
 -14  10  -4  173.13  126.01
 -14  10  -5  531.82  102.17
  14  10   5  211.20  263.71
 -14  10  -5  715.34  206.08
  15   1 -27  193.66  160.10
  15  -1 -27  106.85  127.73
  15   1 -26 2904.39  263.68
  15  -1 -26 3047.12  217.54
  15   1 -25   61.63   57.89
  15  -1 -25   48.79   45.81
  15   1 -24   49.71   56.11
  15  -1 -24   29.52   50.42
  15   1 -23   34.76   61.13
  15  -1 -23   59.86   43.73
 -15   1  22  777.05   49.16
  15   1 -22  764.84   88.04
  15  -1 -22  575.43  137.96
  15   1 -21   11.16   37.08
 -15   1  21   27.90   17.08
 -15  -1  21   27.48   12.93
  15  -1 -21   40.23   33.26
  15   1 -20 1778.03  156.31
 -15   1  20 1555.32  124.33
 -15  -1  20 1551.59  123.63
  15  -1 -20 1707.80  148.48
  15   1 -19  351.89  133.19
 -15   1  19  549.22   58.87
 -15  -1  19  509.52   53.18
  15  -1 -19  518.79  100.47
  15   1 -18   36.63   56.30
 -15   1  18   11.00   16.22
 -15  -1  18    4.22   18.57
  15  -1 -18   46.98   38.29
  15   1 -17 2117.62  177.60
 -15  -1  17 2463.49  176.05
  15  -1 -17 2505.88  184.96
 -15   1  16  124.13   39.79
  15   1 -16  150.96   97.76
  15  -1 -16   95.32   86.49
  15   1 -1513534.59  649.57
 -15   1  1513288.01  627.29
 -15  -1  1513946.99  668.07
  15  -1 -1512332.43  591.43
  15   1 -14   45.52   40.36
 -15   1  14   25.03   23.27
 -15  -1  14   30.90   23.91
  15  -1 -14   14.85   38.39
  15   1 -13   84.03   89.78
 -15   1  13   18.26   12.03
 -15  -1  13   60.82   23.40
  15  -1 -13  171.81   49.86
  15   1 -12 2983.11  218.90
 -15   1  12 3164.60  237.51
 -15  -1  12 3003.91  220.28
  15  -1 -12 2552.67  186.69
  15   1 -11 1606.88  128.18
 -15   1  11 1924.95  143.65
 -15  -1  11 2275.40  165.29
  15  -1 -11 1980.24  183.41
  15   1 -10 3204.28  233.04
 -15   1  10 2939.51  233.49
 -15  -1  10 3100.15  219.40
  15  -1 -10 3514.97  250.64
  15   1  -9 5985.97  365.54
 -15   1   9 6106.32  350.29
 -15  -1   9 6571.79  179.03
  15  -1  -9 6649.74  191.92
  15   1  -8 3558.20  218.53
 -15   1   8 3031.48  186.85
 -15  -1   8 3152.88  188.93
  15  -1  -8 2960.41  183.02
  15   1  -7   45.11   40.06
 -15   1   7   90.22   28.68
 -15  -1   7  105.84   48.67
  15  -1  -7   11.92   47.82
  15   1  -6 8419.87  235.40
 -15   1   6 7134.17  224.51
 -15  -1   6 6713.77  211.92
  15  -1  -6 7881.17  218.87
  15   1  -5 2169.09  143.51
 -15   1   5 2050.99  161.78
 -15  -1   5 2034.32  147.33
  15  -1  -5 2555.37  164.93
  15   1  -4  411.29   35.95
 -15   1   4  580.70   62.53
 -15  -1   4  473.94  124.62
  15  -1  -4  526.55  161.20
  15   1  -322134.05  568.98
 -15   1   320759.07  511.16
 -15  -1   324245.99  599.88
  15  -1  -322824.45  597.48
  15   1  -2   24.30   30.25
 -15   1   2   36.33   38.07
 -15  -1   2   44.23   46.53
  15  -1  -2   56.63   36.57
  15   1  -1   14.26   35.82
 -15   1   1   11.34   30.50
 -15  -1   1   25.27   23.04
  15  -1  -1   29.79   49.72
  15   1   0 8136.99  222.92
 -15   1   0 7468.87  197.71
 -15  -1   0 8144.77  221.49
  15  -1   0 7601.75  212.60
  15   1   1  121.47   31.29
 -15   1  -1  101.07   41.60
 -15  -1  -1  142.57   76.96
  15  -1   1  151.20   46.59
  15   1   2  393.27  111.68
 -15   1  -2  298.06   71.39
 -15  -1  -2  291.09   74.54
  15  -1   2  309.78   86.11
  15   1   3 6174.49  314.31
 -15   1  -3 5720.22  245.62
 -15  -1  -3 6103.57  267.11
  15  -1   3 6059.97  266.68
  15   1   4 3054.50  178.08
 -15   1  -4 2476.89  158.23
 -15  -1  -4 2630.93  167.29
  15  -1   4 3137.31  184.54
  15   1   5  694.57   56.62
 -15   1  -5  680.42   48.65
 -15  -1  -5  571.62  144.52
  15  -1   5  713.10   51.54
  15   1   6 4386.71  291.13
 -15   1  -6 4319.21  286.67
 -15  -1  -6 4892.10  326.62
  15  -1   6 3916.54  286.02
 -15   1  -720272.36  951.09
 -15  -1  -720810.51  992.88
  15  -1   718807.35  903.10
 -15   1  -8 3948.19  210.25
  15   1   8 4654.76  201.17
  15  -1   8 4179.57  178.57
 -15   1  -9 6478.74  355.08
  15   1   9 6201.75  369.16
  15   1   9 6581.44  359.21
  15  -1   9 5517.34  306.53
 -15   1 -10 6510.71  374.96
  15   1  10 6876.17  380.27
  15   1  10 7562.57  412.41
  15  -1  10 6580.79  362.71
 -15   1 -11 3835.71  151.08
  15   1  11 3340.47  268.28
  15   1  11 3174.36  236.16
 -15   1 -12   32.16   21.08
  15   1  12   29.95   30.56
  15   1  12   -5.41   27.32
  15  -1  12    7.24   23.74
  15   1  13 1566.24  134.83
  15   1  13 1824.29  152.74
  15  -1  13 1780.43  146.27
  15  -1  13 1832.02  150.67
  15   1  14 1082.69  188.51
  15   1  14  901.16   89.81
  15  -1  14  961.35   99.34
  15  -1  14 1005.60  158.50
  15   1  15   54.13   39.37
  15  -1  15   28.71   17.93
  15  -1  15   57.00   52.97
  15   1  16   14.52   27.77
  15  -1  16   46.71   44.03
  15   3 -26  316.22  143.33
  15   3 -25   61.46   55.68
  15  -3 -25   16.38   40.38
 -15   3  24  379.05   46.90
  15   3 -24  258.11  201.71
  15  -3 -24  410.64   39.57
 -15   3  23   62.36   36.92
  15   3 -23   39.41   63.20
  15  -3 -23   86.16   39.98
 -15   3  22 1457.34  113.37
  15   3 -22 1230.58  116.55
  15  -3 -22 1185.52  100.65
 -15   3  21   89.22   45.96
  15   3 -21  140.99   69.79
  15  -3 -21   21.09   30.95
 -15   3  20 1031.47   43.41
  15   3 -20  941.56   86.16
  15  -3 -20  898.96   63.44
  15   3 -19  694.06   91.65
 -15   3  19  704.94   36.23
 -15  -3  19  726.65   84.33
  15  -3 -19  791.24  115.81
  15   3 -18 1128.18  326.07
 -15   3  18 1112.42   94.34
 -15  -3  18 1110.22   52.60
  15  -3 -18 1166.36   61.00
  15   3 -17 3868.27  301.70
 -15   3  17 3349.29  271.36
 -15  -3  17 3722.68  276.75
  15  -3 -17 4168.81  102.40
  15   3 -16 9490.00  573.35
 -15   3  1610800.56  578.68
 -15  -3  16 9922.86  538.03
  15  -3 -1610537.48  591.23
  15   3 -15 3380.18  110.88
 -15   3  15 3087.35  210.60
 -15  -3  15 3078.70  210.70
  15  -3 -15 3409.29   91.31
 -15   3  14   78.00   33.14
  15   3 -14  277.58   92.63
  15  -3 -14  183.18   76.68
  15   3 -13 3863.05  270.50
 -15   3  13 4711.51  324.38
 -15  -3  13 4970.01  326.49
  15  -3 -13 5365.62  355.60
  15   3 -12 1544.13  215.23
 -15   3  12 1231.96   74.61
 -15  -3  12 1140.37   69.63
  15  -3 -12 1356.98   87.73
  15   3 -11  526.58  163.65
 -15   3  11  376.45  105.52
 -15  -3  11  517.69  137.35
  15  -3 -11  358.14  104.24
  15   3 -10  491.34  144.26
 -15   3  10  485.06  123.63
 -15  -3  10  386.71  123.13
  15  -3 -10  353.31   88.09
  15   3  -9  546.24  162.99
 -15   3   9  533.31   34.99
 -15  -3   9  459.34   36.93
  15  -3  -9  517.20   91.43
  15   3  -8   19.65   36.18
 -15   3   8   45.73   31.76
 -15  -3   8   17.88   22.87
  15  -3  -8   18.10   22.19
  15   3  -7 2684.02  196.26
 -15   3   7 3103.68  241.99
 -15  -3   7 3163.89  225.71
  15  -3  -7 2829.42  205.25
  15   3  -6 1964.46  151.77
 -15   3   6 1875.64  148.57
 -15  -3   6 1644.27  190.30
  15  -3  -6 1835.85  188.48
  15   3  -5 1930.29  148.28
 -15   3   5 1892.62  139.89
 -15  -3   5 1811.85  140.74
  15  -3  -5 1764.74  148.71
  15   3  -4 1567.83  110.34
 -15   3   4 1782.70  130.54
 -15  -3   4 1681.36  188.13
  15  -3  -4 1737.35  137.06
  15   3  -3 1403.78   74.84
 -15   3   3 1410.51   55.85
 -15  -3   3 1717.20  134.19
  15   3  -2 4731.94  229.66
 -15   3   2 5488.86  236.00
 -15  -3   2 5244.66  237.06
  15  -3  -2 5346.42  262.07
  15   3  -1 8687.61  375.44
 -15   3   1 9134.87  392.00
 -15  -3   1 9195.78  396.86
  15  -3  -1 9633.65  411.93
 -15   3   0 9376.12  411.39
  15   3   010830.60  460.67
  15  -3   0 9713.20  416.26
 -15   3  -1  106.11   29.09
  15   3   1   32.97   28.88
  15   3   1   38.78   24.25
  15  -3   1   14.88   22.73
 -15   3  -2  690.17   95.79
  15   3   2  590.09   51.54
  15   3   2  668.02   65.01
  15  -3   2  597.65   67.43
 -15   3  -3 6748.76  255.70
  15   3   3 6637.16  267.87
  15   3   3 6219.94  242.46
  15  -3   3 6846.20  270.16
 -15   3  -4 1420.42  116.49
  15   3   4 1632.18  149.86
  15  -3   4 1223.20  139.08
 -15   3  -5  159.95   57.09
  15   3   5   72.52   51.57
  15   3   5  144.96   65.00
  15  -3   5   68.43   49.00
 -15   3  -6   35.23   36.36
  15   3   6   38.90   34.22
  15   3   6   17.49   11.57
  15  -3   6   96.34   50.88
 -15   3  -7  246.54   72.55
  15   3   7  216.04  123.19
  15   3   7  305.20   92.87
  15  -3   7  323.38  122.89
 -15   3  -8  160.58   79.55
  15   3   8  261.11  101.12
  15   3   8  223.38   83.95
  15  -3   8  160.50   91.37
 -15   3  -9  785.10   38.13
  15   3   9  781.27  206.73
  15   3   9  764.91  106.88
  15  -3   9  782.90   88.40
 -15   3 -10 1477.33  137.68
  15   3  10 2091.17  179.87
  15   3  10 1501.03  122.83
  15  -3  10 1532.68  181.93
 -15   3 -11  301.25   98.58
  15   3  11  254.05  102.34
  15   3  11  269.12   50.83
  15  -3  11  290.09  127.39
 -15   3 -12   17.58   23.02
  15   3  12   38.51   36.27
  15  -3  12   45.16   28.05
 -15   3 -13  674.06   37.81
 -15   3 -14  130.48   43.38
  15   3  14   51.40   62.30
  15  -3  14  144.77   90.67
  15   3  15    5.67   30.58
  15  -3  15  -11.57   28.81
  15   3  16   70.22   67.01
  15  -3  16   58.56   54.55
  15   3  17 1373.44  123.58
  15  -3  17 1471.00  146.52
 -15   5  24   37.69   26.55
  15   5 -24   44.65   39.25
 -15   5  23  155.44   84.65
  15   5 -23  127.89   87.45
 -15   5  22  611.09   58.50
  15   5 -22  616.26  146.80
  15  -5 -22  784.68   60.37
 -15   5  21 3135.41  189.19
  15   5 -21 4011.00  245.34
  15  -5 -21 3282.59  263.76
  15   5 -20  389.51  245.61
  15  -5 -20  239.91  129.77
 -15   5  19 4604.91  392.19
  15   5 -19 4614.74  375.89
  15  -5 -19 4309.27  359.19
 -15   5  18 7013.51  409.93
  15   5 -18 7619.64  443.28
  15   5 -18 6470.58  400.28
  15  -5 -18 6481.84  380.93
 -15   5  17    6.00   27.36
  15   5 -17   31.71   22.64
  15   5 -17   62.92   68.78
  15  -5 -17   27.49   28.45
 -15   5  1610197.18  521.35
  15   5 -1610382.91  528.85
  15   5 -1610484.33  190.82
  15  -5 -16 9567.17  489.77
 -15   5  15 1302.68   66.80
  15   5 -15 1414.88  115.40
  15   5 -15 1428.18  235.93
  15  -5 -15 1242.28  113.84
 -15   5  14 1581.48  137.15
  15   5 -14 1773.60  161.91
  15   5 -14 1585.51  210.41
  15  -5 -14 1914.27  149.16
 -15   5  13  468.79  145.46
  15   5 -13  342.28  118.36
  15   5 -13  534.82  176.82
  15  -5 -13  407.88  167.01
 -15   5  12  444.60  142.55
  15   5 -12  324.81  113.11
  15   5 -12  465.86  183.35
  15  -5 -12  419.96  140.64
 -15   5  11 9945.41  391.94
  15   5 -11 9913.19  435.22
  15   5 -1110897.67  440.74
  15  -5 -11 8952.28  373.40
 -15   5  10 1530.18  211.95
  15   5 -10 1554.32  169.57
  15   5 -10 1504.39  121.44
  15  -5 -10 1520.34  119.46
 -15   5   9 5089.03  211.02
  15   5  -9 5212.70  222.32
  15   5  -9 4848.51  214.78
  15  -5  -9 4896.55  208.13
 -15   5   8  197.27   69.06
  15   5  -8  182.07  100.55
  15   5  -8  138.18   36.97
  15  -5  -8  152.59  122.62
 -15   5   7 6743.13  329.19
  15   5  -7 6753.18  354.68
  15   5  -7 7095.42  357.90
  15  -5  -7 6683.47  331.19
 -15   5   6 1977.74  129.42
  15   5  -6 2043.85   95.50
  15   5  -6 1679.64  156.12
  15  -5  -6 2036.13   85.19
 -15   5   5 2133.93   70.69
  15   5  -5 2016.39   91.02
  15   5  -5 2229.44  169.75
  15  -5  -5 2210.06  160.59
 -15   5   4 5445.20  358.25
  15   5  -4 5517.66  372.05
  15   5  -4 4975.54  358.05
  15  -5  -4 4563.13  306.86
 -15   5   3  611.22   36.60
  15   5  -3  388.42   48.44
  15   5  -3  604.22  174.85
  15  -5  -3  695.91  180.91
 -15   5   2  137.36   36.98
  15   5  -2  139.37   65.45
  15   5  -2  107.92   59.71
  15  -5  -2  131.55   70.53
 -15   5   1 2954.79  220.58
  15   5  -1 2856.88  258.93
  15   5  -1 2804.63  231.76
  15  -5  -1 3331.50  228.74
 -15   5   0  824.26   61.07
  15   5   0  874.43   73.55
  15   5   0  910.69  165.08
  15  -5   0  870.06  109.27
 -15   5  -1 1426.16  107.23
  15   5   1 1429.94  124.75
  15  -5   1 1236.23   79.67
 -15   5  -2  455.83   34.51
  15   5   2  569.07  188.65
  15   5   2  391.00  125.24
  15  -5   2  295.05  113.06
 -15   5  -3 2387.24  170.09
  15   5   3 2903.24  215.19
  15   5   3 2665.10  190.40
  15  -5   3 2178.62  160.44
 -15   5  -4  160.33   68.52
  15   5   4  144.68  101.51
  15   5   4  232.94   88.67
  15  -5   4  152.60   73.61
 -15   5  -5   49.39   20.99
  15   5   5    2.07   60.66
  15   5   5   26.96   39.45
  15  -5   5   29.96   44.34
 -15   5  -6 1508.97  122.81
  15   5   6 1987.50  173.96
  15   5   6 1638.47  128.53
  15  -5   6 1519.18  241.28
 -15   5  -7   45.12   24.52
  15   5   7  111.43   69.09
  15   5   7   47.19   26.31
  15  -5   7   68.45   30.22
 -15   5  -8  215.30   35.60
  15   5   8  340.80  112.85
  15  -5   8  256.78   87.80
 -15   5  -9 3896.17  228.47
  15   5   9 3306.50  215.59
  15  -5   9 3786.69  237.02
 -15   5 -10  221.56   90.63
  15   5  10  298.32  101.65
  15  -5  10  266.80  114.33
 -15   5 -11  694.71   36.37
  15   5  11  759.33   95.38
  15  -5  11  537.84  211.74
 -15   5 -12   19.31   21.49
  15   5  12   16.05   46.82
  15  -5  12   56.34   56.12
 -15   5 -13  161.09   79.75
  15   5  13  238.62  121.99
  15  -5  13  238.09  102.07
  15  -5  14  207.62   76.99
  15   5  15  619.89  115.69
  15  -5  15  511.93   93.32
  15  -5  16 1069.54  100.34
  15   7 -21 2120.74  181.24
 -15   7  20  594.73  107.53
  15   7 -20  304.08  184.62
 -15   7  19  185.37   91.11
  15   7 -19  118.03   84.25
  15  -7 -19   49.93   27.30
 -15   7  18  435.54  211.86
  15   7 -18  625.45  130.82
  15  -7 -18  705.32   58.68
 -15   7  17 1089.86  153.61
  15   7 -17  936.15  169.29
  15  -7 -17 1012.51   88.01
 -15   7  16  266.19  115.91
  15   7 -16  220.44  123.83
  15   7 -16  297.07  118.93
  15  -7 -16  187.77   92.92
 -15   7  15 1573.71  233.72
  15   7 -15 1219.51  135.93
  15   7 -15 1422.03  156.02
  15  -7 -15 1138.95  126.97
 -15   7  14 2308.17  198.17
  15   7 -14 2057.67  198.33
  15   7 -14 1705.34  185.57
  15  -7 -14 2227.27  182.98
 -15   7  13 7599.31  448.91
  15   7 -13 7447.36  479.65
  15   7 -13 7789.35  502.06
  15  -7 -13 7714.71  448.11
 -15   7  12  132.33   62.93
  15   7 -12  163.70  105.88
  15   7 -12  181.92  111.33
  15  -7 -12  157.61   54.55
 -15   7  11   27.35   22.67
  15   7 -11   31.06   25.46
  15   7 -11   65.10   65.08
  15  -7 -11    9.41   22.50
 -15   7  10  271.12  118.94
  15   7 -10  284.12  104.37
  15   7 -10  300.00  134.91
  15  -7 -10  303.15  100.51
 -15   7   9   60.44   19.69
  15   7  -9   13.07   18.77
  15   7  -9    8.41   40.94
  15  -7  -9   11.24   34.90
 -15   7   8    8.24   36.32
  15   7  -8   72.65   61.05
  15   7  -8   20.17   29.46
  15  -7  -8    8.46   27.22
 -15   7   7  541.44  195.99
  15   7  -7  515.21   50.38
  15   7  -7  588.43  182.88
  15  -7  -7  530.39  174.03
 -15   7   6  459.74  142.87
  15   7  -6  284.32  135.80
  15   7  -6  342.22   62.70
  15  -7  -6  437.50  147.52
 -15   7   5 1279.28  149.22
  15   7  -5 1337.66  129.35
  15   7  -5 1181.10   87.85
  15  -7  -5 1282.07   66.53
 -15   7   4 1873.79  149.85
  15   7  -4 1914.47  162.79
  15   7  -4 1648.74  135.68
  15  -7  -4 1690.90  137.89
 -15   7   3  877.47   74.84
  15   7  -3  800.19   80.01
  15  -7  -3  895.56   53.09
 -15   7   2  171.42   59.17
  15   7  -2  183.09   83.28
  15   7  -2  130.71   75.52
  15  -7  -2  214.86   77.33
 -15   7   1 1226.13   53.84
  15   7  -1 1557.36  163.84
  15   7  -1 1335.39   76.43
  15  -7  -1 1723.28  157.03
 -15   7   0  166.41   78.54
  15   7   0  232.90   70.47
  15   7   0  248.17   91.26
  15  -7   0  205.33  122.79
 -15   7  -1  534.39   34.55
  15   7   1  837.92   84.86
  15   7   1  623.20  119.93
  15  -7   1  801.61  151.76
 -15   7  -2  403.29  115.66
  15   7   2  418.43  183.30
  15   7   2  356.27  139.63
  15  -7   2  502.39   81.93
 -15   7  -3   17.20   19.47
  15   7   3   50.01   75.65
  15   7   3   30.28   26.15
  15  -7   3   17.28   56.13
 -15   7  -4  446.44   43.15
  15   7   4  394.35  147.94
  15   7   4  385.45   60.38
  15  -7   4  504.31  104.98
 -15   7  -5  205.68   54.17
  15   7   5  153.74   89.56
  15  -7   5  246.59   86.14
 -15   7  -6   65.85   39.24
  15   7   6  102.20   85.46
  15  -7   6   87.42   29.00
 -15   7  -7 4043.04  310.14
  15   7   7 4303.23  330.58
  15  -7   7 4065.06  324.92
 -15   7  -8  712.98   46.15
  15   7   8  593.13  109.34
 -15   7  -8  887.50  185.74
 -15   7  -9 3322.23  181.70
  15   7   9 3427.89  215.72
 -15   7  -9 3819.15  271.16
 -15   7 -10 1979.20   53.68
  15   7  10 1862.94  100.27
 -15   7 -10 1871.70  219.58
 -15   7 -11  764.04   66.70
  15   7  11  865.69  213.38
 -15   7 -11  646.00  207.43
  15   7  12   92.17   49.16
 -15   7 -12   35.18   33.73
 -15   7 -13  353.00  173.23
 -15   9  16 1015.39   92.97
  15   9 -16 1304.55  133.21
 -15   9  15 4018.43  239.31
  15   9 -15 4918.46  302.70
  15  -9 -15 4141.19  236.25
 -15   9  14  518.05  227.95
  15   9 -14  441.78  229.95
  15   9 -14  818.60  133.14
  15  -9 -14  920.72   94.85
 -15   9  13   22.28   50.61
  15   9 -13   47.70   22.84
  15   9 -13   51.04   44.96
  15  -9 -13   67.77   50.24
 -15   9  12 1895.20   89.26
  15   9 -12 1706.12  143.48
  15   9 -12 2318.80  161.05
  15  -9 -12 2216.76  135.18
 -15   9  11  584.88  215.61
  15   9 -11  549.43  137.00
  15   9 -11  752.45  149.43
  15  -9 -11  504.56  116.49
 -15   9  10   83.85   48.31
  15   9 -10   38.30   59.41
  15   9 -10   63.07   37.92
 -15   9   9  186.47   80.57
  15   9  -9  246.33  213.70
  15   9  -9  165.79   65.00
  15  -9  -9  172.73  119.50
 -15   9   8  250.98  161.94
  15   9  -8  393.19  204.83
  15   9  -8  280.68  141.67
  15  -9  -8  417.62  153.13
 -15   9   7   37.66   34.20
  15   9  -7   30.76   48.74
  15  -9  -7   43.67   47.84
 -15   9   6 1315.44  118.53
  15   9  -6  974.12   95.73
  15   9  -6 1161.68  217.65
  15  -9  -6 1231.63  108.81
 -15   9   5   75.73   59.11
  15   9  -5   40.91   68.52
  15   9  -5   56.28   53.23
  15  -9  -5   50.86   41.64
 -15   9   4 1771.31  146.54
  15   9  -4 1821.49  151.21
  15   9  -4 1470.14  127.73
  15  -9  -4 1808.11  146.21
 -15   9   3  679.72   58.29
  15   9  -3  580.46   70.76
  15   9  -3  565.85  107.10
  15  -9  -3  516.50  196.89
 -15   9   2  823.88   61.95
  15   9  -2  733.26  116.61
  15   9  -2  787.24  134.48
  15  -9  -2  639.49   54.88
 -15   9   1 1391.47  120.64
  15   9  -1 1220.78  117.07
  15   9  -1 1139.95  168.10
  15  -9  -1 1154.62  109.39
 -15   9   0  452.95   49.07
  15   9   0  315.61  227.36
  15   9   0  274.75  163.76
  15  -9   0  364.07  183.95
 -15   9  -1   26.86   36.42
  15   9   1  -10.03   56.52
  15  -9   1   43.40   51.83
 -15   9  -2 4439.46  272.70
  15   9   2 4917.14  300.93
  15  -9   2 4970.97  282.71
 -15   9  -3   78.39   65.36
  15   9   3   67.96   62.29
  15  -9   3    2.16   35.68
 -15   9  -4   39.27   33.72
  15   9   4   28.95   51.03
  15  -9   4   80.46   53.60
 -15   9  -5   28.91   18.08
  15   9   5   48.52   48.60
  15  -9   5   11.71   34.83
 -15   9  -6 3480.23  231.11
  15   9   6 3134.74  270.91
 -15   9  -7 1558.82  140.00
  15   9   7 1959.11  160.81
 -15   9  -7 1835.48  137.85
  16   0 -26  690.17  135.37
  16   0 -25   22.59   41.27
  16   0 -24   70.82   53.38
  16   0 -23   34.65   51.91
 -16   0  22  279.54   30.90
  16   0 -22  132.93  123.89
 -16   0  21   28.38   22.66
  16   0 -21  -29.01   34.94
 -16   0  20 4812.10  250.75
  16   0 -20 4977.81  277.10
 -16   0  19   23.66   19.68
  16   0 -19   18.54   38.09
 -16   0  18 1188.34   87.94
  16   0 -18 1297.78   76.34
 -16   0  17   -7.53   19.93
  16   0 -17   10.42   25.63
 -16   0  16 7359.36  285.22
  16   0 -16 7399.05  311.58
 -16   0  15   17.53   15.07
  16   0 -15   18.85   52.27
 -16   0  14  842.57   88.63
  16   0 -14  846.44  132.75
 -16   0  13  -14.42   21.78
  16   0 -13   34.31   41.97
 -16   0  12 2191.73   54.77
  16   0 -12 2348.23  169.19
 -16   0  11  -32.29   29.79
  16   0 -11  -22.15   39.85
 -16   0  10 2585.13  208.87
  16   0 -10 2500.53  188.27
 -16   0   9   35.37   36.11
  16   0  -9   71.85   80.63
 -16   0   840241.20  200.79
  16   0  -839172.61 1612.50
 -16   0   7   62.09   40.31
  16   0  -7   12.88   36.26
 -16   0   617309.39  715.71
  16   0  -617042.13  714.41
 -16   0   5   20.75   37.40
  16   0  -5    9.82   35.78
 -16   0   4  332.26   88.35
  16   0  -4  255.20   72.11
 -16   0   3   21.46   31.23
  16   0  -3    7.17   30.97
 -16   0   2 5187.57  246.33
  16   0  -2 5145.57  229.92
 -16   0   1    2.30   17.39
  16   0  -1   -3.24   28.85
 -16   0   0   -0.17   29.93
  16   0   0    2.35   27.88
 -16   0  -1   -1.50   22.30
  16   0   1   17.88   30.09
 -16   0  -2   54.99   42.53
  16   0   2   61.79   20.74
 -16   0  -3   20.96   27.84
  16   0   3   56.85   33.75
 -16   0  -4 9459.31  454.57
  16   0   4 9985.66  489.79
 -16   0  -5   -2.26   28.32
  16   0   5   36.92   23.63
 -16   0  -6 3169.47  269.26
  16   0   6 3267.14  229.74
 -16   0  -7   32.80   18.80
  16   0   7   16.29   29.54
 -16   0  -8 4309.22   98.53
  16   0   8 4657.65  260.69
 -16   0  -9   36.30   48.33
  16   0   9   22.47   23.18
 -16   0 -10 3209.79  180.04
  16   0  10 3517.97  192.34
  16   0  11   21.88   39.06
  16   0  11   34.65   26.79
  16   0  12 3897.80  239.32
  16   0  12 3654.73  222.23
  16   0  13    3.94   29.48
  16   0  13   -8.12   36.57
  16   0  14   59.93   44.46
  16   0  14  112.04   53.39
  16   0  15    8.37   28.97
  16   2 -26   17.35   35.22
  16  -2 -26   11.73   42.62
  16   2 -25  184.04  143.36
  16  -2 -25  167.41   57.69
  16   2 -24   13.63   52.24
  16  -2 -24   41.12   27.05
 -16   2  23  717.09   98.82
  16   2 -23  682.81  106.43
  16  -2 -23 1000.50  163.51
 -16   2  22 2527.97  186.24
  16   2 -22 2874.41  226.20
  16  -2 -22 2425.88  229.73
 -16   2  21  447.92   71.57
  16   2 -21  485.87  105.72
  16  -2 -21  385.68  162.79
  16   2 -20  348.78  127.26
 -16   2  20  574.67   44.03
 -16  -2  20  586.42   69.75
  16  -2 -20  480.51   64.83
  16   2 -19  553.74  186.51
 -16   2  19  614.78   44.09
 -16  -2  19  569.98   83.26
  16  -2 -19  601.00   73.47
  16   2 -18   64.17   64.61
 -16  -2  18   38.35   22.01
  16  -2 -18   43.66   36.06
  16   2 -17 4690.34  290.26
 -16   2  17 5872.84  332.46
 -16  -2  17 5739.85  313.66
  16  -2 -17 5681.76  320.45
  16   2 -16 2522.81  213.14
 -16   2  16 2728.80  206.45
 -16  -2  16 2466.05  186.40
 -16   2  15  181.76   67.18
  16   2 -15  306.39   96.31
  16  -2 -15  325.57  122.02
  16   2 -14  370.89  101.05
 -16   2  14  381.87   94.80
 -16  -2  14  318.49   29.92
  16  -2 -14  390.52  217.79
  16   2 -13 1090.63  193.84
 -16   2  13 1000.47   80.57
 -16  -2  13  900.63   63.69
  16  -2 -13  974.42  101.02
  16   2 -1216322.38  778.29
 -16   2  1217000.38  796.52
 -16  -2  1216180.44  759.36
  16  -2 -1219631.63  935.60
  16   2 -11 6149.66  125.20
 -16   2  11 6435.63  248.83
 -16  -2  11 5929.88  328.59
  16  -2 -11 6508.45  260.59
  16   2 -10  135.53   52.08
 -16   2  10   97.95   40.20
 -16  -2  10  117.82   64.18
  16  -2 -10  121.20   88.25
  16   2  -9 4267.22  247.72
 -16   2   9 4883.46  278.93
 -16  -2   9 4536.59  264.80
  16  -2  -9 4693.76  269.87
  16   2  -8 1601.96   90.41
 -16   2   8 1746.53  129.43
 -16  -2   8 1750.86  137.05
  16  -2  -8 1465.57   65.23
  16   2  -7  741.16  114.20
 -16   2   7  814.06   65.60
 -16  -2   7  725.26   62.71
  16  -2  -7  582.67  100.99
  16   2  -6 2836.27  231.32
 -16   2   6 2854.67  201.98
 -16  -2   6 2383.99  184.48
  16  -2  -6 2655.96  192.01
  16   2  -5 5159.20  236.91
 -16   2   5 4643.15  203.22
 -16  -2   5 4257.81  299.08
  16  -2  -5 3933.50  279.99
  16   2  -4  211.97   73.99
 -16   2   4  267.37   78.46
 -16  -2   4  290.93   67.45
  16  -2  -4  316.12   98.02
  16   2  -312816.44  542.95
 -16   2   312288.73  510.95
 -16  -2   311559.08  487.90
  16  -2  -311598.34  492.77
  16   2  -2  710.85   74.04
 -16   2   2  686.45   56.51
 -16  -2   2  639.50   95.76
  16  -2  -2  683.46   69.61
  16   2  -1  218.28   89.45
 -16   2   1  251.68   75.27
 -16  -2   1  334.82  102.36
  16  -2  -1  431.41   95.71
  16   2   0  826.06  100.07
 -16   2   0  642.38  151.94
 -16  -2   0  536.11  149.97
  16  -2   0  642.78  112.81
  16   2   112358.74  462.79
 -16   2  -112206.54  459.18
 -16  -2  -111863.93  478.73
  16  -2   111869.66  448.82
  16   2   2 3637.72  246.64
 -16   2  -2 3993.30  225.73
 -16  -2  -2 3432.02  218.49
  16  -2   2 3603.05  211.04
  16   2   3 6372.75  311.04
 -16   2  -3 6185.99   90.30
 -16  -2  -3 6088.21  117.50
  16  -2   3 4909.61  363.67
  16   2   4 2006.66  121.10
 -16   2  -4 1896.58  119.49
 -16  -2  -4 1557.06  108.41
  16  -2   4 1862.53  124.66
 -16   2  -5 2330.56  163.55
  16   2   5 2349.54  171.09
  16  -2   5 2485.26  178.94
 -16   2  -6  454.96   42.27
  16   2   6  550.46  141.94
  16   2   6  670.31   86.57
  16  -2   6  592.49  156.13
 -16   2  -7   45.53   39.80
  16   2   7   52.51   40.62
  16   2   7    8.66   30.81
  16  -2   7   64.66   34.02
 -16   2  -8    1.40   10.28
  16   2   8   66.42   67.51
  16   2   8   73.30   37.27
  16  -2   8   71.58   48.61
 -16   2  -9 2882.99  211.93
  16   2   9 2903.72  221.85
  16   2   9 3015.57  220.85
  16  -2   9 2794.75  234.21
 -16   2 -10   35.62   26.49
  16   2  10   41.02   28.28
  16   2  10   23.09   24.33
  16  -2  10    9.46   20.58
 -16   2 -11  131.15   41.24
  16   2  11  143.43   90.26
  16   2  11  108.04   49.67
 -16   2 -12   68.78   36.32
  16  -2  12   24.27   28.51
 -16   2 -13  695.19   42.11
  16   2  13  627.91   57.81
  16  -2  13  494.54  101.93
  16   2  14   52.54   41.79
  16  -2  14   31.95   25.25
  16   2  15  940.72   71.17
  16  -2  15 1110.33  125.44
  16   2  16   62.63   44.34
  16  -2  16   89.76   56.78
  16   2  17  307.15  167.72
  16  -2  17  473.52   41.24
  16   4 -25   41.17   63.16
 -16   4  24   49.82   55.06
  16   4 -24   97.85   54.09
  16  -4 -24   88.20   62.37
 -16   4  23   35.71   24.39
  16   4 -23   10.59   51.44
  16  -4 -23   32.90   35.01
 -16   4  22 1234.74   98.82
  16   4 -22 1085.58  188.47
  16  -4 -22 1205.67  134.95
 -16   4  21   66.65   43.28
  16   4 -21  135.24  100.07
  16  -4 -21   39.41   36.11
 -16   4  20 3931.76  287.45
  16   4 -20 4004.15  308.55
  16  -4 -20 3753.59  279.48
  16   4 -19 1157.58  135.14
  16   4 -19 1072.68  136.84
  16  -4 -19  967.25   99.66
 -16   4  18   73.17   29.16
  16   4 -18   62.57   32.82
  16   4 -18   19.29   56.58
  16  -4 -18   49.44   37.43
 -16   4  17 8269.84  423.36
  16   4 -17 8436.02  431.59
  16   4 -17 8470.06  451.20
  16  -4 -17 8654.57  460.04
 -16   4  16  118.58   51.57
  16   4 -16  191.76   75.64
  16   4 -16  161.24   72.29
  16  -4 -16  150.48   44.11
 -16   4  15   52.70   23.87
  16   4 -15   36.88   17.86
  16   4 -15   64.00   64.92
  16  -4 -15   59.19   28.28
 -16   4  14   25.56   38.70
  16   4 -14   20.26   25.89
  16   4 -14   48.91   49.10
  16  -4 -14   43.70   26.02
 -16   4  13 7715.00  465.83
  16   4 -13 8095.39  441.73
  16   4 -13 6824.54  382.73
  16  -4 -13 8040.68  440.31
 -16   4  12 2604.73  184.77
  16   4 -12 2661.55  217.91
  16   4 -12 3242.42  243.94
  16  -4 -12 3199.98  224.78
 -16   4  11  402.44  122.59
  16   4 -11  401.87  164.20
  16   4 -11  525.74  183.29
  16  -4 -11  527.10   63.76
 -16   4  10 1900.31  138.89
  16   4 -10 1744.94  132.47
  16   4 -10 1742.98  146.35
  16  -4 -10 1936.46  150.90
 -16   4   9 4873.48  321.77
  16   4  -9 4915.75  337.02
  16   4  -9 5429.71  369.22
  16  -4  -9 4707.40  335.99
 -16   4   8 9296.73  444.39
  16   4  -8 9673.72  468.55
  16   4  -8 7891.79  433.74
  16  -4  -8 9088.83  439.30
 -16   4   7  188.23   66.24
  16   4  -7  174.26  111.40
  16  -4  -7  262.66  109.89
 -16   4   611140.02  544.58
  16   4  -611674.45  560.56
  16   4  -613969.40  668.59
  16  -4  -610878.05  534.95
 -16   4   5  141.50   37.18
  16   4  -5  119.39   71.81
  16   4  -5  180.64   65.61
  16  -4  -5  201.31   59.16
 -16   4   4 6553.32  316.07
  16   4  -4 6440.00  321.30
  16   4  -4 6451.17  322.50
  16  -4  -4 6990.82  359.28
 -16   4   3  -11.31   31.84
  16   4  -3   21.73   14.99
  16   4  -3   35.34   24.98
  16  -4  -3   40.96   26.45
 -16   4   2   34.27   20.91
  16   4  -2   51.44   30.20
  16   4  -2   60.42   18.38
  16  -4  -2   99.89   49.56
 -16   4   1 4305.31  284.64
  16   4  -1 4307.10  296.00
  16   4  -1 4293.23  289.23
  16  -4  -1 4873.42  326.15
 -16   4   0   13.17   38.65
  16   4   0   23.17   31.34
  16   4   0   36.11   35.51
  16  -4   0   43.80   47.90
 -16   4  -1  467.48   63.36
  16   4   1  565.24   90.48
  16   4   1  607.61   62.01
  16  -4   1  572.41   56.48
 -16   4  -2 5512.02  220.95
  16   4   2 5877.61  253.08
  16  -4   2 5923.05  249.59
 -16   4  -3 4264.16  174.99
  16   4   3 4429.27  223.24
  16   4   3 4294.66  229.37
  16  -4   3 4560.64  227.63
 -16   4  -4 5500.71  299.53
  16   4   4 6519.27  369.32
  16   4   4 6044.09  333.26
  16  -4   4 5145.34  292.26
 -16   4  -5  248.59   74.96
  16   4   5  232.84   91.78
  16   4   5  232.37  137.99
  16  -4   5  170.62  128.82
 -16   4  -6  717.02   36.62
  16   4   6  630.89  216.46
  16   4   6  661.02   93.61
  16  -4   6  794.96  100.35
 -16   4  -7  348.59  102.43
  16   4   7  392.36  169.02
  16   4   7  354.00  112.87
  16  -4   7  332.08  111.48
 -16   4  -8 1210.67   43.89
  16   4   8 1383.19  244.73
  16   4   8  949.67   42.51
  16  -4   8 1116.22  107.85
 -16   4  -9 2058.10  160.84
  16   4   9 2115.11  179.99
  16  -4   9 2430.97  197.96
 -16   4 -10  441.32   32.50
  16   4  10  252.33   99.36
  16  -4  10  378.39  158.65
 -16   4 -11  404.06   97.28
  16   4  11  455.02  139.11
  16  -4  11  549.32   80.91
 -16   4 -12  228.72  105.63
  16   4  12  206.23  111.88
  16  -4  12  420.55  123.27
 -16   4 -13  127.19   53.98
  16  -4  13  112.49   54.58
  16   4  14   69.53   65.28
  16   4  15 1376.90  127.26
  16  -4  15 2036.11  227.34
 -16   6  22 1004.52   84.47
  16   6 -22  978.93  190.24
 -16   6  21  223.84  123.94
  16   6 -21  417.84  161.22
  16  -6 -21  356.06   50.18
  16   6 -20 2318.05  180.25
  16  -6 -20 2039.60  147.34
 -16   6  19   59.41   40.39
  16   6 -19   17.88   46.34
  16  -6 -19   40.65   30.96
 -16   6  18  255.88  112.96
  16   6 -18  182.58  121.96
  16   6 -18  210.55  145.51
  16  -6 -18  258.52   84.52
 -16   6  17  694.15   92.30
  16   6 -17  330.11  155.94
  16   6 -17  496.28  182.21
  16  -6 -17  501.08   86.77
 -16   6  16   43.81   33.74
  16   6 -16   -6.57   25.98
  16   6 -16   59.84   69.88
  16  -6 -16   17.42   26.18
 -16   6  15  317.44   95.10
  16   6 -15  211.11   85.49
  16   6 -15  184.52  101.75
  16  -6 -15  205.68   93.99
 -16   6  14 2310.42  245.02
  16   6 -14 1973.57  198.42
  16   6 -14 2509.49  216.82
  16  -6 -14 1713.47  167.47
 -16   6  13   35.68   40.64
  16   6 -13   51.21   44.95
  16   6 -13   41.66   53.19
  16  -6 -13   53.27   54.03
 -16   6  12   42.57   42.76
  16   6 -12   34.59   59.78
  16   6 -12    8.16   48.93
  16  -6 -12   35.98   21.65
 -16   6  11   42.80   35.85
  16   6 -11    0.07   35.69
  16   6 -11  118.32   81.20
  16  -6 -11  -21.47   29.38
 -16   6  10 6401.96  255.32
  16   6 -10 6519.92  244.38
  16   6 -10 6734.61  265.71
  16  -6 -10 7453.58  268.19
 -16   6   9 8209.73  293.04
  16   6  -9 8830.11  338.48
  16   6  -9 9228.19  343.95
 -16   6   8 2560.42  205.61
  16   6  -8 2299.72  208.08
  16   6  -8 2041.58  281.79
  16  -6  -8 2028.30  182.79
 -16   6   730289.44 1032.36
  16   6  -732860.83 1086.15
  16  -6  -733442.07  374.01
 -16   6   6 1265.75  177.59
  16   6  -6 1269.98   89.39
  16   6  -6 1161.52   67.81
  16  -6  -6 1161.80   76.07
 -16   6   5 1311.39  181.62
  16   6  -5 1321.60   75.65
  16   6  -5 1252.60  152.51
  16  -6  -5 1215.25   69.80
 -16   6   4 2412.16  190.98
  16   6  -4 2206.53  187.26
  16   6  -4 2274.82  184.53
  16  -6  -4 2316.03  192.63
 -16   6   3 1055.62   49.39
  16   6  -3 1437.76  136.53
  16   6  -3 1471.48  163.89
  16  -6  -3 1419.51  124.93
 -16   6   2  914.89  133.05
  16   6  -2  883.94  169.96
  16  -6  -2  884.27  105.98
 -16   6   1   45.03   36.63
  16   6  -1    2.44   72.00
  16   6  -1   24.29   48.46
  16  -6  -1   60.69   45.49
 -16   6   0  663.33   57.89
  16   6   0  604.67   59.82
  16   6   0  668.11   47.76
  16  -6   0  601.97  174.15
 -16   6  -1   14.00   37.03
  16   6   1   55.57   44.95
  16   6   1   48.40   22.32
  16  -6   1   85.04   44.70
 -16   6  -2 3248.40  190.36
  16   6   2 3011.51  187.92
  16   6   2 3572.82  197.36
  16  -6   2 3707.56  214.09
 -16   6  -3  183.58   52.84
  16   6   3   90.82   73.74
  16   6   3  172.74   72.05
  16  -6   3  160.24   68.23
 -16   6  -4   52.30   27.39
  16   6   4   -8.29   52.93
  16   6   4  -10.90   29.03
  16  -6   4   -1.67   45.68
 -16   6  -5 3049.28  183.07
  16   6   5 2454.20  205.78
  16   6   5 2612.63  205.64
  16  -6   5 2552.32  208.77
  16   6   618429.38 1412.01
 -16   6  -7 4367.62  338.20
  16   6   7 4316.57  351.51
  16  -6   7 4368.70  394.69
 -16   6  -8  138.68   53.21
  16   6   8  154.04   65.59
 -16   6  -9 2029.01  149.97
  16   6   9 1825.81  229.84
  16  -6   9 2235.63  102.55
 -16   6 -10 4153.45  227.23
  16   6  10 4085.67  262.14
  16  -6  10 4445.38  257.39
 -16   6 -11 1607.34   61.47
  16   6  11 1667.86   99.75
  16  -6  11 1565.94   86.05
  16   6  12 1009.83  168.51
  16  -6  12  974.45  218.98
  16   6  13   38.97   45.69
  16  -6  13   45.26   23.74
 -16   8  18 1978.22  132.82
  16   8 -18 1450.75  135.31
 -16   8  17 1024.11  165.42
  16   8 -17  648.72   73.81
  16  -8 -17 1249.09  109.94
 -16   8  16 5198.57  356.36
  16   8 -16 4994.18  348.26
  16  -8 -16 5156.18  341.59
 -16   8  15  310.03  130.63
  16   8 -15  298.25  149.11
  16   8 -15  234.70  171.18
  16  -8 -15  262.06  115.69
 -16   8  14  -10.11   53.95
  16   8 -14   24.02   22.09
  16   8 -14   43.17   34.39
  16  -8 -14    5.32   21.70
 -16   8  13 4734.88  271.73
  16   8 -13 3997.02  255.65
  16   8 -13 4575.99  277.77
  16  -8 -13 4373.71  255.30
 -16   8  12 4064.43  246.78
  16   8 -12 3413.16  203.49
  16   8 -12 3447.28  301.38
  16  -8 -12 3936.23  222.21
 -16   8  11  211.19   97.10
  16   8 -11  140.16   68.01
  16   8 -11   44.46   96.53
  16  -8 -11  156.13   69.48
 -16   8  10 2961.46  228.28
  16   8 -10 2950.72  233.86
  16   8 -10 2855.92  229.84
  16  -8 -10 3280.21  246.73
 -16   8   9   55.59   51.12
  16   8  -9   19.40   58.46
  16   8  -9   80.86   46.67
  16  -8  -9  130.04   42.70
 -16   8   8   39.54   51.08
  16   8  -8  131.45   50.18
  16   8  -8   81.39   81.43
  16  -8  -8   80.33   53.86
 -16   8   7   76.52   53.13
  16   8  -7  227.86  113.05
  16   8  -7  105.65   92.84
  16  -8  -7   99.52   39.15
 -16   8   6  315.65  114.33
  16   8  -6  351.46  143.99
  16  -8  -6  373.03  147.14
 -16   8   5    4.38   40.83
  16   8  -5   53.72   39.96
  16   8  -5   28.65   37.16
  16  -8  -5   73.67   62.14
 -16   8   4  292.57  112.94
  16   8  -4  240.43   78.48
  16   8  -4  251.51   87.37
  16  -8  -4  230.28   80.74
 -16   8   3 2288.00  189.60
  16   8  -3 2314.12  203.93
  16   8  -3 2596.68  218.84
  16  -8  -3 2155.79  181.93
 -16   8   2 2014.72  189.52
  16   8  -2 1632.74  178.45
  16   8  -2 1518.15  148.95
  16  -8  -2 1924.59  187.79
 -16   8   1   54.66   38.30
  16   8  -1   64.06   54.61
  16   8  -1  107.74   72.19
  16  -8  -1   92.42   51.02
 -16   8   0   84.93   52.51
  16   8   0   19.50   46.69
  16   8   0   79.93   60.67
  16  -8   0   98.75   79.74
 -16   8  -1  112.16   49.63
  16   8   1   55.45   72.25
  16   8   1   55.47   18.34
  16  -8   1   60.07   67.18
 -16   8  -2 6482.06  472.02
  16   8   2 7261.10  538.35
  16  -8   2 6602.98  485.49
 -16   8  -3  849.73   53.02
  16   8   3  718.76   74.68
  16  -8   3 1034.30  114.91
 -16   8  -4   14.15   23.52
  16   8   4   45.39   56.01
  16  -8   4   20.06   31.08
 -16   8  -5  154.11   69.14
  16   8   5  108.04   98.47
  16  -8   5  171.99   52.15
 -16   8  -6  670.80   72.70
  16   8   6  602.42  223.48
  16  -8   6  852.09  171.74
 -16   8  -7   28.04   24.60
  16   8   7   31.69   60.69
  16  -8   7   54.69   38.83
 -16   8  -8 2586.74  174.25
  16   8   8 2180.13  186.72
  16  -8   8 2382.52  208.41
 -16   8  -9  384.51   75.63
  16   8   9  379.50   67.46
  16  -8   9  434.95  121.57
 -16  10   9   31.65   25.86
  16  10  -9   30.13   34.82
  16  10  -9   63.90   39.88
  16 -10  -9   23.54   49.00
 -16  10   8  639.19  123.81
  16  10  -8  713.56  106.08
  16  10  -8  349.88  245.82
  16 -10  -8  465.44  136.04
 -16  10   7   57.94   39.40
  16  10  -7  132.74   68.01
  16  10  -7   54.94   51.25
  16 -10  -7   -3.35   30.90
 -16  10   6 1106.42   94.10
  16  10  -6  982.11   96.07
  16  10  -6 1275.44  116.10
  16 -10  -6 1347.15  121.87
 -16  10   5 2169.64  143.53
  16  10  -5 2541.67  182.27
  16  10  -5 2597.34  168.94
  16 -10  -5 2801.36  174.75
 -16  10   4   76.42   37.16
  16  10  -4   47.80   50.28
  16  10  -4  101.19  102.70
  16 -10  -4   82.32   59.53
 -16  10   3  108.29   42.91
  16  10  -3   40.90   68.08
  16  10  -3  116.84   54.91
  16 -10  -3   99.90   55.23
 -16  10   2   23.46   24.25
  16  10  -2   45.71   44.39
  16 -10  -2    2.81   37.68
 -16  10   1    2.00   19.82
  16  10  -1   42.86   43.36
  16 -10  -1   17.19   40.38
 -16  10   0   19.58   22.06
  16  10   0   33.96   75.40
  16 -10   0   20.21   56.25
  17   1 -26  836.88   83.41
  17  -1 -26  887.13  103.61
  17   1 -25   17.20   36.66
  17  -1 -25   54.13   48.67
  17   1 -24 5208.79  302.82
  17  -1 -24 5575.46  314.26
 -17   1  23   28.21   14.88
  17   1 -23   67.86   81.43
  17  -1 -23   42.89   47.36
 -17   1  22 1931.24  143.23
  17   1 -22 2154.75   96.97
  17  -1 -22 2017.37  165.22
  17   1 -21 4623.91  371.32
 -17   1  21 3903.25  316.61
 -17  -1  21 4002.74  326.19
  17  -1 -21 4388.78  351.73
  17   1 -20 1173.19  108.76
 -17   1  20 1228.81  100.10
 -17  -1  20 1097.11   68.72
  17  -1 -20 1248.11  116.77
  17   1 -19 1439.81  212.64
 -17   1  19 1475.39  120.88
 -17  -1  19 1415.45  115.52
  17  -1 -19 1698.48  150.73
  17   1 -18  696.66  127.64
 -17   1  18  546.48   44.42
 -17  -1  18  548.05   56.48
  17  -1 -18  612.80  115.63
  17   1 -17    7.64   38.67
 -17   1  17   35.09   18.43
 -17  -1  17   48.35   37.30
  17  -1 -17   23.51   33.40
 -17   1  16 1740.26  138.64
  17   1 -16 1733.50  182.44
  17  -1 -16 1771.35  149.73
  17   1 -15 2042.35  172.15
 -17   1  15 1614.62  127.55
 -17  -1  15 1786.25  138.70
  17  -1 -15 2124.82  240.13
  17   1 -14   33.14   57.30
 -17   1  14   -0.31   48.75
 -17  -1  14   11.12   19.28
  17  -1 -14   22.30   41.13
  17   1 -1320749.15  818.34
 -17   1  1320277.51  774.36
 -17  -1  1320519.95  781.64
  17  -1 -1320623.49  830.89
  17   1 -12   56.64   28.67
 -17   1  12   24.24   33.67
 -17  -1  12   32.30   42.36
  17  -1 -12   71.08   45.45
  17   1 -11 5682.26  220.67
 -17   1  11 5378.24  370.75
 -17  -1  11 5358.17  353.66
  17  -1 -11 5149.38  355.95
  17   1 -10 8372.89  333.23
 -17   1  10 8366.25  313.21
 -17  -1  10 8516.28  321.68
  17  -1 -1010465.04  400.31
  17   1  -9 1654.01  155.36
 -17   1   9 1571.04  127.27
 -17  -1   9 1567.85   90.09
  17  -1  -9 1437.49  108.24
  17   1  -817173.20  640.86
 -17   1   815392.66  577.06
 -17  -1   814947.23  550.50
  17  -1  -817027.74  634.08
  17   1  -7 3074.16  188.56
 -17   1   7 2717.06  158.37
 -17  -1   7 2501.32  170.16
  17  -1  -7 2654.02  163.19
  17   1  -6 1299.21   97.46
 -17   1   6 1642.24  162.71
 -17  -1   6 1382.84  106.93
  17  -1  -6 1475.44   94.43
  17   1  -5  403.87   53.64
 -17   1   5  434.86  109.20
 -17  -1   5  515.66   94.15
  17  -1  -5  349.18  102.67
  17   1  -4 7293.42  297.32
 -17   1   4 7706.04  291.42
 -17  -1   4 7667.37  294.29
  17  -1  -4 7331.93  309.49
  17   1  -3 5975.53  337.05
 -17   1   3 5878.27  325.00
 -17  -1   3 5171.38  321.54
  17  -1  -3 6039.49  339.44
  17   1  -2 2248.69  139.59
 -17   1   2 1710.40   95.66
 -17  -1   2 1817.73  104.78
  17  -1  -2 1804.21  106.50
  17   1  -1  191.32   54.53
 -17   1   1  149.91   28.64
 -17  -1   1  222.03   59.43
  17  -1  -1   68.63   47.53
  17   1   0  865.85   88.23
 -17   1   0  818.44   83.75
 -17  -1   0  680.67   93.03
  17  -1   0  919.67   66.62
  17   1   1   17.48   36.35
 -17   1  -1    7.91   21.59
 -17  -1  -1    7.33   28.82
  17  -1   1   43.97   31.30
  17   1   2  340.20   46.21
 -17   1  -2  396.11  109.29
 -17  -1  -2  361.37   85.02
  17  -1   2  347.49  139.26
  17   1   315886.75  757.08
 -17   1  -315772.81  743.49
 -17  -1  -315892.66  753.07
  17  -1   314743.71  700.17
  17   1   4  344.56   71.34
 -17   1  -4  554.25  108.41
 -17  -1  -4  556.20  171.89
  17  -1   4  491.95  103.21
  17   1   5 1632.23  165.98
 -17   1  -5 1360.19  107.31
 -17  -1  -5 1580.21  120.56
  17  -1   5 1339.50  155.59
 -17   1  -6 3333.50  253.20
 -17  -1  -6 3275.33  251.45
  17  -1   6 3340.79  255.97
  17   1   7  644.06   66.80
 -17   1  -7  644.10   81.02
 -17  -1  -7  532.92   89.60
  17  -1   7  414.22  134.99
 -17   1  -8 2618.14  219.15
  17   1   8 2710.00  207.32
  17   1   8 2428.46  181.96
  17  -1   8 2482.87  189.01
 -17   1  -9 3029.31  167.37
  17   1   9 2625.64  216.34
  17   1   9 2402.53  195.28
 -17   1 -10 1814.43  149.76
  17   1  10 2138.78  177.55
  17   1  10 1917.77  155.24
  17  -1  10 2348.99  190.50
 -17   1 -11 3900.88  311.26
  17   1  11 3436.97  271.75
  17  -1  11 3649.50  291.58
  17   1  12 4596.28  347.16
  17   1  12 4464.10  324.68
  17  -1  12 4577.33  354.66
  17   1  13 1563.19  133.06
  17  -1  13 1365.30  113.99
  17  -1  13 1439.45  118.44
  17   1  14  789.56  132.03
  17  -1  14  802.99   50.72
  17  -1  14  874.28  121.05
  17   1  15   50.47   48.74
  17  -1  15   81.18   62.86
  17   1  16  121.00  100.55
  17   3 -25 1324.77  121.86
  17  -3 -25 1294.66  107.19
 -17   3  24  185.10  117.94
  17   3 -24  246.67  149.45
  17  -3 -24  242.90  113.75
 -17   3  23 5593.06  317.40
  17   3 -23 5900.73  339.86
  17  -3 -23 5933.57  337.64
 -17   3  22  452.67   66.73
  17   3 -22  206.91   90.80
  17  -3 -22  223.70  169.77
 -17   3  21 2727.57  202.34
  17   3 -21 2735.54  305.92
  17  -3 -21 2459.57  194.62
  17   3 -20   92.74   76.68
 -17   3  20   91.24   42.59
 -17  -3  20   85.34   46.42
  17  -3 -20   50.61   60.18
  17   3 -19  302.04  185.17
 -17  -3  19  404.52   47.98
  17  -3 -19  458.92  170.64
  17   3 -18 1016.72   77.18
 -17   3  18  757.14   43.95
 -17  -3  18 1106.80   52.43
  17  -3 -18  989.44   61.15
  17   3 -17 1370.18  133.12
 -17   3  17 1315.48  111.27
 -17  -3  17 1248.88  108.29
  17  -3 -17 1171.77  196.87
  17   3 -16  157.70   49.72
 -17   3  16  142.82   52.11
 -17  -3  16  151.12   61.94
  17  -3 -16  223.13   77.47
  17   3 -15  107.90   79.07
 -17   3  15  208.09   64.04
 -17  -3  15  205.79   64.19
  17  -3 -15  126.49   61.78
 -17   3  14 3409.97  255.35
  17   3 -14 2575.03  213.99
  17  -3 -14 3539.70  273.23
  17   3 -13  952.53  140.77
 -17   3  13  788.09   43.82
 -17  -3  13  722.64   46.28
  17  -3 -13  788.10  160.31
  17   3 -12 2168.43  171.16
 -17   3  12 2288.73  176.74
 -17  -3  12 2178.45  155.39
  17  -3 -12 2391.04  176.85
  17   3 -11  111.36   58.20
 -17   3  11  146.43   35.21
 -17  -3  11  112.90   45.77
  17  -3 -11  125.31   79.47
  17   3 -10   98.46   87.25
 -17   3  10  207.02   59.94
 -17  -3  10  208.23   64.84
  17  -3 -10  201.87  118.12
  17   3  -9   49.55   32.49
 -17   3   9   35.22   24.48
 -17  -3   9   64.67   33.40
  17  -3  -9   35.71   62.98
  17   3  -8  396.44   84.14
 -17   3   8  595.16  135.55
 -17  -3   8  495.61   88.08
  17  -3  -8  470.41  155.46
  17   3  -7   35.71   31.00
 -17   3   7   65.25   29.37
 -17  -3   7   25.52   31.28
  17  -3  -7   57.73   37.55
  17   3  -6 1057.39   80.44
 -17   3   6 1233.14   98.38
 -17  -3   6  994.09   72.28
  17  -3  -6 1116.52  103.68
  17   3  -5 2831.04  202.15
 -17   3   5 2621.54  216.03
 -17  -3   5 2759.17  237.46
  17  -3  -5 2930.34  205.51
  17   3  -4 1686.41  121.22
 -17   3   4 1543.74  102.02
 -17  -3   4 1411.59  123.11
  17  -3  -4 1298.60  100.29
  17   3  -3  505.81  140.80
 -17   3   3  546.68   39.94
 -17  -3   3  655.24   98.56
  17  -3  -3  593.14  176.89
  17   3  -2   70.29   43.87
 -17   3   2   97.78   27.91
 -17  -3   2   42.01   38.04
  17  -3  -2   49.56   43.96
  17   3  -110612.24  511.11
 -17   3   1 9820.24  465.48
 -17  -3   1 9464.74  458.65
  17  -3  -1 9957.24  481.21
 -17   3   010532.45  509.90
  17   3   010696.56  537.99
  17  -3   011850.98  568.98
 -17   3  -116990.35  660.18
  17   3   116880.43  736.41
  17   3   118099.98  703.18
  17  -3   115732.66  613.87
 -17   3  -2 8916.42  346.67
  17   3   2 8691.49  352.27
  17   3   2 8482.60  337.17
  17  -3   2 7908.64  319.83
 -17   3  -3  367.56   58.08
  17   3   3  294.27   89.10
  17  -3   3  370.86  108.47
  17   3   4 1345.29  124.07
  17   3   4 1517.37  123.09
  17  -3   4 1346.83   83.83
 -17   3  -5   34.17   20.04
  17   3   5   74.80   44.72
  17   3   5   51.41   34.18
  17  -3   5   34.77   23.35
 -17   3  -6   11.38   20.66
  17   3   6   -6.74   42.12
  17   3   6   32.54   28.83
  17  -3   6   50.83   40.34
 -17   3  -7   16.52   20.19
  17   3   7   57.13   39.67
  17   3   7   23.64   12.85
  17  -3   7   16.20   17.22
 -17   3  -8   -0.64   29.26
  17   3   8   38.15   25.89
  17   3   8   40.95   23.47
  17  -3   8   -0.03   34.57
 -17   3  -9 1277.39  106.50
  17   3   9 1341.31  178.02
  17   3   9 1306.00  110.46
  17  -3   9 1348.53  209.07
 -17   3 -10  363.67   49.91
  17   3  10  231.48   91.96
  17  -3  10  101.94   46.74
 -17   3 -11   53.99   34.91
  17   3  11   20.60   35.30
  17  -3  11   42.67   54.36
 -17   3 -12   32.55   26.60
 -17   3 -13 1748.91   61.36
  17   3  13 1832.64  112.71
  17  -3  13 1562.45   99.77
 -17   3 -14   93.62   57.73
  17   3  14    0.35   57.28
  17  -3  14  105.37   64.60
  17   3  15 3020.07  194.34
  17  -3  15 3219.58  194.13
 -17   5  23  652.88   85.40
  17   5 -23  537.76  217.76
 -17   5  22 3618.55  243.93
  17   5 -22 3846.36  275.83
  17  -5 -22 4182.09  290.86
 -17   5  21  788.78  150.25
  17   5 -21  785.17  173.25
  17  -5 -21  795.62  150.19
  17   5 -20 3396.51  214.74
  17  -5 -20 3272.91  220.91
 -17   5  19  193.03  111.71
  17   5 -19  147.75   87.71
  17   5 -19  351.24  152.87
  17  -5 -19  259.66   99.28
 -17   5  18 2656.92  203.39
  17   5 -18 2514.30  192.66
  17   5 -18 2896.24  236.31
  17  -5 -18 2142.78  123.63
 -17   5  17  416.18   53.17
  17   5 -17  382.37   61.73
  17   5 -17  300.58  238.65
  17  -5 -17  292.62  132.67
 -17   5  16   50.81   29.65
  17   5 -16   23.50   34.75
  17   5 -16   43.22   59.02
  17  -5 -16   40.22   28.95
 -17   5  15   66.97   35.59
  17   5 -15  125.75   68.44
  17   5 -15   96.43   70.78
  17  -5 -15   92.48   66.86
 -17   5  14   24.04   28.97
  17   5 -14   43.43   36.98
  17   5 -14  108.33  100.00
  17  -5 -14   64.00   39.78
 -17   5  13 3359.68  194.55
  17   5 -13 3654.40  204.99
  17   5 -13 3802.05  224.41
  17  -5 -13 3414.88  190.84
 -17   5  12  324.69  166.85
  17   5 -12  582.50   43.57
  17   5 -12  578.47  203.58
  17  -5 -12  528.93   81.55
 -17   5  11   58.16   34.70
  17   5 -11   -0.18   14.98
  17   5 -11   49.14   63.66
  17  -5 -11   -8.45   33.38
 -17   5  10  390.09   89.90
  17   5 -10  255.20  104.49
  17   5 -10  233.19  128.94
  17  -5 -10  287.61   76.16
 -17   5   9  937.49  110.86
  17   5  -9  871.40  103.49
  17   5  -9  821.32  210.46
  17  -5  -9  979.91  123.30
 -17   5   8  912.44   50.05
  17   5  -8  742.23   65.89
  17   5  -8  887.29  108.91
  17  -5  -8  890.44   64.11
 -17   5   7 4271.49   90.52
  17   5  -7 4538.09  266.46
  17   5  -7 4109.53  332.01
  17  -5  -7 4108.49  311.72
 -17   5   6   53.70   28.36
  17   5  -6   32.41   27.27
  17   5  -6  123.45   69.41
  17  -5  -6   46.08   46.57
 -17   5   5 3091.79  236.28
  17   5  -5 2455.94  205.61
  17   5  -5 2668.79  224.86
  17  -5  -5 2791.53  236.73
 -17   5   4 5665.54  312.38
  17   5  -4 5166.05  311.95
  17   5  -4 4982.19  351.03
  17  -5  -4 5709.19  323.24
 -17   5   3 4456.81  247.12
  17   5  -3 4418.43  303.75
  17   5  -3 4449.37  258.99
  17  -5  -3 3966.56  320.09
 -17   5   2 3184.75  241.68
  17   5  -2 3089.01  247.90
  17   5  -2 3032.68  236.01
  17  -5  -2 2591.87  205.01
 -17   5   1  194.19   53.92
  17   5  -1  328.63  111.89
  17   5  -1  277.24   88.89
  17  -5  -1  176.90   59.40
 -17   5   0 1587.35  123.59
  17   5   0 1642.70  142.29
  17  -5   0 1293.40   62.20
 -17   5  -1   15.50   11.84
  17   5   1  -15.20   50.12
  17   5   1   10.26   31.56
  17  -5   1  -14.55   44.57
 -17   5  -2 4303.54  171.60
  17   5   2 4342.85  187.22
  17   5   2 4539.48  176.67
  17  -5   2 4524.84  184.29
 -17   5  -3  149.05   58.37
  17   5   3   46.01   42.10
  17   5   3   48.53   42.13
  17  -5   3   59.83   48.17
 -17   5  -4 7809.96  396.05
  17   5   4 8174.55  436.81
  17   5   4 6988.58  363.17
  17  -5   4 7244.62  382.34
 -17   5  -5  318.35   75.06
  17   5   5  265.58  179.48
  17   5   5   80.22   42.66
  17  -5   5  409.58  160.79
 -17   5  -6  133.01   64.37
  17   5   6   70.05   98.66
  17   5   6   67.00   52.86
  17  -5   6  162.72   57.25
 -17   5  -7  397.97  126.74
  17   5   7  318.36  144.72
  17  -5   7  400.93  168.55
 -17   5  -8  215.93   74.09
  17   5   8  307.42  102.05
  17  -5   8  252.09  119.60
 -17   5  -9  110.28   67.09
  17   5   9   88.55   68.47
 -17   5 -10 1527.70  117.04
  17   5  10 1520.08  169.06
  17  -5  10 1398.99  121.43
 -17   5 -11 1464.30   55.45
  17   5  11 1250.91   74.34
  17  -5  11 1356.29   74.95
 -17   5 -12  573.77   42.62
  17   5  12  644.76  123.70
  17  -5  12  711.81   78.74
  17  -5  13   32.28   53.00
 -17   7  19 2108.32  135.87
  17   7 -19 1964.32  148.78
  17  -7 -19 2101.05  144.14
 -17   7  18   48.33   37.10
  17   7 -18   21.11   48.66
  17  -7 -18   17.96   44.81
 -17   7  17 3871.72  223.99
  17   7 -17 3679.19  228.86
  17  -7 -17 3857.47  219.91
 -17   7  16  390.38  200.64
  17   7 -16  383.11  133.01
  17   7 -16  381.25  207.69
  17  -7 -16  181.43   81.17
 -17   7  15  203.13  118.37
  17   7 -15  171.32  143.10
  17   7 -15  147.76  116.14
  17  -7 -15  312.68  110.59
 -17   7  14  157.66   71.62
  17   7 -14  180.13   87.71
  17   7 -14  164.10  124.43
  17  -7 -14  187.83   76.00
 -17   7  13  160.18   68.01
  17   7 -13  253.72  105.61
  17   7 -13  298.24  117.62
  17  -7 -13  242.83  148.15
 -17   7  12 1804.37  153.32
  17   7 -12 2113.97  177.99
  17   7 -12 1961.88  169.08
  17  -7 -12 1789.35  165.78
 -17   7  11 2860.46  237.75
  17   7 -11 2627.62  219.06
  17   7 -11 2023.92  199.43
  17  -7 -11 2291.20  204.61
 -17   7  10 1563.91  264.52
  17   7 -10 1405.53  146.94
  17   7 -10 1405.93  148.36
  17  -7 -10 1556.24  153.81
 -17   7   9 2384.68  198.95
  17   7  -9 2267.67  195.46
  17   7  -9 2158.58  188.88
  17  -7  -9 1982.55  218.30
 -17   7   8   96.11   20.42
  17   7  -8   65.66   60.41
  17   7  -8  163.45   72.46
  17  -7  -8   78.10   64.17
 -17   7   7  674.59  177.58
  17   7  -7  389.99  176.58
  17   7  -7  534.89  270.93
  17  -7  -7  619.51  140.03
  17   7  -6   46.67   55.59
  17   7  -6   49.01   54.93
  17  -7  -6   57.99   29.27
 -17   7   5   35.09   37.40
  17   7  -5    6.01   20.39
  17   7  -5   16.33   32.89
  17  -7  -5   22.14   34.81
 -17   7   4  379.77  134.39
  17   7  -4  375.92  191.25
  17  -7  -4  398.86  173.69
 -17   7   3 1508.32  124.05
  17   7  -3 1892.46  170.73
  17   7  -3 1832.72  179.77
  17  -7  -3 2045.82  170.25
 -17   7   2  360.23  137.12
  17   7  -2  481.65  180.83
  17   7  -2  474.83   90.98
  17  -7  -2  385.39  127.58
 -17   7   1   29.48   37.14
  17   7  -1   51.49   60.52
  17   7  -1   57.73   44.47
  17  -7  -1   20.93   66.32
 -17   7   0 1192.71  119.73
  17   7   0 1075.96  281.16
  17   7   0  939.03  177.69
  17  -7   0 1260.58  131.94
 -17   7  -1 3974.43  327.63
  17   7   1 3893.75  317.76
  17   7   1 3951.36  315.02
  17  -7   1 4296.67  346.55
 -17   7  -2  572.87   42.24
  17   7   2  488.64  179.04
  17   7   2  611.11  142.23
  17  -7   2  900.24   88.59
 -17   7  -3  290.19  116.56
  17   7   3  505.07  148.38
  17   7   3  203.11  111.44
  17  -7   3  420.73  151.20
 -17   7  -4  134.79   55.57
  17   7   4  109.54   51.20
 -17   7  -5   21.31   28.54
  17   7   5   51.70   31.33
  17  -7   5   19.60   29.81
 -17   7  -6   -7.22   22.04
  17   7   6   61.03   82.20
  17  -7   6   50.71   43.45
 -17   7  -7  770.73   63.72
  17   7   7  822.22  133.01
  17  -7   7  766.36  162.00
 -17   7  -8  126.51   41.80
  17   7   8  130.12  108.06
  17  -7   8   82.18   37.29
 -17   7  -9  516.27   93.75
  17   7   9  361.87  249.64
  17  -7   9  449.35  245.00
 -17   7 -10  125.26   62.53
  17   7  10  240.03  129.37
  17  -7  10  132.37   24.78
 -17   9  13  247.83  110.41
  17   9 -13  324.69  205.60
  17   9 -13  304.99  151.43
  17  -9 -13  555.07   78.48
 -17   9  12 1921.78  130.10
  17   9 -12 2218.21  157.73
  17   9 -12 1958.62  146.49
  17  -9 -12 1881.34  122.39
 -17   9  11  -15.47   40.16
  17   9 -11   30.97   29.06
  17   9 -11   24.37   40.66
  17  -9 -11   10.95   26.30
 -17   9  10  272.77  122.64
  17   9 -10  277.37   76.67
  17  -9 -10  332.27  136.60
 -17   9   9    4.75   28.48
  17   9  -9   57.10   64.15
  17  -9  -9   21.31   35.67
 -17   9   8  376.69  150.15
  17   9  -8  531.69   59.43
  17   9  -8  200.07  160.57
  17  -9  -8  352.36  163.87
 -17   9   7  253.15   94.28
  17   9  -7  167.31  113.73
  17   9  -7  132.62  106.15
  17  -9  -7  208.42  120.28
 -17   9   6 4185.74  249.87
  17   9  -6 5174.45  307.50
  17   9  -6 4029.23  238.64
  17  -9  -6 4001.82  287.01
 -17   9   5  197.71   89.63
  17   9  -5  137.19  145.75
  17   9  -5  145.01  125.15
  17  -9  -5  130.55  129.85
 -17   9   4  500.04  187.30
  17   9  -4  605.78  206.35
  17   9  -4  685.30  155.85
  17  -9  -4  570.59  155.37
 -17   9   3  167.19   64.13
  17   9  -3  195.15  138.96
  17   9  -3  148.34  100.03
 -17   9   2   69.71   61.69
  17   9  -2   12.97   38.28
  17   9  -2   42.44   71.86
  17  -9  -2   21.71   75.83
 -17   9   1 2413.79  173.56
  17   9  -1 2505.25  190.84
  17  -9  -1 2295.91  172.03
 -17   9   0  390.35  161.65
  17  -9   0  321.99  211.06
 -17   9  -1 1570.81  134.53
  17   9   1 1982.77  186.09
  17  -9   1 1485.85  180.78
 -17   9  -2 5707.66  315.90
  17   9   2 5728.24  340.82
  17  -9   2 6135.13  353.17
 -17   9  -3 2095.37  127.36
  17   9   3 2138.39  162.11
  17  -9   3 1846.02  146.67
  18   0 -25   39.17   55.30
  18   0 -24 1581.61  146.11
  18   0 -23   45.41   73.23
 -18   0  22  170.51   58.56
  18   0 -22  151.85   77.41
 -18   0  21   26.46   20.23
  18   0 -21   36.17   42.25
 -18   0  20  528.90   88.52
  18   0 -20  308.48  117.32
 -18   0  19   26.46   21.63
  18   0 -19    6.76   31.22
 -18   0  18  143.67   47.13
  18   0 -18   70.71   41.62
  18   0 -17   24.98   33.72
  18   0 -16   49.66   35.11
 -18   0  15   31.57   17.11
  18   0 -15   25.77   41.57
 -18   0  14  674.13  134.87
  18   0 -14  489.24   51.28
 -18   0  13   -3.02   24.82
  18   0 -13   46.21   16.11
 -18   0  12  892.62   75.98
  18   0 -12  827.05  127.53
 -18   0  11  -35.08   32.34
  18   0 -11   27.21   54.90
 -18   0  10 1279.04   97.23
  18   0 -10 1280.06  168.51
 -18   0   9  -10.98   27.67
  18   0  -9   28.80   26.83
 -18   0   8  381.99   87.32
  18   0  -8  410.28   82.10
 -18   0   7   41.03   18.10
  18   0  -7   36.09   36.81
 -18   0   640826.40  229.58
  18   0  -639588.42 1861.46
 -18   0   5   13.19   28.18
  18   0  -5   58.48   51.23
 -18   0   424583.97 1148.34
  18   0  -427666.84 1311.00
 -18   0   3    5.11   21.42
  18   0  -3  -19.59   39.11
 -18   0   2 1353.61   91.49
  18   0  -2 1294.25   95.86
 -18   0   1   38.55   23.22
  18   0  -1   66.03   35.50
 -18   0   018283.04  876.35
  18   0   019964.74  952.84
 -18   0  -1   30.53   37.11
  18   0   1   72.62   33.41
 -18   0  -224296.37  210.53
  18   0   222045.21  838.81
 -18   0  -3   25.84   30.56
  18   0   3   67.88   34.51
 -18   0  -4 8135.23  444.47
  18   0   4 7768.59  425.20
 -18   0  -5   37.20   42.64
  18   0   5   -3.35   18.62
 -18   0  -6  484.84   45.35
  18   0   6  512.21   66.58
 -18   0  -7   15.61   14.96
 -18   0  -8   40.41   44.28
  18   0   8   29.05   26.48
 -18   0  -9   16.72   46.96
  18   0   9   10.59   21.12
  18   0  10 4456.93  351.75
  18   0  11   46.12   36.49
  18   0  11   37.45   48.79
  18   0  12 2752.10  163.45
  18   0  12 2940.07  170.56
  18   0  13   12.94   28.46
  18   0  13   24.21   33.82
  18   0  14 3176.82  223.66
  18   0  15   19.05   45.22
  18   2 -25 1463.94  181.54
  18  -2 -25 1438.70  176.73
  18   2 -24 2102.50  107.11
  18  -2 -24 1857.30  162.34
 -18   2  23  260.18  117.51
  18   2 -23  299.87  175.35
  18  -2 -23  395.75   82.30
 -18   2  22   24.50   18.13
  18   2 -22   19.03   32.20
  18  -2 -22    4.33   25.08
 -18   2  21  144.03   65.24
  18   2 -21  153.01   60.91
  18   2 -20 4638.20  393.40
 -18   2  20 5151.30  380.05
 -18  -2  20 5124.68  369.01
  18  -2 -20 5180.31  384.27
  18   2 -19  100.63   39.00
 -18   2  19   90.86   54.90
 -18  -2  19  121.83   64.35
  18  -2 -19  100.57   69.52
  18   2 -18   57.24   50.48
 -18  -2  18   69.90   39.28
  18  -2 -18  -10.41   29.20
  18   2 -17  549.62  183.78
 -18   2  17  516.38   37.03
 -18  -2  17  422.72  143.06
  18  -2 -17  651.14  202.89
  18   2 -16 3505.08  227.45
 -18   2  16 3403.61  194.38
 -18  -2  16 3232.12  207.07
  18  -2 -16 3568.31  202.91
 -18   2  15  790.76   41.97
  18   2 -15  992.37   87.18
  18  -2 -15  872.21  104.65
  18   2 -14  593.20  210.42
 -18   2  14  578.26   72.72
 -18  -2  14  646.08   65.72
  18  -2 -14  530.42   58.85
  18   2 -13 2412.82  217.23
 -18   2  13 2256.99  177.43
 -18  -2  13 2296.54  178.09
  18  -2 -13 2227.83  182.11
  18   2 -12  480.35  158.54
 -18   2  12  556.13   71.30
 -18  -2  12  476.17   46.82
  18  -2 -12  488.81  111.52
  18   2 -11 1212.47  198.42
 -18   2  11 1403.66  149.25
 -18  -2  11 1180.38   54.61
  18  -2 -11  981.08  110.82
  18   2 -10   75.03  101.36
 -18   2  10  166.04   48.36
 -18  -2  10  164.43   52.81
  18  -2 -10  218.85   98.70
  18   2  -9 2709.65  210.34
 -18   2   9 2701.24  200.24
 -18  -2   9 2700.46  190.55
  18  -2  -9 2834.47  202.47
  18   2  -8   96.42   36.26
 -18   2   8   76.65   20.78
 -18  -2   8    6.33   18.79
  18  -2  -8   66.25   46.82
  18   2  -7 2175.29  183.53
 -18   2   7 2188.05  154.77
 -18  -2   7 2488.80  172.77
  18  -2  -7 2304.70  166.96
  18   2  -6 3937.67  272.80
 -18   2   6 3708.46  265.93
 -18  -2   6 3945.01  267.94
  18  -2  -6 3861.00  264.35
  18   2  -5 2339.76  166.32
 -18   2   5 2338.44  165.98
 -18  -2   5 2750.40  190.66
  18  -2  -5 2440.72  172.12
  18   2  -4 3675.23  259.13
 -18   2   4 3525.47  241.48
 -18  -2   4 3986.16  269.22
  18  -2  -4 3537.12  243.02
  18   2  -313746.16  679.58
 -18   2   315323.54  723.78
 -18  -2   314945.78  712.15
  18  -2  -312941.78  648.78
  18   2  -2 2697.88  192.28
 -18   2   2 2268.55  162.34
 -18  -2   2 2490.76  179.88
  18  -2  -2 2375.21  183.53
 -18   2   116117.28  625.19
  18   2  -117915.24  695.89
  18  -2  -117256.17  680.85
  18   2   0 5587.48  233.68
 -18   2   0 5762.88  254.47
 -18  -2   0 5423.73  226.44
  18  -2   0 5697.90  295.21
  18   2   1 6699.82  306.23
 -18   2  -1 6838.48  297.37
 -18  -2  -1 7593.31  311.56
  18  -2   1 7706.32  314.30
  18   2   2  964.11   69.70
 -18   2  -2 1254.40  134.32
 -18  -2  -2  937.33   68.07
  18  -2   2 1084.51   64.87
  18   2   3 2314.19  195.35
 -18   2  -3 2257.77  192.40
 -18  -2  -3 2442.25  209.90
  18  -2   3 2554.64  223.74
 -18   2  -4 2883.47  212.37
 -18  -2  -4 2403.58  218.82
  18  -2   4 2548.97  197.73
 -18   2  -5  374.41  117.40
  18   2   5  434.83  178.64
  18   2   5  304.70   92.51
  18  -2   5  326.02  123.90
 -18   2  -6   -1.51   25.89
  18   2   6   29.38   54.52
  18   2   6   34.70   37.44
  18  -2   6   -5.11   32.87
 -18   2  -7  557.53  159.45
  18   2   7  676.06   72.77
  18   2   7  672.19   55.54
  18  -2   7  613.54   50.94
 -18   2  -8   36.28   27.93
  18   2   8   44.32   26.79
  18   2   8   32.88   24.13
  18  -2   8   -8.04   35.41
 -18   2  -9  948.13   98.54
  18   2   9  873.33  192.91
  18   2   9  799.37  109.24
  18  -2   9  813.50  142.72
 -18   2 -10  582.56   81.55
  18   2  10  551.99  130.59
  18   2  10  482.68  101.20
 -18   2 -11  516.05  121.87
  18  -2  11  770.19   78.84
 -18   2 -12   33.63   26.19
  18   2  12   26.42   39.23
  18  -2  12   18.28   15.54
 -18   2 -13  233.05  109.23
  18   2  13  238.08  141.51
  18  -2  13  153.35  115.07
  18   2  14   16.45   45.07
  18  -2  14  119.34   54.31
 -18   4  23   37.21   39.78
  18   4 -23   11.91   31.44
  18  -4 -23   13.98   28.37
 -18   4  22 4547.58  299.41
  18   4 -22 4232.18  326.75
  18  -4 -22 4900.73  330.21
 -18   4  21 1638.63   60.15
  18   4 -21 1500.41  193.36
  18  -4 -21 1546.11   73.58
 -18   4  20   52.00   27.39
  18   4 -20   28.32   27.67
  18   4 -20  119.30  100.46
  18  -4 -20   63.67   56.65
  18   4 -19 6145.21  451.63
  18   4 -19 5657.76  422.81
  18  -4 -19 6263.36  467.43
 -18   4  18 3363.19  249.78
  18   4 -18 2843.08  215.11
  18   4 -18 2767.05  225.22
  18  -4 -18 2809.15  217.10
 -18   4  17   48.71   30.28
  18   4 -17   35.00   32.25
  18   4 -17   82.14   63.74
  18  -4 -17   35.08   35.34
 -18   4  16   -2.96   30.49
  18   4 -16    2.51   18.63
  18   4 -16   65.56   46.78
  18  -4 -16   10.31   27.65
 -18   4  15 1934.89  214.49
  18   4 -15 1579.15  132.98
  18   4 -15 2035.23  184.07
  18  -4 -15 1728.32  145.60
 -18   4  14   80.68   44.94
  18   4 -14   51.94   23.30
  18   4 -14   23.99   50.07
  18  -4 -14   58.53   34.93
 -18   4  13   17.81   38.13
  18   4 -13   40.19   44.45
  18  -4 -13   13.14   17.26
 -18   4  12 1470.47  117.64
  18   4 -12 1825.74  170.88
  18  -4 -12 1328.55  268.01
 -18   4  11  793.07   72.15
  18   4 -11  809.12   88.35
  18  -4 -11  805.13   93.46
 -18   4  10 1285.76   53.04
  18   4 -10 1536.96  151.70
  18  -4 -10 1343.28  104.68
 -18   4   9 1624.68  132.41
  18   4  -9 1715.59  145.24
  18   4  -9 1882.26  164.20
  18  -4  -9 1841.27  152.61
 -18   4   8  534.17  148.71
  18   4  -8  519.00   49.81
  18   4  -8  480.01  182.65
  18  -4  -8  646.17  196.34
 -18   4   7 1386.69   65.94
  18   4  -7 1411.15  127.56
  18   4  -7 1516.92  138.72
  18  -4  -7 1368.33  130.19
 -18   4   6  933.77   45.69
  18   4  -6  903.69   73.20
  18   4  -6 1071.11  173.18
  18  -4  -6 1059.04  157.75
 -18   4   5  692.01   38.44
  18   4  -5  762.19  141.54
  18   4  -5  859.72  100.14
  18  -4  -5  749.74   99.21
 -18   4   4 8788.75  473.41
  18   4  -4 7744.30  427.14
  18   4  -4 8076.55  471.16
  18  -4  -4 8527.10  467.49
 -18   4   3  292.76   72.22
  18   4  -3  309.83  108.97
  18   4  -3  278.88   76.51
  18  -4  -3  297.00  135.27
 -18   4   211804.24  631.62
  18   4  -211589.88  663.41
  18   4  -212195.13  660.62
  18  -4  -212457.06  710.48
 -18   4   1  712.55   40.67
  18   4  -1  601.54  226.83
  18   4  -1  629.30  191.12
  18  -4  -1  624.38  208.70
 -18   4   0 3612.70  109.24
  18   4   0 3925.91  170.86
  18   4   0 3889.70  195.84
  18  -4   0 3953.80  162.87
 -18   4  -1  289.70   97.62
  18   4   1  551.44  131.69
  18  -4   1  301.72   79.97
 -18   4  -2  199.50   61.54
  18   4   2   61.46   51.34
  18   4   2  134.46   54.19
  18  -4   2  232.06   51.71
 -18   4  -3 1727.35  149.92
  18   4   3 1770.10  168.55
  18   4   3 1952.97  249.21
  18  -4   3 1777.61  156.88
 -18   4  -4   58.00   23.22
  18   4   4   60.79   58.88
  18   4   4    7.02   29.60
  18  -4   4   42.48   56.85
 -18   4  -5  615.06   42.72
  18   4   5  520.09  182.44
  18   4   5  372.42  153.94
  18  -4   5  499.92  175.88
 -18   4  -6 2459.22  206.65
  18   4   6 2745.70  227.13
  18   4   6 2475.37  196.27
  18  -4   6 2448.77  337.81
 -18   4  -7 1460.62  137.66
  18   4   7 1492.77  243.74
  18   4   7 1178.75  115.98
  18  -4   7 1437.87  195.37
 -18   4  -8 2838.71  233.90
  18   4   8 3434.98  268.37
  18  -4   8 2400.71  258.77
 -18   4  -9   38.76   28.72
  18   4   9   30.37   72.64
  18  -4   9   47.63   40.31
 -18   4 -10  814.25   63.63
  18   4  10  804.90  181.20
  18  -4  10  706.84  112.75
 -18   4 -11  152.57   72.31
  18   4  11  119.32   90.38
  18  -4  11  222.47   82.94
 -18   4 -12  213.36  119.70
  18   4  12  160.74   66.26
  18  -4  12  258.42  101.48
  18   4  13  697.57  280.46
  18  -4  13  683.93  111.79
  18   6 -20  436.95  252.00
  18  -6 -20  535.49  182.81
 -18   6  19  115.61   68.54
  18   6 -19  206.03   95.71
  18  -6 -19  151.63   94.97
 -18   6  18   39.04   53.18
  18   6 -18   46.85   55.32
  18  -6 -18  116.18   56.37
 -18   6  17 2151.98  136.35
  18   6 -17 2158.97  142.59
  18   6 -17 2079.38  142.78
  18  -6 -17 2448.66  148.84
 -18   6  16   48.37   43.32
  18   6 -16  102.08   40.48
  18   6 -16   53.53   46.10
  18  -6 -16   68.90   53.96
 -18   6  15   29.25   37.64
  18   6 -15   95.37   64.16
  18   6 -15   91.10   58.00
  18  -6 -15   67.89   56.02
 -18   6  14  166.95   57.41
  18   6 -14  215.54  137.58
  18   6 -14  169.80  116.67
  18  -6 -14  207.02  124.68
  18   6 -13  111.76   55.59
  18   6 -13   70.58   48.88
  18  -6 -13   95.31   52.47
 -18   6  12  731.29  176.57
  18   6 -12  902.47  101.37
  18   6 -12  839.94  305.19
  18  -6 -12  983.26  143.82
 -18   6  11  930.00  129.27
  18   6 -11  781.20   55.14
  18   6 -11 1108.66  138.67
  18  -6 -11  787.88   66.31
 -18   6  10 2386.17  192.93
  18   6 -10 2042.79  173.56
  18   6 -10 2200.03  188.00
  18  -6 -10 2164.86  178.54
 -18   6   9 1836.10  153.43
  18   6  -9 1636.84  198.52
  18   6  -9 1550.94  174.67
  18  -6  -9 1725.29  146.01
 -18   6   8 4121.53  248.46
  18   6  -8 4208.62  265.48
  18   6  -8 4690.78  292.00
  18  -6  -8 4194.68  256.85
 -18   6   7  541.51  171.47
  18   6  -7  665.75   96.69
  18   6  -7  703.05   97.64
  18  -6  -7  768.50  138.11
 -18   6   6   35.07   31.96
  18   6  -6  138.55   79.34
  18   6  -6   11.70   33.07
  18  -6  -6   71.75   69.75
 -18   6   5 5102.22  309.08
  18   6  -5 5019.91  308.73
  18   6  -5 5687.81  345.10
  18  -6  -5 4967.08  303.52
 -18   6   4  566.47   52.22
  18   6  -4  337.34  192.03
  18   6  -4  658.57  174.93
  18  -6  -4  418.85  160.02
 -18   6   3 3434.95  207.74
  18   6  -3 3105.99  228.48
  18  -6  -3 3184.43  203.58
 -18   6   2  234.58   94.69
  18   6  -2  240.03  112.64
  18   6  -2  208.48   92.73
  18  -6  -2  249.95   81.06
 -18   6   1 1647.28  134.65
  18   6  -1 1592.18  145.55
  18   6  -1 1308.09  166.19
  18  -6  -1 1324.28  141.55
 -18   6   0    8.60   28.15
  18   6   0   11.38   36.17
  18   6   0   17.79   49.68
  18  -6   0   87.54   34.62
 -18   6  -1   34.49   19.02
  18   6   1   30.40   44.26
  18   6   1    9.28   33.34
  18  -6   1   43.35   46.64
 -18   6  -2   11.15   25.04
  18   6   2   56.34   45.72
  18   6   2   36.25   24.31
  18  -6   2   52.88   58.83
 -18   6  -3  349.60   90.57
  18   6   3  259.08  147.94
  18   6   3  348.97  133.67
  18  -6   3  410.79  132.20
 -18   6  -4  376.12   89.46
  18   6   4  363.10  194.83
  18   6   4  284.75  130.18
  18  -6   4  370.96  143.22
 -18   6  -5  126.18   41.15
  18   6   5  186.02   74.11
  18  -6   5   78.45   65.04
 -18   6  -6  143.82   39.76
  18   6   6  153.10   79.19
  18  -6   6  125.97   52.65
 -18   6  -7   35.67   19.20
  18   6   7   81.70   80.22
  18  -6   7   68.20   71.28
 -18   6  -8 1807.23   80.44
  18   6   8 2215.64  162.07
  18  -6   8 2261.77  161.25
 -18   6  -9  150.24   84.86
  18   6   9  217.91  102.83
  18  -6   9  301.20  139.80
 -18   6 -10  518.91   47.88
  18   6  10  397.99  257.04
  18  -6  10  649.66  115.62
 -18   8  15  470.91  238.15
  18   8 -15  623.78  171.03
  18   8 -15  432.43  242.35
  18  -8 -15  621.53  106.80
 -18   8  14 6706.58  445.79
  18   8 -14 6815.75  467.94
  18   8 -14 6559.13  449.17
  18  -8 -14 6825.32  454.80
 -18   8  13   30.09   23.77
  18   8 -13   42.17   29.95
  18   8 -13   90.73   51.40
  18  -8 -13   45.89   44.52
 -18   8  12  889.05  117.92
  18   8 -12  746.47   85.59
  18   8 -12  393.85  279.61
  18  -8 -12  472.30  109.85
 -18   8  11  337.30   44.13
  18   8 -11  207.07  119.68
  18   8 -11  195.22  107.14
  18  -8 -11  379.06  148.10
 -18   8  10  231.24   86.10
  18   8 -10  156.26  105.31
  18   8 -10  223.35   98.58
  18  -8 -10  279.26   90.60
 -18   8   9  520.80   43.04
  18   8  -9  653.18   60.52
  18   8  -9  653.23  115.12
  18  -8  -9  639.31  128.18
 -18   8   8   -0.86   23.32
  18   8  -8   74.39   47.88
  18   8  -8   61.46   41.48
  18  -8  -8   36.05   55.26
 -18   8   7   16.24   48.20
  18   8  -7   47.67   38.28
  18  -8  -7   24.84   35.10
 -18   8   6  189.98   59.97
  18   8  -6  106.43   76.73
  18   8  -6  162.08   68.97
  18  -8  -6   94.98   64.77
 -18   8   5  953.98   89.02
  18   8  -5  866.16   73.46
  18   8  -5  836.11   93.46
  18  -8  -5  917.45  145.40
 -18   8   4 5677.04  324.26
  18   8  -4 5355.55  312.03
  18   8  -4 6333.80  350.50
  18  -8  -4 7295.48  393.11
 -18   8   3  824.65   52.87
  18   8  -3  584.79  294.93
  18   8  -3  848.60  134.19
  18  -8  -3  689.17  141.40
 -18   8   2 1514.32  145.02
  18   8  -2 1341.16   94.58
  18   8  -2 1313.18  148.92
  18  -8  -2 1306.75   74.93
 -18   8   1  201.40   89.49
  18   8  -1  131.20   79.27
  18   8  -1  142.84   70.63
  18  -8  -1   53.65   36.08
 -18   8   0  527.87  110.61
  18   8   0  385.68  198.86
  18   8   0  353.95  152.28
  18  -8   0  420.16   72.67
 -18   8  -1 2086.44  128.88
  18   8   1 2327.83  166.22
  18  -8   1 2083.52  157.22
 -18   8  -2 2952.65  201.91
  18   8   2 2653.90  201.95
  18  -8   2 3116.13  224.60
  18   8   3   55.36   81.62
  18  -8   3  186.86  135.53
 -18   8  -4  852.15   97.78
  18   8   4  729.52  224.55
  18  -8   4  728.15   75.91
 -18   8  -5   61.98   28.49
  18  -8   5   59.03   40.97
  19   1 -24  572.60   86.13
  19  -1 -24  333.89  156.89
  19   1 -23 1283.59  123.41
  19  -1 -23 1344.63  166.41
 -19   1  22   20.73   14.67
  19   1 -22   -9.23   51.58
  19  -1 -22   37.58   67.90
  19   1 -21 1258.56  190.71
 -19   1  21 1278.17   98.92
 -19  -1  21 1273.51  101.02
  19  -1 -21 1517.45  134.78
  19   1 -20   39.79   31.28
 -19   1  20    6.17   17.48
 -19  -1  20    7.77   21.12
  19  -1 -20   38.04   57.57
  19   1 -19   27.96   43.02
 -19   1  19   38.71   23.17
 -19  -1  19   33.44   42.15
  19  -1 -19   56.13   52.14
  19   1 -18  100.16   83.86
 -19   1  18  115.82   46.90
 -19  -1  18  135.37   61.69
  19  -1 -18  187.18   98.08
  19   1 -17 2719.72  296.26
 -19  -1  17 3217.66  193.21
  19  -1 -17 2738.37  218.36
 -19   1  16   20.50   12.74
  19   1 -16   16.87   46.61
  19  -1 -16   34.33   33.17
  19   1 -15  429.34  104.73
 -19   1  15  432.84   34.86
 -19  -1  15  367.45   68.56
  19  -1 -15  509.56  132.27
  19   1 -14  286.47  134.71
 -19   1  14  329.50  114.64
 -19  -1  14  434.40   85.63
  19  -1 -14  205.83   78.71
  19   1 -13  981.61  111.12
 -19   1  13  881.90   40.54
 -19  -1  13  926.45   45.97
  19  -1 -13 1103.27   73.09
  19   1 -12  315.93  113.15
 -19   1  12  191.01   67.39
 -19  -1  12  191.04   79.13
  19  -1 -12  206.25  115.67
  19   1 -11   23.77   24.17
 -19   1  11   24.37   41.73
 -19  -1  11   32.87   44.91
  19  -1 -11  -12.27   38.33
  19   1 -10  401.62   69.53
 -19   1  10  282.95   79.33
 -19  -1  10  368.02  125.24
  19  -1 -10  229.57   62.81
  19   1  -9 4208.81  239.97
 -19   1   9 4062.59  169.70
 -19  -1   9 4135.35  177.47
  19  -1  -9 4234.43  190.65
  19   1  -8 3652.14  170.16
 -19   1   8 3350.62   82.39
 -19  -1   8 3258.23  224.87
  19  -1  -8 4198.74  186.56
  19   1  -7 1163.49   69.98
 -19   1   7 1763.23  128.82
 -19  -1   7 1796.34  133.86
  19  -1  -7 1787.55  150.79
  19   1  -6 7580.20  310.03
 -19   1   6 7782.98  307.35
 -19  -1   6 7112.36  321.38
  19  -1  -6 8080.81  328.87
  19   1  -5 5469.40  230.71
 -19   1   5 5804.47  235.09
 -19  -1   5 5108.08  213.05
  19  -1  -5 4725.50  224.41
  19   1  -4 2608.98  189.68
 -19   1   4 2236.90  158.54
 -19  -1   4 2343.98  167.30
  19  -1  -4 2358.40  190.61
  19   1  -3 1265.42   97.20
 -19   1   3 1566.47  115.96
 -19  -1   3 1484.84  195.13
  19  -1  -3 1483.14  116.49
  19   1  -2  518.95   44.57
 -19   1   2  427.82   37.15
 -19  -1   2  336.70  104.94
  19  -1  -2  483.68  109.70
  19   1  -1  301.57   96.11
 -19   1   1  329.15   79.23
 -19  -1   1  306.09   53.84
  19  -1  -1  245.08  128.70
  19   1   0  211.38   82.75
 -19   1   0  132.76   49.94
 -19  -1   0  184.20   78.06
  19  -1   0  311.40   88.17
  19   1   1  150.85   56.64
 -19   1  -1  112.01   43.80
 -19  -1  -1   84.53   36.31
  19  -1   1  118.48   82.64
  19   1   2 1820.49  143.86
 -19   1  -2 1690.94  137.72
 -19  -1  -2 1635.99  130.08
  19  -1   2 1720.06  199.35
  19   1   3 3708.88   96.05
 -19   1  -3 3104.01  237.70
 -19  -1  -3 3267.39  249.68
  19  -1   3 3792.48  156.29
  19   1   4 2951.89  169.44
 -19   1  -4 2743.90  219.76
 -19  -1  -4 2499.47  202.73
  19  -1   4 2934.27  168.13
 -19   1  -5 4535.16  277.27
 -19  -1  -5 4646.48  252.69
  19  -1   5 4717.29  286.84
  19   1   6 2346.35  188.73
 -19   1  -6 2532.13  200.45
 -19  -1  -6 2248.43  183.18
  19  -1   6 2558.48  205.41
  19   1   7  518.71   69.74
 -19   1  -7  406.88  159.01
 -19  -1  -7  372.49  120.37
  19  -1   7  273.16  144.64
 -19   1  -8 3862.74  306.69
  19   1   8 3705.08  343.23
  19   1   8 4214.54  332.54
 -19   1  -9   -3.68   34.14
  19   1   9   76.63   65.21
  19   1   9   46.87   38.11
  19  -1   9   28.46   23.08
 -19   1 -10   12.98   35.45
  19   1  10   18.27   31.96
  19  -1  10   26.62   12.79
 -19   1 -11 4805.38  267.60
  19   1  11 4384.63  260.86
  19   1  11 5138.64  283.15
  19  -1  11 5139.16  284.02
  19   1  12  160.32   79.04
  19  -1  12   39.15   59.83
  19  -1  12   76.00   35.14
  19   1  13   49.06   31.11
  19  -1  13   49.28   51.62
  19  -1  13   22.13   27.54
  19   3 -23   94.11   47.72
  19  -3 -23   91.08   51.15
 -19   3  22   55.79   28.83
  19   3 -22   52.72   27.97
  19  -3 -22   34.54   62.07
 -19   3  21 1887.09   60.03
  19   3 -21 1641.94   94.45
  19  -3 -21 2115.32  139.04
  19   3 -20  221.03  148.90
 -19   3  20  276.90  110.51
 -19  -3  20  244.81  117.61
  19  -3 -20  445.02   81.02
  19   3 -19 1035.03  100.48
 -19  -3  19 1211.97  100.31
  19  -3 -19  964.21   91.31
  19   3 -18  165.06  104.27
 -19   3  18  191.80   62.83
 -19  -3  18  114.11   83.86
  19  -3 -18  231.49  135.09
  19   3 -17  271.52  123.09
 -19   3  17  305.70  124.52
 -19  -3  17  272.64   82.72
  19  -3 -17  155.65   55.48
  19   3 -16  111.21  109.97
 -19   3  16  176.03   58.20
 -19  -3  16  232.41   88.63
  19  -3 -16  229.81   61.75
  19   3 -15 2455.26  208.76
 -19   3  15 3470.17  207.14
 -19  -3  15 2925.26  181.86
  19  -3 -15 3161.08  199.41
 -19   3  14 2856.81   71.96
  19   3 -14 2881.69  180.84
  19  -3 -14 2736.91  224.85
  19   3 -13  317.97  124.71
 -19   3  13  342.03  117.45
 -19  -3  13  378.72  122.82
  19  -3 -13  354.66  127.27
  19   3 -12   44.61   58.11
 -19   3  12   44.66   43.09
 -19  -3  12    2.24   29.98
  19  -3 -12   57.33   61.00
  19   3 -11 8258.85  330.71
 -19   3  11 9112.39  349.23
 -19  -3  11 9055.60  317.80
  19  -3 -1110026.07  354.53
  19   3 -10 2192.04  176.53
 -19   3  10 2446.88  184.02
 -19  -3  10 2289.20  176.84
  19  -3 -10 2171.50  212.56
  19   3  -9 2819.70  241.97
 -19   3   9 2882.84  257.77
 -19  -3   9 2553.69  199.06
  19  -3  -9 2145.58  183.83
  19   3  -8  812.01  230.78
 -19   3   8  944.20  186.56
 -19  -3   8  930.66   56.51
  19  -3  -8  855.15   71.81
  19   3  -7 2068.05  174.65
 -19   3   7 1767.85  169.31
 -19  -3   7 1539.68  160.53
  19  -3  -7 1625.04  203.12
  19   3  -6  239.09  155.88
 -19   3   6  134.62   44.72
 -19  -3   6  125.56   40.31
  19  -3  -6  173.67   75.21
  19   3  -5 4400.96  256.78
 -19   3   5 4435.77  257.28
 -19  -3   5 5010.94  285.22
  19  -3  -5 3917.58  298.86
  19   3  -4   46.20   58.71
 -19   3   4   99.21   54.74
 -19  -3   4  132.27   54.04
  19  -3  -4  169.31   57.16
  19   3  -321667.79 1173.10
 -19   3   320993.44 1119.93
 -19  -3   320799.59 1110.55
  19  -3  -320542.02 1104.44
  19   3  -2  896.72   53.06
 -19   3   2  985.87   57.74
 -19  -3   2 1027.78   84.77
  19  -3  -2  919.89   67.15
  19   3  -1  -31.39   35.96
 -19   3   1   11.04   20.01
 -19  -3   1    6.94   30.03
  19  -3  -1   11.25   43.79
 -19   3   0  151.52   58.42
  19   3   0   61.41   81.51
  19   3   0  156.45   82.40
  19  -3   0  172.98   51.53
 -19   3  -1 3060.29  225.26
  19   3   1 3866.09  170.51
  19   3   1 3497.95  280.70
  19  -3   1 3506.84  263.06
 -19   3  -2 2848.94  121.22
  19   3   2 2668.31  219.43
  19  -3   2 3142.25  190.17
 -19   3  -3  214.90   68.63
  19   3   3  117.37   75.68
  19   3   3  256.37  116.33
  19  -3   3  228.76   74.48
 -19   3  -4 1048.70   86.09
  19   3   4 1078.75   83.31
  19   3   4 1110.65   57.69
  19  -3   4 1217.93  140.87
 -19   3  -5 1035.89   51.96
  19   3   5 1124.49  101.53
  19   3   5 1172.95  145.29
  19  -3   5 1106.60  160.69
 -19   3  -6 1381.14  137.60
  19   3   6  923.75  100.18
  19   3   6 1414.51  138.87
  19  -3   6 1345.84  164.90
 -19   3  -7   42.68   40.81
  19   3   7   23.68   45.09
  19   3   7  100.26   52.57
  19  -3   7   48.31   59.21
 -19   3  -8 2533.24  191.04
  19   3   8 2451.79  282.37
  19   3   8 2493.32  192.17
  19  -3   8 1880.32  166.17
 -19   3  -9   26.25   16.10
  19   3   9   44.79   29.77
  19  -3   9   48.18   36.54
 -19   3 -10   10.01   16.19
  19   3  10   28.01   46.92
  19  -3  10   39.41   30.25
 -19   3 -11   21.89   19.73
  19   3  11   29.51   33.39
  19  -3  11    8.50   19.41
 -19   3 -12  248.20   97.91
  19   3  12  364.61   73.73
  19  -3  12  113.16  148.03
 -19   5  21 1453.66  114.44
  19   5 -21 1268.98  125.06
  19  -5 -21 1042.52  174.01
  19   5 -20 2357.09  186.49
  19  -5 -20 2699.79  194.32
 -19   5  19  -14.01   33.00
  19   5 -19   33.74   32.11
  19   5 -19   49.88   39.99
  19  -5 -19   35.72   53.28
 -19   5  18 4573.78  273.22
  19   5 -18 5057.00  281.10
  19   5 -18 5219.68  308.17
  19  -5 -18 5115.41  286.32
 -19   5  17   75.26   71.76
  19   5 -17   43.30   24.63
  19   5 -17   12.30   59.38
  19  -5 -17   39.56   34.14
 -19   5  16  336.57  122.98
  19   5 -16  305.25  131.57
  19   5 -16  387.65  171.04
  19  -5 -16  340.10  111.01
 -19   5  15  650.36   52.23
  19   5 -15  579.14   76.35
  19   5 -15  539.95  270.69
  19  -5 -15  747.05  124.63
 -19   5  14  745.57   80.67
  19   5 -14  695.53  109.55
  19   5 -14  972.26  198.08
  19  -5 -14  984.34  104.67
 -19   5  13 1526.09  153.03
  19   5 -13 1436.92  144.82
  19   5 -13 1228.87  131.65
  19  -5 -13 1158.63  150.11
 -19   5  12  977.86  187.31
  19   5 -12  840.28  116.16
  19   5 -12  991.84  197.24
  19  -5 -12 1177.36  165.66
 -19   5  11 1007.42  114.83
  19   5 -11  782.08   58.28
  19   5 -11  776.16   61.22
  19  -5 -11  673.38   54.29
 -19   5  10   87.28   43.52
  19   5 -10   43.35   27.38
  19   5 -10   43.87   37.53
  19  -5 -10   50.72   31.92
 -19   5   9   25.47   28.85
  19   5  -9  -16.62   35.90
  19   5  -9   14.89   31.78
  19  -5  -9   52.89   18.73
 -19   5   8 4085.60  225.56
  19   5  -8 4349.81  243.96
  19   5  -8 3986.46  275.13
  19  -5  -8 3983.91  220.03
 -19   5   7   67.88   42.37
  19   5  -7   47.54   35.87
  19   5  -7   72.05   42.11
  19  -5  -7    1.12   34.73
 -19   5   6 5236.09  278.01
  19   5  -6 4567.73  268.64
  19   5  -6 4708.77  264.30
  19  -5  -6 4783.98  259.48
 -19   5   5 7616.40  393.11
  19   5  -5 6429.77  419.06
  19   5  -5 6797.62  415.36
  19  -5  -5 7362.12  415.91
 -19   5   4 2851.80   78.29
  19   5  -4 2299.46  194.84
  19   5  -4 2374.98  200.89
  19  -5  -4 2498.03  209.40
 -19   5   3  376.57   47.44
  19   5  -3  451.53  206.19
  19   5  -3  413.04  151.41
  19  -5  -3  454.80   73.65
 -19   5   2   62.32   36.98
  19   5  -2   18.90   53.34
  19  -5  -2   26.13   51.99
 -19   5   1 3270.79  205.86
  19   5  -1 3341.40  215.38
  19   5  -1 3851.31  242.47
  19  -5  -1 3274.27  209.10
 -19   5   0 1461.85  142.62
  19   5   0 1082.47  187.48
  19   5   0 1723.46  148.46
  19  -5   0 1244.96  126.34
 -19   5  -1 1016.87   51.04
  19   5   1  861.65  135.92
  19   5   1  742.89  156.87
  19  -5   1  674.52  182.52
 -19   5  -2 1120.63  118.97
  19   5   2 1078.76  159.92
  19   5   2 1132.95  210.03
  19  -5   2 1104.28  174.81
 -19   5  -3   50.68   31.39
  19   5   3   53.37   66.66
  19   5   3   62.14   33.20
  19  -5   3   65.23   56.35
 -19   5  -4 1897.46  143.14
  19   5   4 2004.92  174.19
  19   5   4 1581.53  159.56
  19  -5   4 2042.33  166.58
 -19   5  -5 5216.69  393.15
  19   5   5 5348.86  402.43
  19   5   5 4368.01  321.27
  19  -5   5 5201.95  386.47
 -19   5  -6  706.77   60.99
  19   5   6  306.36  148.96
  19  -5   6  775.87   75.84
 -19   5  -7 5102.80  274.61
  19   5   7 5460.77  317.80
  19  -5   7 4729.80  298.44
 -19   5  -8  338.59   45.02
  19   5   8  226.08  167.90
 -19   5  -9   82.32   23.47
  19   5   9   19.55   38.77
  19  -5   9   71.50   53.04
  19  -5  10  177.96  118.94
 -19   7  17  226.11   88.30
  19   7 -17  193.64  119.18
  19   7 -17  226.57  206.94
  19  -7 -17  144.58  110.44
 -19   7  16   67.22   28.52
  19   7 -16    0.00   40.35
  19   7 -16   66.40   92.19
  19  -7 -16  -23.74   28.50
 -19   7  15  946.31   97.77
  19   7 -15 1363.55  126.99
  19   7 -15 1029.12  206.77
  19  -7 -15 1204.00  108.91
 -19   7  14 1055.90  101.15
  19   7 -14 1292.95   87.72
  19   7 -14 1384.47  254.34
  19  -7 -14 1557.48   69.87
 -19   7  13  746.08   85.27
  19   7 -13  648.38   54.01
  19   7 -13  792.96  167.34
  19  -7 -13  518.44  187.84
 -19   7  12   59.31   44.53
  19   7 -12  142.75   72.42
  19   7 -12   73.82   63.62
  19  -7 -12  158.32   97.25
 -19   7  11  133.11   58.74
  19   7 -11   78.16   78.43
  19   7 -11  135.16   66.19
  19  -7 -11  127.74   80.00
 -19   7  10 1154.13  178.45
  19   7 -10 1181.28  116.82
  19   7 -10 1035.88  106.68
  19  -7 -10 1006.17  135.98
 -19   7   9  743.45   74.26
  19   7  -9  439.66  209.08
  19   7  -9  639.49  232.23
  19  -7  -9  560.37  191.04
 -19   7   8  197.90   75.20
  19   7  -8  193.03   92.84
  19   7  -8  317.31  168.98
  19  -7  -8  210.75   91.36
 -19   7   7 6153.94  330.74
  19   7  -7 4943.02  305.50
  19   7  -7 5945.65  336.67
  19  -7  -7 5566.88  306.88
 -19   7   6  948.58  101.90
  19   7  -6  678.14   99.27
  19  -7  -6  790.06   55.99
 -19   7   5  950.13   84.96
  19   7  -5 1096.70  113.72
  19   7  -5 1038.87  133.29
  19  -7  -5  924.88  172.81
 -19   7   4 3058.20  172.98
  19   7  -4 2592.99  172.15
  19   7  -4 3151.68  192.85
  19  -7  -4 2900.19  175.14
 -19   7   3  756.67   60.36
  19   7  -3  652.39   62.26
  19   7  -3  521.97  220.11
  19  -7  -3  580.43   67.36
 -19   7   2  723.21  207.90
  19   7  -2  735.07   67.39
  19   7  -2  476.75  159.89
  19  -7  -2  681.90   52.37
 -19   7   1  482.82   51.02
  19   7  -1  328.35  194.71
  19   7  -1  564.79   82.49
  19  -7  -1  300.09  125.59
 -19   7   0 1889.14  144.87
  19   7   0 2097.76  178.03
  19   7   0 1999.93  162.27
  19  -7   0 2015.09  166.47
 -19   7  -1   41.61   35.18
  19   7   1   24.95   46.57
  19   7   1    8.60   50.37
  19  -7   1   77.40   70.99
 -19   7  -2 2059.78  136.24
  19   7   2 1968.62  213.80
  19  -7   2 1994.89   89.56
 -19   7  -3   76.66   46.51
  19   7   3   -8.41   42.87
  19  -7   3   -2.36   37.97
 -19   7  -4  202.33   77.68
  19   7   4  269.39  134.57
  19  -7   4  163.56   78.36
 -19   7  -5  372.59  126.90
  19   7   5  391.36  188.16
  19  -7   5  440.76  283.07
 -19   7  -6   37.28   21.30
  19   7   6   35.97   36.54
  19  -7   6   65.91   61.95
  20   0 -23   96.16   77.37
 -20   0  22   46.40   30.23
  20   0 -22   69.68   97.12
 -20   0  21   13.11   16.96
  20   0 -21   25.65   40.49
 -20   0  20 1737.88  132.43
  20   0 -20 1291.54  130.68
 -20   0  19   24.75   17.01
  20   0 -19   35.75   41.02
 -20   0  18 5791.50  424.13
  20   0 -18 6363.53  468.13
  20   0 -17   27.85   41.42
 -20   0  16  820.71   71.24
  20   0 -16  961.47   69.72
 -20   0  15   31.51   12.99
  20   0 -15   71.00   31.43
 -20   0  14   52.06   33.14
  20   0 -14   39.59   50.42
 -20   0  13   27.01   19.34
  20   0 -13   80.31   71.50
 -20   0  12 1457.53  142.98
  20   0 -12 1587.63  168.77
 -20   0  11    2.84   22.82
  20   0 -11   31.69   36.43
 -20   0  1023380.16  769.67
  20   0 -1021357.84  736.42
 -20   0   9   36.72   41.31
  20   0  -9   88.58   63.28
 -20   0   8 3889.11  291.39
  20   0  -8 3587.97  294.73
 -20   0   7    5.40   26.23
  20   0  -7  -19.28   40.72
 -20   0   6  110.76   39.32
  20   0  -6   93.38   47.02
 -20   0   5   39.28   14.76
  20   0  -5   27.66   22.05
 -20   0   4 1465.28  131.01
  20   0  -4 1362.22   69.74
 -20   0   3   28.17   44.54
  20   0  -3   41.53   51.09
 -20   0   2 8752.03  476.90
  20   0  -2 7327.78  446.34
 -20   0   1   11.74   38.82
  20   0  -1   90.85   76.22
 -20   0   0 7512.00  267.33
  20   0   0 6651.56  304.12
 -20   0  -1   36.13   26.44
  20   0   1   43.90   39.19
 -20   0  -2 1565.90  151.58
  20   0   2 1662.89  143.12
 -20   0  -3   -0.34   30.18
  20   0   3   65.89   38.60
 -20   0  -4  637.92  109.40
  20   0   4  452.71  170.81
 -20   0  -5   31.95   18.38
  20   0   5   47.32   37.99
 -20   0  -6 3752.26  297.57
 -20   0  -7   24.68   38.62
  20   0   7   -0.86   33.51
 -20   0  -8 2598.81  203.34
  20   0   8 2564.71  225.92
 -20   0  -9   15.64   57.54
  20   0   9   29.20   28.92
  20   0  10  378.55  173.69
  20   0  10  401.76  149.14
  20   0  11   17.11   35.52
  20   0  11   15.39   16.05
  20   0  12  322.37  154.19
 -20   2  23  283.93  110.31
  20   2 -23  303.82  168.48
  20  -2 -23  230.62   94.96
 -20   2  22 1191.20  100.40
  20   2 -22  951.78  182.68
  20  -2 -22  504.89  241.63
 -20   2  21 1803.88   54.09
  20   2 -21 1603.84   86.77
  20  -2 -21 1938.14   93.07
  20   2 -20  112.79   71.26
 -20   2  20  192.97   94.03
 -20  -2  20  119.53   73.03
  20  -2 -20  319.49  123.07
  20   2 -19  333.27  152.90
 -20   2  19  334.41   92.51
 -20  -2  19  303.76   48.79
  20  -2 -19  284.54  141.72
  20   2 -18 2252.85  192.68
 -20  -2  18 2346.99  178.59
  20  -2 -18 2444.63  196.72
  20   2 -17   35.46   25.00
 -20   2  17   29.35   35.68
 -20  -2  17   43.13   21.56
  20  -2 -17   68.04   43.03
  20   2 -16  723.77   62.83
 -20   2  16  706.41   36.42
 -20  -2  16  827.81  105.88
  20  -2 -16  706.56   96.06
 -20   2  15   24.72   13.62
  20   2 -15   40.10   74.21
  20  -2 -15   60.87   50.63
  20   2 -14 2190.45  206.67
 -20   2  14 2171.18  170.10
 -20  -2  14 2123.87  190.81
  20  -2 -14 2061.97  188.21
  20   2 -13 3204.25  194.11
 -20   2  13 3025.27  165.65
 -20  -2  13 3300.82  198.61
  20  -2 -13 3141.96  203.08
  20   2 -12 7844.54  418.06
 -20   2  12 6810.55  351.53
 -20  -2  12 7683.42  396.43
  20  -2 -12 6624.70  353.38
  20   2 -11 4150.18  182.90
 -20   2  11 4264.34  160.87
 -20  -2  11 4195.58  165.39
  20  -2 -11 3687.95  105.62
  20   2 -10 1914.91  163.22
 -20   2  10 1832.35  143.72
 -20  -2  10 1923.13  154.18
  20  -2 -10 1851.53  148.24
  20   2  -9 3290.14  248.55
 -20   2   9 3939.37  153.11
 -20  -2   9 3900.73  157.25
  20  -2  -9 4019.91  204.12
  20   2  -8 1368.20   74.68
 -20   2   8 1567.99  135.78
 -20  -2   8 1505.21  146.33
  20  -2  -8 1786.10  150.64
  20   2  -7  728.86   55.20
 -20   2   7  892.35   76.97
 -20  -2   7  958.14  113.83
  20  -2  -7  768.34   64.94
  20   2  -6 7822.34  287.90
 -20   2   6 8654.32  300.55
 -20  -2   6 7518.56  270.23
  20  -2  -6 8235.91  298.35
  20   2  -5  445.43  154.47
 -20   2   5  376.63  122.27
 -20  -2   5  420.78   84.43
  20  -2  -5  420.44  157.87
  20   2  -4 1031.26   69.95
 -20   2   4  736.92  111.81
 -20  -2   4  848.51   53.69
  20  -2  -4  799.76  114.13
  20   2  -3  455.68  165.04
 -20   2   3  374.98   98.32
 -20  -2   3  488.91  104.53
  20  -2  -3  299.49  124.37
  20   2  -2 5379.73  207.25
 -20   2   2 5909.27  213.86
 -20  -2   2 5217.94  200.94
  20  -2  -2 5390.65  211.93
  20   2  -1   68.03   46.59
 -20   2   1   81.58   51.31
 -20  -2   1   41.18   27.44
  20  -2  -1   79.32   40.02
  20   2   0 2105.13  199.07
 -20   2   0 2402.68  193.33
 -20  -2   0 2167.00  180.17
  20  -2   0 2029.99  174.13
  20   2   1 1396.89  120.07
 -20   2  -1 1578.04  133.13
 -20  -2  -1 1739.19  152.01
  20  -2   1 1374.87  161.83
  20   2   2 1827.84  173.05
 -20   2  -2 1953.02  159.41
 -20  -2  -2 1788.97  153.76
  20  -2   2 1523.67  152.67
 -20   2  -3 2530.07  204.99
 -20  -2  -3 2992.52  193.58
  20  -2   3 3120.28  198.75
 -20   2  -4    9.74   18.32
  20   2   4    0.96   44.57
  20   2   4   -4.52   33.49
  20  -2   4   27.24   37.24
 -20   2  -5  142.63   31.66
  20   2   5   22.88   67.06
  20   2   5  223.41  103.79
  20  -2   5  157.00   51.54
 -20   2  -6   56.81   59.14
  20   2   6   29.16   29.92
  20   2   6   84.68   64.66
  20  -2   6   15.35   42.11
 -20   2  -7  577.33  225.34
  20   2   7  782.78  161.26
  20   2   7  634.98  222.61
  20  -2   7  629.64  120.81
 -20   2  -8   92.93   60.00
  20   2   8   75.08   91.65
  20  -2   8  146.98   67.83
 -20   2  -9  159.31   73.96
  20   2   9  205.73  138.36
  20   2   9  182.05   76.00
 -20   2 -10  159.51  104.20
  20   2  10  174.54   82.22
  20  -2  10  154.56   99.21
 -20   2 -11 1918.61  193.22
  20   2  11 1576.23  264.49
  20  -2  11 1990.72  170.34
  20   2  12  221.55  146.85
  20  -2  12  188.02   70.44
 -20   4  21  156.77   66.98
  20   4 -21   77.27   66.85
  20  -4 -21  166.25   69.90
 -20   4  20  228.31  109.39
  20   4 -20  119.72   68.10
  20   4 -20  221.84  154.93
  20  -4 -20  210.25   67.32
  20   4 -19   -7.19   27.89
  20   4 -19   41.37   46.14
  20  -4 -19   72.09   45.22
 -20   4  18  424.30   87.12
  20   4 -18  227.19  121.98
  20   4 -18  313.36  140.89
  20  -4 -18  492.60  197.58
 -20   4  17 1367.62  113.96
  20   4 -17 1383.96  115.69
  20   4 -17 1191.41  110.68
  20  -4 -17 1345.06  137.08
 -20   4  16  736.53  105.92
  20   4 -16  824.16   55.37
  20   4 -16  671.35   70.36
  20  -4 -16  771.82   65.60
 -20   4  15 1676.43  132.07
  20   4 -15 1854.85  151.41
  20   4 -15 1941.07  264.69
  20  -4 -15 1618.89  131.82
 -20   4  14 1637.07  153.76
  20   4 -14 1291.51  127.77
  20   4 -14 1790.69  184.89
  20  -4 -14 1430.91  148.15
 -20   4  13  648.14  187.55
  20   4 -13  613.47  149.26
  20  -4 -13  852.48  192.44
 -20   4  12 6373.50  372.74
  20   4 -12 5514.04  338.81
  20  -4 -12 6009.73  357.47
 -20   4  11  988.67   60.55
  20   4 -11 1009.15  133.32
  20  -4 -11  745.67   61.51
 -20   4  10 4771.82  314.32
  20   4 -10 4562.30  288.48
  20  -4 -10 4530.82  302.42
 -20   4   9 6071.74  354.57
  20   4  -9 5851.86  350.74
  20   4  -9 5490.31  335.40
  20  -4  -9 6120.53  363.47
 -20   4   8  818.44   47.52
  20   4  -8  959.93   84.15
  20   4  -8  986.08  185.76
  20  -4  -8 1289.22  121.67
 -20   4   7 1443.14  178.91
  20   4  -7 1148.23   64.80
  20   4  -7 1269.01  179.16
  20  -4  -7 1221.23  123.15
 -20   4   6 1978.91  170.25
  20   4  -6 1773.03  153.00
  20   4  -6 1908.65  222.01
  20  -4  -6 1834.08  159.61
 -20   4   5   22.12   19.93
  20   4  -5   -4.22   27.96
  20   4  -5   25.86   22.10
  20  -4  -5   50.85   35.44
 -20   4   4  902.11   54.74
  20   4  -4  804.59  143.75
  20   4  -4  627.01  206.34
  20  -4  -4 1044.47  139.15
 -20   4   3 1336.45  116.13
  20   4  -3 1228.81  121.19
  20   4  -3 1266.26  121.74
  20  -4  -3 1375.69  211.08
 -20   4   2   20.89   24.22
  20   4  -2   49.55   24.17
  20   4  -2   31.65   45.37
  20  -4  -2  -21.96   42.96
 -20   4   1  681.11  100.87
  20   4  -1  422.50  136.29
  20  -4  -1  701.80   71.29
 -20   4   0 1566.40  127.36
  20   4   0 1470.42  144.13
  20   4   0 1219.31  114.91
  20  -4   0 1455.74  153.87
 -20   4  -1  881.33  148.81
  20   4   1  965.24  108.73
  20   4   1 1119.59  211.56
  20  -4   1  872.93  160.79
 -20   4  -2 1149.17  112.05
  20   4   2  952.58  108.38
  20   4   2 1118.62  120.43
  20  -4   2  851.88  236.64
 -20   4  -3   49.66   27.48
  20   4   3   84.05   58.19
  20   4   3   31.00   27.16
  20  -4   3   94.49   61.00
 -20   4  -4 3889.11  284.19
  20   4   4 3635.73  281.43
  20   4   4 3704.05  276.58
  20  -4   4 2769.77  267.39
 -20   4  -5  270.35  114.36
  20   4   5  159.63   80.70
  20   4   5  231.46   85.22
  20  -4   5  252.01   75.40
 -20   4  -6 1446.06  145.44
  20   4   6 1993.93  174.50
  20   4   6 1498.99  122.53
  20  -4   6 1636.21  144.02
 -20   4  -7   24.74   24.60
  20   4   7   46.23   73.77
  20  -4   7   46.38   50.48
 -20   4  -8   16.41   15.49
  20   4   8   79.23   44.58
  20  -4   8   14.48   14.93
 -20   4  -9    9.87   14.76
  20   4   9   16.87   30.47
  20  -4   9   36.81   30.42
 -20   4 -10 2618.72  156.83
  20   4  10 2332.74  175.62
  20  -4  10 2198.23  140.66
 -20   6  18  485.09   52.17
  20   6 -18  331.04  167.55
  20  -6 -18  420.68  148.79
 -20   6  17  194.57   90.84
  20   6 -17  211.80   75.30
  20  -6 -17  210.99  101.19
 -20   6  16   13.25   29.46
  20   6 -16   15.29   58.17
  20   6 -16   36.53   67.28
  20  -6 -16   15.85   33.61
 -20   6  15   21.46   19.75
  20   6 -15   26.32   36.71
  20   6 -15    9.60   53.56
  20  -6 -15   -2.28   40.47
 -20   6  14  320.66  160.41
  20   6 -14  224.59  124.45
  20   6 -14  328.13  145.65
  20  -6 -14  272.13  179.58
 -20   6  13 1181.38  118.17
  20   6 -13  779.79   97.19
  20   6 -13  982.27  101.51
  20  -6 -13 1353.24  118.92
 -20   6  12 1993.95  157.25
  20   6 -12 1705.16  147.29
  20   6 -12 1580.25  155.88
  20  -6 -12 1760.00  149.04
 -20   6  11 1799.32  143.54
  20   6 -11 1707.30  141.50
  20   6 -11 1727.88  151.69
  20  -6 -11 1464.54  181.64
 -20   6  10   24.28   29.10
  20   6 -10   80.64   56.72
  20   6 -10   -7.99   54.06
  20  -6 -10   51.82   41.84
 -20   6   9 4629.18  340.58
  20   6  -9 4001.68  310.46
  20   6  -9 4078.78  311.92
  20  -6  -9 4426.11  340.08
 -20   6   8 3707.61  273.97
  20   6  -8 3821.55  402.98
  20   6  -8 4834.23  372.68
  20  -6  -8 4989.29  368.24
 -20   6   7 1907.10  153.25
  20   6  -7 1565.58  138.07
  20   6  -7 1960.92  173.85
  20  -6  -7 1584.38  192.22
 -20   6   6 2035.21  164.63
  20   6  -6 2054.55  186.68
  20   6  -6 2217.83  183.94
  20  -6  -6 2283.53  184.69
 -20   6   5 2005.91  160.30
  20   6  -5 1873.58  155.03
  20   6  -5 2327.74  189.65
  20  -6  -5 1590.89  246.10
 -20   6   4   17.87   19.62
  20   6  -4    2.93   59.09
  20  -6  -4   41.53   53.48
 -20   6   3  542.25  156.48
  20   6  -3  633.78  264.13
  20   6  -3  564.11  153.30
  20  -6  -3  594.03  120.89
 -20   6   2 3012.61  224.85
  20   6  -2 2794.88  223.37
  20   6  -2 2849.34  232.62
  20  -6  -2 2778.12  233.48
 -20   6   1 2425.70  169.10
  20   6  -1 2164.19  112.45
  20  -6  -1 2499.79  158.98
 -20   6   0  712.68   43.91
  20   6   0  641.89  256.38
  20   6   0  729.17   93.01
  20  -6   0  715.29  123.82
 -20   6  -1 4040.65  240.71
  20   6   1 5227.02  304.03
  20   6   1 4672.58  263.77
  20  -6   1 3902.81  229.47
 -20   6  -2   93.51   44.04
  20   6   2   32.15   58.20
  20   6   2   62.29   28.87
  20  -6   2   98.39   52.07
 -20   6  -3 1339.92   56.70
  20   6   3 1180.18   93.87
  20  -6   3 1252.99  296.40
 -20   6  -4 1691.93  157.79
  20   6   4 1733.84  163.89
  20  -6   4 1898.90  169.91
 -20   6  -5   16.59   10.28
  20   6   5   27.22   99.74
 -20   6  -6 2047.17  122.70
  20   6   6 2001.26  158.10
  20  -6   6 2007.58  143.70
 -20   6  -7  141.25   36.53
  20   6   7  167.61  112.32
  20  -6   7  223.31   94.54
 -20   8  11 1105.46  109.52
  20   8 -11 1149.24  162.44
  20   8 -11  909.38  147.91
  20  -8 -11  919.49   85.82
 -20   8  10 2725.34  167.55
  20   8 -10 2264.32  158.88
  20   8 -10 2388.24  177.00
  20  -8 -10 2506.39  168.76
 -20   8   9 1168.05  107.75
  20   8  -9  999.93   96.02
  20   8  -9  916.91  261.50
  20  -8  -9 1092.97   99.74
 -20   8   8  608.10   56.85
  20   8  -8  766.33  122.76
  20   8  -8  697.36  181.22
  20  -8  -8  580.19  227.79
 -20   8   7   22.03   39.16
  20   8  -7   57.37   52.93
  20   8  -7   66.99   57.36
  20  -8  -7   78.28   59.48
 -20   8   6  154.59   64.74
  20   8  -6  235.04   89.84
  20   8  -6  150.99  101.39
  20  -8  -6  156.97   67.87
 -20   8   5  402.95  135.44
  20   8  -5  498.31  304.52
  20   8  -5  568.76   53.68
  20  -8  -5  573.95   88.60
 -20   8   4   74.36   49.95
  20   8  -4   64.10   72.90
  20   8  -4   20.23   63.75
  20  -8  -4   40.22   49.74
 -20   8   3 2599.65  154.70
  20   8  -3 3208.70  210.67
  20   8  -3 2467.01  192.41
  20  -8  -3 3021.84  191.14
 -20   8   2   26.90   29.18
  20   8  -2   67.83   36.67
  20   8  -2   15.40   30.08
  20  -8  -2   29.82   40.30
 -20   8   1   22.87   42.18
  20   8  -1   31.94   46.92
  20   8  -1   10.98   19.67
  20  -8  -1   23.65   48.63
 -21   1  22  867.08   71.27
  21   1 -22 1253.52  119.63
  21  -1 -22  936.26   89.73
  21   1 -21 1961.84  180.75
 -21   1  21 1856.59  150.04
 -21  -1  21 1529.02  128.08
  21  -1 -21 1483.86  144.49
  21   1 -20  265.83  180.41
 -21   1  20  303.90  125.17
 -21  -1  20  275.61   86.24
  21   1 -19  -10.94   45.25
 -21   1  19    5.26   27.93
 -21  -1  19   16.79   34.41
  21  -1 -19   13.85   32.95
  21   1 -18  819.43   78.37
 -21   1  18  785.41   75.89
 -21  -1  18  671.10   44.19
  21  -1 -18  705.26   88.55
  21   1 -17 1000.98  107.56
 -21   1  17  785.09   39.94
 -21  -1  17  899.38  130.88
  21  -1 -17 1271.91  116.36
 -21   1  16   91.07   36.98
  21   1 -16   63.40   52.55
  21  -1 -16    7.38   68.39
  21   1 -15   21.19   41.72
 -21   1  15   39.09   44.70
 -21  -1  15    8.26   42.47
  21  -1 -15   44.94   36.75
  21   1 -14 4870.31  303.85
 -21   1  14 4777.46  280.36
 -21  -1  14 4463.07  279.28
  21  -1 -14 5092.92  309.93
  21   1 -13  217.17   98.57
 -21   1  13  248.74   75.92
 -21  -1  13  206.34   82.92
  21  -1 -13  170.50   65.23
  21   1 -12 2730.61  228.51
 -21   1  12 3397.87  204.85
 -21  -1  12 3741.09  226.49
  21  -1 -12 3043.51  225.66
  21   1 -11 2489.03  212.74
 -21   1  11 2119.87  187.36
 -21  -1  11 2058.30  169.61
  21  -1 -11 2193.55  189.84
  21   1 -10  841.26  131.59
 -21   1  10  780.90   63.70
 -21  -1  10  785.83   69.80
  21  -1 -10  790.98   70.42
  21   1  -9 2151.96  262.73
 -21   1   9 2132.75  230.69
 -21  -1   9 1977.64  172.78
  21  -1  -9 2422.75  205.39
  21   1  -8  351.52  184.01
 -21   1   8  396.56  117.48
 -21  -1   8  400.64   91.60
  21  -1  -8  349.43  188.24
  21   1  -7 1939.52  213.79
 -21   1   7 1881.55  156.65
 -21  -1   7 2070.94  171.86
  21  -1  -7 2141.14  198.88
  21   1  -6  236.12  146.51
 -21   1   6  128.40   44.72
 -21  -1   6  204.20   92.68
  21  -1  -6  231.32  130.88
  21   1  -5  227.21   97.81
 -21   1   5   80.32   51.17
 -21  -1   5  166.28   58.12
  21  -1  -5  227.20  100.54
  21   1  -4   53.51   37.75
 -21   1   4   28.47   38.01
 -21  -1   4   19.31   47.40
  21  -1  -4   34.94   28.81
  21   1  -3 2029.61  177.81
 -21   1   3 1332.29  154.48
 -21  -1   3 1549.23  172.51
  21  -1  -3 1600.77  154.57
  21   1  -2  292.35  118.91
 -21   1   2  303.69   97.16
 -21  -1   2  383.82  113.01
  21  -1  -2  537.57  134.48
  21   1  -1  564.86   46.75
 -21   1   1  545.30   77.84
 -21  -1   1  511.13  135.12
  21  -1  -1  530.53  198.46
  21   1   0  570.78  145.07
 -21   1   0  686.60   47.70
 -21  -1   0  458.54  167.31
  21  -1   0  737.58  194.67
  21   1   1  290.53   93.92
 -21   1  -1  206.77   50.77
 -21  -1  -1  159.42   85.27
  21  -1   1  225.14   99.73
  21   1   2  130.63   76.14
 -21   1  -2  205.66   66.69
 -21  -1  -2  253.45   59.07
  21  -1   2  183.83   72.34
  21   1   3 4199.10  334.08
 -21   1  -3 3958.01  312.86
 -21  -1  -3 3802.16  310.51
  21  -1   3 4095.64  325.82
 -21   1  -4  309.96   91.23
 -21  -1  -4  326.17  131.40
  21  -1   4  199.59   87.00
  21   1   5  429.29  151.35
 -21   1  -5  492.71  107.23
 -21  -1  -5  365.81  128.84
  21  -1   5  335.48  163.41
  21   1   6  151.88   81.00
 -21   1  -6  165.85   51.38
 -21  -1  -6  209.76   93.20
  21  -1   6  134.04   70.27
 -21   1  -7 1549.96  132.42
  21   1   7 1578.94  135.52
  21   1   7 1555.98  126.96
 -21   1  -8  869.39   58.26
  21   1   8  974.50   82.91
  21   1   8 1035.53   57.50
  21  -1   8  774.21   50.66
 -21   1  -9 2282.14  166.34
  21   1   9 2505.25  178.85
  21  -1   9 2157.06  158.21
 -21   1 -10 5632.32  317.11
  21   1  10 5780.09  339.55
  21   1  10 5531.40  311.23
  21  -1  10 5772.33  325.66
  21   3 -21   88.96   43.81
  21  -3 -21   91.76   36.08
 -21   3  20   -1.94   20.90
  21   3 -20  -12.79   47.62
  21  -3 -20   32.16   41.93
  21   3 -19  -18.26   46.21
 -21  -3  19   23.22   34.44
  21  -3 -19   24.23   44.58
  21   3 -18   92.00   59.95
 -21   3  18   -7.12   21.35
 -21  -3  18   65.68   43.39
  21  -3 -18  -13.36   44.78
  21   3 -17   41.66   50.05
 -21   3  17   28.41   42.70
 -21  -3  17   24.23   19.67
  21  -3 -17   81.04   55.14
  21   3 -16  125.75   75.63
 -21   3  16  392.41  130.01
 -21  -3  16  247.36  121.73
  21  -3 -16  368.81  152.16
  21   3 -15   82.09   71.42
 -21   3  15   24.22   15.27
 -21  -3  15   28.50   22.07
  21  -3 -15   63.86   36.91
  21   3 -14  564.98  225.10
 -21   3  14  742.85   46.67
 -21  -3  14  603.79  180.59
  21  -3 -14  709.24  107.46
  21   3 -13  918.70  193.75
 -21   3  13 1003.78  125.32
 -21  -3  13  992.96  121.89
  21  -3 -13 1184.64  122.88
  21   3 -12  159.94   68.18
 -21   3  12  168.24   54.39
 -21  -3  12  144.96   52.83
  21  -3 -12  220.56   91.28
  21   3 -11  864.44  205.86
 -21   3  11  840.50   77.28
 -21  -3  11  960.34  112.56
  21  -3 -11  749.69   81.51
  21   3 -10  217.58   96.48
 -21   3  10  218.16   55.26
 -21  -3  10  207.84   75.67
  21  -3 -10  423.86  135.84
  21   3  -9  776.24  223.56
 -21   3   9  864.78  112.88
 -21  -3   9  664.50  168.57
  21  -3  -9  896.92  152.19
  21   3  -8  -11.95   33.48
 -21   3   8   14.31   33.36
 -21  -3   8   -4.22   39.69
  21  -3  -8   33.40   41.09
  21   3  -7  260.77  106.92
 -21   3   7  245.37   63.97
 -21  -3   7  135.87   45.15
  21  -3  -7  301.07   66.66
  21   3  -6   38.35   43.20
 -21   3   6   43.55   32.70
 -21  -3   6   48.90   57.07
  21  -3  -6   30.73   46.35
  21   3  -5   -0.12   37.77
 -21   3   5   39.61   33.86
 -21  -3   5   12.84   26.12
  21  -3  -5   18.07   32.06
  21   3  -4  749.37   61.91
 -21   3   4  793.06   73.17
 -21  -3   4  687.62  214.18
  21  -3  -4  705.62  208.89
  21   3  -3 1293.27  113.65
 -21   3   3 1241.24  187.09
 -21  -3   3 1168.85  115.84
  21  -3  -3 1108.54  142.67
  21   3  -2 1500.75  137.46
 -21   3   2 1656.76  144.73
 -21  -3   2 1756.84  172.29
  21  -3  -2 1532.28  173.38
 -21   3   1 4826.72  285.31
  21   3  -1 4851.36  296.88
  21  -3  -1 4508.52  277.53
 -21   3   0 2832.44  225.82
  21   3   0 2510.29  209.98
  21  -3   0 2710.10  224.70
 -21   3  -1  136.01   75.78
  21   3   1   62.83   67.39
  21   3   1  117.28  122.38
  21  -3   1  179.10   85.26
 -21   3  -2  962.55  111.31
  21   3   2  818.48  109.56
  21   3   2  891.02  168.97
  21  -3   2  774.67  148.58
 -21   3  -3   61.51   24.74
  21   3   3   67.50   42.36
  21   3   3   31.09   22.58
  21  -3   3   33.46   51.47
 -21   3  -4  534.87   51.37
  21   3   4  439.25  188.36
  21   3   4  475.04   72.58
  21  -3   4  570.53  188.65
 -21   3  -5  560.33  138.21
  21   3   5  540.74   60.24
  21   3   5  553.92  102.26
  21  -3   5  309.41  151.31
 -21   3  -6   44.77   52.51
  21   3   6   77.94   48.13
  21   3   6  116.30   59.28
  21  -3   6  157.23   95.13
 -21   3  -7 2533.04  179.34
  21   3   7 2713.29  173.96
  21  -3   7 2719.23  165.03
 -21   3  -8 1744.44  148.87
  21   3   8 1697.95  156.80
  21  -3   8 1637.82  148.38
 -21   3  -9 7384.86  403.34
  21   3   9 8135.54  456.63
 -21   5  18  183.10   69.84
  21   5 -18  214.92   70.78
  21   5 -18  298.00  126.97
  21  -5 -18  242.97   98.07
 -21   5  17  256.82  113.57
  21   5 -17  406.33  168.52
  21   5 -17  390.06  223.11
  21  -5 -17  509.70   64.60
 -21   5  16 2396.58  179.71
  21   5 -16 2431.84  176.32
  21   5 -16 2365.53  186.96
  21  -5 -16 1994.10  173.41
 -21   5  15 1519.25   96.71
  21   5 -15 1737.56   76.26
  21   5 -15 1537.09   92.85
  21  -5 -15 1370.75   68.48
 -21   5  14    4.50   52.19
  21   5 -14   62.46   49.11
  21   5 -14   56.39   60.64
  21  -5 -14   18.21   42.22
 -21   5  13  626.97   44.42
  21   5 -13  541.61  210.52
  21   5 -13  477.78  236.49
  21  -5 -13  405.71  200.49
 -21   5  12  114.97   44.09
  21   5 -12  102.12   52.46
  21   5 -12  189.51   75.12
  21  -5 -12   82.41   38.55
 -21   5  11   11.82   21.46
  21   5 -11  -34.65   43.89
  21   5 -11   57.38   47.02
  21  -5 -11   38.40   21.76
 -21   5  10 4789.13  349.79
  21   5 -10 4273.50  322.67
  21   5 -10 3909.34  298.73
  21  -5 -10 4462.62  331.31
 -21   5   9   16.49   31.42
  21   5  -9   70.23   37.00
  21   5  -9   36.63   62.33
  21  -5  -9   39.00   41.18
 -21   5   8 1017.55  131.49
  21   5  -8  938.87  160.59
  21   5  -8  968.01  137.74
  21  -5  -8  875.04  131.29
 -21   5   7 3009.66  223.10
  21   5  -7 2909.01  226.75
  21   5  -7 3504.49  277.16
  21  -5  -7 3249.84  256.95
 -21   5   6  383.63  121.13
  21   5  -6  269.24  126.57
  21   5  -6  177.19   80.74
  21  -5  -6  389.61  119.79
 -21   5   5  659.87  184.86
  21   5  -5  710.04  238.52
  21   5  -5  576.85  129.24
  21  -5  -5  775.04   86.02
 -21   5   4  973.77  188.19
  21   5  -4 1215.70  116.87
  21   5  -4 1280.81  130.46
  21  -5  -4 1133.64  102.45
 -21   5   3   33.07   18.91
  21   5  -3   50.98   53.78
  21  -5  -3   50.19   64.28
 -21   5   2  891.55   88.94
  21   5  -2  897.35  125.65
  21   5  -2  837.03  134.56
  21  -5  -2 1000.71  142.60
 -21   5   1 3789.08  206.88
  21   5  -1 4524.27  266.86
  21   5  -1 3359.32  223.45
  21  -5  -1 4027.57  306.27
 -21   5   0 4875.12  261.78
  21   5   0 5127.53  297.71
  21   5   0 5037.53  282.21
  21  -5   0 5222.96  294.17
 -21   5  -1   71.86   35.71
  21   5   1   23.03   65.06
  21   5   1   41.84   21.00
  21  -5   1   61.89   42.81
 -21   5  -2 1074.43   57.07
  21   5   2 1089.74   79.91
  21   5   2 1111.18   64.39
  21  -5   2 1012.38  233.94
 -21   5  -3   91.37   52.95
  21   5   3   71.48   86.80
  21   5   3   49.43   45.26
  21  -5   3   28.69   56.67
 -21   5  -4  598.52   78.01
  21   5   4  687.96   68.70
  21  -5   4  453.17  194.68
 -21   5  -5   19.89   30.72
  21   5   5  114.22   88.64
  21  -5   5   37.58   61.29
 -21   5  -6 1339.03  100.01
  21   5   6 1539.06  139.49
  21  -5   6 1030.08  127.16
 -21   5  -7  252.03  128.58
  21  -5   7  499.89  188.15
 -21   7  13 8794.02  481.91
  21   7 -13 8239.99  462.52
  21   7 -13 7934.67  450.58
  21  -7 -13 7522.21  417.28
 -21   7  12  166.99   76.80
  21   7 -12   93.77   38.81
  21   7 -12  154.04   69.72
  21  -7 -12  157.93   77.58
 -21   7  11 1853.29  210.76
  21   7 -11 1633.10  118.36
  21   7 -11 1893.82  140.29
  21  -7 -11 1689.15  126.43
 -21   7  10   30.20   39.94
  21   7 -10   -4.85   38.79
  21   7 -10   61.63   26.44
  21  -7 -10   32.27   35.01
 -21   7   9   54.35   41.69
  21   7  -9    2.98   41.93
  21   7  -9   22.08   30.39
  21  -7  -9   44.06   43.46
 -21   7   8  705.22   82.60
  21   7  -8  789.59  106.88
  21   7  -8  921.18  155.33
  21  -7  -8  762.76  176.67
 -21   7   7  462.82   71.06
  21   7  -7  404.92  181.93
  21  -7  -7  476.84   46.79
 -21   7   6   31.84   25.22
  21   7  -6   75.94   46.37
  21   7  -6   51.21   64.09
 -21   7   5  416.35  119.90
  21   7  -5  436.21  206.95
  21   7  -5  314.99  197.14
  21  -7  -5  376.58  114.05
 -21   7   4  660.97  170.22
  21   7  -4  706.17   81.11
  21   7  -4  788.47  182.15
  21  -7  -4  603.26   94.94
 -21   7   3  159.74   60.07
  21   7  -3   64.32   38.36
  21  -7  -3   79.25   53.76
 -21   7   2  473.61  146.59
  21   7  -2  585.08  103.93
  21   7  -2  270.89  112.44
  21  -7  -2  583.80   97.76
 -21   7   1 2468.10  147.98
  21   7  -1 2298.40  157.99
  21   7  -1 1945.65  133.55
  21  -7  -1 2213.71  151.86
 -21   7   0   40.97   25.68
  21   7   0   59.12   49.43
  21   7   0    9.50   20.22
  21  -7   0   63.18   51.96
 -21   7  -1  263.66  116.94
  21   7   1  212.36  171.04
  21  -7   1  377.11  146.12
 -22   0  21   15.29   14.83
  22   0 -21   49.04   62.27
 -22   0  20  181.16   89.79
  22   0 -20  170.32   90.23
 -22   0  19  -13.03   21.01
  22   0 -19   50.63   54.69
 -22   0  18 1474.80   56.85
  22   0 -18 1289.10   84.53
  22   0 -17  116.99   62.12
 -22   0  16  399.43   77.53
  22   0 -16  541.09  156.09
 -22   0  15   -8.66   30.48
  22   0 -15   -5.63   46.95
 -22   0  14 1610.72  133.63
  22   0 -14 1884.01  159.35
 -22   0  13   19.25   31.75
  22   0 -13    5.12   35.51
 -22   0  12  996.98  101.11
  22   0 -12  866.81  188.08
 -22   0  11    5.73   31.58
  22   0 -11   16.94   39.74
 -22   0  10   25.22   15.63
  22   0 -10   49.67   28.70
 -22   0   9   55.12   35.94
  22   0  -9   22.75   44.06
 -22   0   8 3311.01  241.14
  22   0  -8 3603.67  246.29
 -22   0   7   24.95   21.89
  22   0  -7   24.08   51.71
 -22   0   6  576.90   95.90
  22   0  -6  580.57   53.41
 -22   0   5   -8.30   37.54
  22   0  -5   23.17   62.21
 -22   0   4 1155.64  157.54
  22   0  -4 1099.53  245.53
 -22   0   3   43.49   26.03
  22   0  -3   52.00   50.75
 -22   0   2 8393.64  487.43
  22   0  -2 7930.87  474.04
 -22   0   1   30.16   27.53
  22   0  -1   84.30   42.67
 -22   0   0  132.55   79.76
  22   0   0  171.97   67.79
 -22   0  -1   36.23   27.68
  22   0   1   22.50   47.55
 -22   0  -2  947.96  168.76
  22   0   2 1231.32  160.63
 -22   0  -3   27.71   19.74
  22   0   3   52.33   19.83
 -22   0  -4 1301.22  187.42
  22   0   4 1190.39  173.88
 -22   0  -5   24.53   24.64
  22   0   5  -13.42   23.39
 -22   0  -6 4544.87  259.86
  22   0   6 3078.16  238.68
 -22   0  -7   11.13   26.91
  22   0   7   29.69   32.74
 -22   0  -8 4254.52  290.38
  22   0   8 4114.94  280.83
  22   0   9   22.49   27.35
  22   0   9   67.39   37.01
 -22   2  21  143.52   65.09
  22   2 -21  280.35  123.81
  22  -2 -21  186.35   93.27
 -22   2  20  147.38   71.21
  22   2 -20  231.28  116.64
  22  -2 -20   76.86   60.73
  22   2 -19  192.91   47.40
 -22   2  19  147.20   68.31
 -22  -2  19  139.74  102.40
  22  -2 -19  174.66  120.52
  22   2 -18 1558.75  149.50
 -22  -2  18 1610.39   65.29
  22  -2 -18 1563.17   79.26
  22   2 -17  330.47  146.05
 -22   2  17  431.26   45.81
 -22  -2  17  275.29  126.03
  22  -2 -17  392.90  227.53
  22   2 -16 2782.08  255.07
 -22   2  16 3369.12  188.90
 -22  -2  16 3204.27  182.94
  22  -2 -16 3086.83  188.41
 -22   2  15  962.48  152.75
  22   2 -15  981.37  127.22
  22  -2 -15 1067.22  144.22
  22   2 -14   64.06   76.40
 -22   2  14   32.29   27.70
 -22  -2  14   33.96   42.76
  22  -2 -14    1.88   50.35
  22   2 -13  216.04   95.47
 -22   2  13  369.24   57.26
 -22  -2  13  424.70   77.03
  22  -2 -13  318.76  162.52
  22   2 -12   96.41   63.36
 -22   2  12   70.44   26.90
 -22  -2  12   77.65   46.92
  22  -2 -12   84.08   30.64
  22   2 -11  294.49  157.65
 -22   2  11  314.16   90.91
 -22  -2  11  268.53   88.10
  22  -2 -11  215.19   78.95
  22   2 -10  125.57   91.91
 -22   2  10   89.83   39.55
 -22  -2  10   98.17   46.35
  22  -2 -10   56.96   71.19
  22   2  -9 1162.50  134.85
 -22   2   9 1131.06  121.16
 -22  -2   9 1128.46  162.67
  22  -2  -9 1106.82  125.05
  22   2  -8   62.67   40.21
 -22   2   8   30.25   25.33
 -22  -2   8   39.58   42.47
  22  -2  -8   78.62   53.80
  22   2  -7 3618.17  246.21
 -22   2   7 3650.09  232.77
 -22  -2   7 3690.13  230.04
  22  -2  -7 3931.42  246.50
  22   2  -6  245.30  105.85
 -22   2   6  235.58   81.93
 -22  -2   6  258.62   78.54
  22  -2  -6  175.07   95.20
  22   2  -5 2903.82  186.06
 -22   2   5 2749.27  215.54
 -22  -2   5 3287.81  209.65
  22  -2  -5 3611.89  228.32
  22   2  -4   90.26   94.80
 -22   2   4  210.03   70.26
 -22  -2   4  111.68   52.33
  22  -2  -4  121.98   58.46
  22   2  -3 1770.07  174.90
 -22   2   3 1735.32  164.98
 -22  -2   3 1507.73  151.47
  22  -2  -3 1480.28  150.26
  22   2  -2  280.41  123.62
 -22   2   2  197.48  155.58
 -22  -2   2  102.85   73.00
  22  -2  -2  186.78   53.58
  22   2  -1 4330.14  346.17
 -22   2   1 3974.69  313.98
 -22  -2   1 4321.72  347.57
  22  -2  -1 3858.76  339.22
  22   2   0 1613.45  196.48
 -22   2   0 1569.76  149.69
 -22  -2   0 1909.11  188.55
  22  -2   0 1684.40  166.99
  22   2   1  163.43   73.24
 -22   2  -1  146.40   43.87
 -22  -2  -1   84.53   51.80
  22  -2   1  122.83   42.98
  22   2   2   46.14   38.01
 -22   2  -2   32.67   30.52
 -22  -2  -2   39.32   29.92
  22  -2   2   33.04   59.02
 -22   2  -3 2425.23  194.77
  22   2   3 2072.17  176.66
  22   2   3 2456.47  150.23
  22  -2   3 1865.54  152.49
 -22   2  -4 1239.01  104.96
  22   2   4 1434.26  134.19
  22   2   4 1306.00  110.19
  22  -2   4 1251.96  179.52
 -22   2  -5 1155.04   69.48
  22   2   5  957.78  152.88
  22   2   5  968.17   62.07
  22  -2   5 1078.06  182.37
 -22   2  -6  496.94   53.87
  22   2   6  413.50  170.20
  22   2   6  310.66   93.27
  22  -2   6  305.03  132.77
 -22   2  -7  227.72  124.61
  22   2   7   89.01   45.56
  22   2   7  199.29  131.07
  22  -2   7  282.30   90.69
 -22   2  -8   75.84   29.87
  22   2   8  126.01   72.22
  22   2   8  113.00   65.83
  22  -2   8   35.49   52.13
  22   4 -19  323.28  127.49
 -22   4  18   36.42   34.76
  22   4 -18    3.21   23.92
  22   4 -18   42.77   31.47
  22  -4 -18   70.24   55.25
 -22   4  17  314.28  131.35
  22   4 -17  453.10  101.56
  22   4 -17  410.16  185.99
  22  -4 -17  384.86  159.10
 -22   4  16  892.74   88.53
  22   4 -16  812.96   83.52
  22   4 -16 1112.58  156.93
  22  -4 -16  747.31   87.61
 -22   4  15   43.90   27.21
  22   4 -15   -7.19   32.22
  22   4 -15   28.32   37.48
  22  -4 -15   44.51   59.38
 -22   4  14  536.32  184.59
  22   4 -14  478.40  200.61
  22   4 -14  732.84  134.72
  22  -4 -14  736.85  102.52
 -22   4  13   75.39   48.36
  22   4 -13  156.25   57.94
  22   4 -13  169.42   67.10
  22  -4 -13   98.67   47.62
 -22   4  12  137.44   51.28
  22   4 -12  147.02   99.07
  22   4 -12  127.52   87.60
  22  -4 -12  186.80   93.73
 -22   4  11  672.57   67.72
  22   4 -11  511.96  226.69
  22   4 -11  409.63  196.09
  22  -4 -11  568.96   50.32
 -22   4  10 1240.90  111.88
  22   4 -10 1282.70  113.58
  22   4 -10 1376.45  129.22
  22  -4 -10 1028.32   97.63
 -22   4   9   15.01   41.98
  22   4  -9   27.90   21.86
  22   4  -9   35.19   57.53
  22  -4  -9   60.15   53.23
 -22   4   8   93.79   54.51
  22   4  -8  193.74   94.82
  22   4  -8  181.13   93.62
  22  -4  -8  216.59   88.50
 -22   4   7  306.13   97.85
  22   4  -7  347.02  131.90
  22   4  -7  293.91  125.10
  22  -4  -7  382.65  120.06
 -22   4   6 5854.64  421.18
  22   4  -6 5599.04  411.14
  22   4  -6 5835.10  432.93
  22  -4  -6 6279.30  459.03
 -22   4   5  149.97   73.56
  22   4  -5  184.46   72.53
  22   4  -5   89.25  107.70
  22  -4  -5  112.34   83.83
 -22   4   4 4934.26  358.18
  22   4  -4 4746.67  357.22
  22   4  -4 3755.20  284.21
  22  -4  -4 4196.16  340.14
 -22   4   3  191.82   62.75
  22   4  -3  180.66   71.26
  22   4  -3  104.84   60.68
  22  -4  -3  188.76   69.58
 -22   4   2  853.15   62.79
  22   4  -2  830.87  169.23
  22  -4  -2  817.24   59.39
 -22   4   1 1554.57  122.57
  22   4  -1 1233.68  137.19
  22   4  -1 1270.88  111.05
  22  -4  -1 1078.72   96.67
 -22   4   0  -10.67   24.01
  22   4   0   20.15   48.00
  22   4   0   57.47   43.93
  22  -4   0   19.80   37.41
 -22   4  -1   28.29   23.74
  22   4   1   65.34   51.13
  22   4   1   42.98   17.84
  22  -4   1   -4.05   38.59
 -22   4  -2  157.84   76.19
  22   4   2  106.29   71.05
  22   4   2  200.96   91.51
  22  -4   2  197.21   71.79
 -22   4  -3  234.71  123.65
  22   4   3  215.08  151.57
  22  -4   3  157.67   98.35
 -22   4  -4 1624.50  139.02
  22   4   4 1632.58  241.66
  22   4   4 1356.92  125.29
  22  -4   4 1632.00  188.87
 -22   4  -5  122.63   35.09
  22   4   5   67.28   52.27
  22  -4   5   86.92   52.19
 -22   4  -6 1730.42  118.82
  22   4   6 1638.03  142.37
  22  -4   6 2005.34  137.13
 -22   6  14  617.16  111.32
  22   6 -14  642.70   62.92
  22   6 -14  452.35  232.86
  22  -6 -14  867.22   87.49
 -22   6  13   69.00   59.32
  22   6 -13   26.67   55.72
  22   6 -13   71.02   58.19
  22  -6 -13    8.59   43.45
 -22   6  12   36.09   34.98
  22   6 -12   46.56   69.65
  22   6 -12   48.21   64.46
  22  -6 -12  122.01   72.71
 -22   6  11 1012.17  198.76
  22   6 -11  785.60   84.17
  22   6 -11 1131.46  233.39
  22  -6 -11 1092.37  233.09
 -22   6  10 3081.13  214.57
  22   6 -10 2646.72  228.19
  22   6 -10 2842.45  212.57
  22  -6 -10 2614.14  245.44
 -22   6   9   30.46   27.42
  22   6  -9   39.67   37.36
  22   6  -9  -20.89   37.59
  22  -6  -9   18.39   36.76
 -22   6   8  377.11  104.16
  22   6  -8  263.02  120.70
  22  -6  -8  404.65   91.49
 -22   6   7 1652.68  139.23
  22   6  -7 1620.07  147.62
  22   6  -7 1520.57  141.32
  22  -6  -7 1576.52  141.85
  22   6  -6   55.25   60.44
  22  -6  -6   23.08   48.37
 -22   6   5  783.12  105.18
  22   6  -5  767.83  185.35
  22   6  -5  782.02   96.13
  22  -6  -5  525.97  139.69
 -22   6   4 3338.22  267.63
  22   6  -4 3725.74  268.36
  22   6  -4 3215.30  236.07
  22  -6  -4 3357.00  341.68
 -22   6   3 1771.73  149.29
  22   6  -3 1642.13  154.53
  22   6  -3 1788.83  161.44
  22  -6  -3 1943.53  168.75
 -22   6   2   44.29   32.15
  22   6  -2    7.80   46.55
  22   6  -2   14.80   31.99
  22  -6  -2   28.39   25.56
 -22   6   1 2260.30  197.54
  22   6  -1 2064.91  101.31
  22   6  -1 2221.24  213.97
  22  -6  -1 2123.15  150.87
 -22   6   0   -2.19   16.37
  22   6   0   41.71   61.04
  22   6   0   37.51   35.27
  22  -6   0   -2.60   28.26
 -22   6  -1    3.20   17.29
  22   6   1   33.85   42.06
  22   6   1  -10.81   27.07
  22  -6   1   16.55   53.81
  22  -6   2  831.22  134.23
  23   1 -20   99.43   97.83
 -23   1  20   39.53   26.86
 -23  -1  20   24.63   25.07
  23  -1 -20   76.96   61.95
  23   1 -19  395.69  244.80
 -23   1  19  701.74   68.03
 -23  -1  19  455.54  163.29
  23  -1 -19  439.58  187.29
  23   1 -18 2609.89  236.72
 -23   1  18 3110.81  211.52
 -23  -1  18 3068.69  211.51
  23  -1 -18 3236.15  292.00
  23   1 -17  264.93   89.18
 -23  -1  17  106.82   62.77
  23  -1 -17  117.65   64.95
 -23   1  16  338.90  121.56
  23   1 -16  379.63  193.10
  23  -1 -16  494.96  251.94
  23   1 -15 5684.86  323.87
 -23   1  15 5810.53  310.93
 -23  -1  15 5656.71  305.81
  23  -1 -15 5332.08  324.95
  23   1 -14  133.39   61.23
 -23   1  14  232.67   95.91
 -23  -1  14  220.96   68.79
  23  -1 -14  197.76   76.07
  23   1 -13   44.76   51.24
 -23   1  13   26.27   31.79
 -23  -1  13   17.08   40.94
  23  -1 -13   54.48   53.15
  23   1 -12  125.63   64.04
 -23   1  12  134.28   47.43
 -23  -1  12   75.29   59.76
  23  -1 -12  101.20   79.78
  23   1 -11 1297.21  158.41
 -23   1  11 1059.46  157.59
 -23  -1  11 1128.71  123.52
  23  -1 -11 1045.99  155.97
  23   1 -10  480.17  184.98
 -23   1  10  463.47  118.50
 -23  -1  10  445.92   63.32
  23  -1 -10  409.15  163.12
  23   1  -9   12.13   30.94
 -23   1   9   12.40   16.47
 -23  -1   9   30.24   15.59
  23  -1  -9   22.80   41.50
  23   1  -8 1827.50  233.17
 -23   1   8 1357.85  130.66
 -23  -1   8 1732.20  200.34
  23  -1  -8 1289.38  141.71
  23   1  -7 1108.19  130.86
 -23   1   7 1322.78  194.10
 -23  -1   7 1247.50  129.79
  23  -1  -7  945.51  109.83
  23   1  -6 1483.83  274.03
 -23   1   6 1574.73  156.12
 -23  -1   6 1568.51  218.26
  23  -1  -6 1776.34  178.66
  23   1  -5  663.19   58.71
 -23   1   5  884.11  135.72
 -23  -1   5  598.73  216.74
  23  -1  -5  643.67   98.19
  23   1  -4  309.96  142.93
 -23   1   4  623.13   98.12
 -23  -1   4  525.13   98.75
  23  -1  -4  618.24   69.40
  23   1  -3  183.98  123.85
 -23   1   3  345.30   83.04
 -23  -1   3  166.57   91.39
  23  -1  -3  172.81   98.55
  23   1  -2  298.40  100.01
 -23   1   2  181.56   49.17
 -23  -1   2  213.80   78.77
  23  -1  -2  159.44   82.85
  23   1  -1   18.11   49.06
 -23   1   1   21.99   36.01
 -23  -1   1   62.99   46.77
  23  -1  -1   44.18   37.16
  23   1   0 2246.97   97.27
 -23   1   0 2503.94  149.51
 -23  -1   0 2399.38  150.64
  23  -1   0 2428.93  154.92
  23   1   1 1606.36  224.73
 -23   1  -1 1489.93  143.91
 -23  -1  -1 1489.98  128.38
  23  -1   1 1635.85  140.24
 -23   1  -2  832.83   52.58
 -23  -1  -2  811.40  126.46
  23  -1   2  997.23  112.43
  23   1   3  844.59   75.45
 -23   1  -3  504.72  166.64
 -23  -1  -3  587.46  189.11
  23  -1   3  661.78   99.54
  23   1   4  166.01   57.96
 -23   1  -4  148.47  102.52
 -23  -1  -4  226.96  115.00
  23  -1   4  135.44   63.82
  23   1   5  156.41   87.03
 -23   1  -5  210.56  124.55
 -23  -1  -5  237.02   96.90
 -23   1  -6  193.01  104.12
  23   1   6  237.08  135.32
  23   1   6  222.15  167.66
  23  -1   6  158.21   94.29
  23   3 -18 3139.27  205.52
 -23   3  18 2778.98  166.11
 -23  -3  18 2697.96  167.20
  23  -3 -18 2722.87  177.62
  23   3 -17  183.37   72.21
 -23   3  17   98.43   48.23
 -23  -3  17   98.91   45.16
  23  -3 -17  103.16   85.52
  23   3 -16 5473.36  377.24
 -23   3  16 5611.65  366.78
 -23  -3  16 5113.31  343.46
  23  -3 -16 5499.68  384.54
  23   3 -15   20.16   44.41
 -23   3  15   20.43   20.32
 -23  -3  15   22.01   38.03
  23  -3 -15    4.47   49.49
 -23   3  14   61.42   56.25
  23   3 -14   48.40   56.22
  23  -3 -14   59.18   68.31
  23   3 -13   42.64   46.85
 -23   3  13   44.56   46.67
 -23  -3  13   -5.35   30.76
  23  -3 -13  106.08   57.88
  23   3 -12  -28.10   46.93
 -23   3  12   48.12   20.85
 -23  -3  12    9.38   37.81
  23  -3 -12   72.66   60.98
  23   3 -11   25.45   34.89
 -23   3  11   17.30   23.88
 -23  -3  11   56.85   49.19
  23  -3 -11   22.75   34.57
  23   3 -10   89.99   66.57
 -23   3  10   64.30   35.11
 -23  -3  10   68.96   44.47
  23  -3 -10   98.23   72.47
  23   3  -9 3801.54  256.90
 -23   3   9 4579.11  247.97
 -23  -3   9 3932.52  248.47
  23  -3  -9 3789.88  249.74
  23   3  -8   87.14   78.29
 -23   3   8   55.21   62.44
 -23  -3   8  181.39   63.72
  23  -3  -8  124.37   59.64
  23   3  -7 3625.03  279.49
 -23   3   7 3379.55  251.60
 -23  -3   7 3250.30  268.89
  23  -3  -7 2813.80  226.19
  23   3  -6   49.56   62.56
 -23   3   6   14.24   21.56
 -23  -3   6   22.50   34.24
  23  -3  -6  -39.74   46.38
  23   3  -5 2237.22   98.73
 -23   3   5 2156.42   86.67
 -23  -3   5 2522.20  163.34
  23  -3  -5 2434.79  159.80
  23   3  -4 1462.04  232.15
 -23   3   4 1582.28  137.61
 -23  -3   4 1307.55  200.48
  23  -3  -4 1599.50  143.62
  23   3  -3  402.70  173.84
 -23   3   3  515.21   51.55
 -23  -3   3  411.04  191.78
  23  -3  -3  442.82  175.76
 -23   3   2  964.85  130.06
  23   3  -2 1053.15  107.25
  23   3  -2  625.31  242.72
  23  -3  -2  841.00   73.71
 -23   3   1  230.57   77.07
  23   3  -1  120.29   80.00
  23  -3  -1  153.54   92.54
 -23   3   0 1075.51  136.93
  23   3   0 1032.43   76.21
  23   3   0  939.23  101.44
  23  -3   0  916.12   68.55
 -23   3  -1  119.94   63.72
  23   3   1   57.00   73.86
  23   3   1   70.88   29.32
  23  -3   1   59.61   67.60
 -23   3  -2   17.67   35.50
  23   3   2   45.98   59.31
  23   3   2   51.67   82.92
  23  -3   2   67.09   44.23
 -23   3  -3 1523.12  140.20
  23   3   3 1592.50  155.42
  23   3   3 1649.60  143.52
  23  -3   3 1615.19  150.02
 -23   3  -4   52.94   44.62
  23   3   4   56.86   37.10
  23   3   4   55.95   40.67
  23  -3   4   54.74   50.35
 -23   3  -5  543.08  143.25
  23   3   5  542.04  133.20
  23   3   5  607.44   96.99
  23  -3   5  619.82  111.77
 -23   5  14  324.59  142.90
  23   5 -14  267.51  160.32
  23   5 -14  606.54  171.69
  23  -5 -14  330.04  193.71
 -23   5  13    8.35   34.86
  23   5 -13   32.07   41.14
  23   5 -13  -14.50   52.37
  23  -5 -13   53.09   31.86
 -23   5  12   31.65   36.78
  23   5 -12   37.90   27.60
  23   5 -12   37.45   59.79
  23  -5 -12   59.74   44.34
 -23   5  11  222.11   77.54
  23   5 -11   97.65   97.34
  23   5 -11  171.62   73.83
  23  -5 -11   83.40   72.86
 -23   5  10   11.28   29.55
  23   5 -10   38.63   25.60
  23   5 -10   -1.98   46.14
  23  -5 -10   66.42   46.37
 -23   5   9   12.41   29.32
  23   5  -9   48.81   43.93
  23   5  -9   36.20   46.60
  23  -5  -9   31.28   35.65
 -23   5   8  991.56  105.58
  23   5  -8 1168.01  212.40
  23   5  -8  907.63  135.28
  23  -5  -8  972.26   94.14
 -23   5   7  680.02  148.89
  23   5  -7  586.43  137.53
  23   5  -7  694.83  144.93
  23  -5  -7  703.97   92.77
 -23   5   6 3008.31  203.84
  23   5  -6 3217.97  234.70
  23   5  -6 3085.85  221.73
  23  -5  -6 3364.00  236.00
 -23   5   5  319.57  106.62
  23   5  -5  379.75  220.81
  23  -5  -5  356.08  190.85
 -23   5   4 1219.90  109.54
  23   5  -4  857.14  202.25
  23   5  -4 1047.24  157.00
  23  -5  -4 1193.60  109.93
 -23   5   3  180.05   59.52
  23   5  -3  148.80  147.46
  23   5  -3  211.41   86.41
  23  -5  -3  208.56   77.23
 -23   5   2 1670.84  140.36
  23   5  -2 1464.00  135.48
  23   5  -2 1227.27  214.71
  23  -5  -2 1813.54  162.35
 -23   5   1   54.49   27.55
  23   5  -1   51.33   39.68
  23   5  -1   26.59   26.79
  23  -5  -1   28.45   36.95
 -23   5   0  695.10   85.20
  23   5   0  636.41  234.18
  23   5   0  537.06   98.73
  23  -5   0  550.89  115.41
 -23   5  -1  590.33  126.38
  23   5   1  511.36  264.46
  23   5   1  513.74  178.05
  23  -5   1  693.31   85.09
 -24   0  18 1679.10  110.17
  24   0 -18 1971.84  142.77
  24   0 -17   69.59   57.80
 -24   0  16 2028.73  177.20
  24   0 -16 2278.60  178.75
 -24   0  15   56.16   44.61
  24   0 -15   14.30   48.13
 -24   0  14 3725.61  210.29
  24   0 -14 4019.33  237.47
 -24   0  13   -5.02   47.51
  24   0 -13   59.38   30.98
 -24   0  12 9379.48  509.38
  24   0 -12 9882.95  184.80
 -24   0  11   70.23   59.35
  24   0 -11   30.04   31.20
 -24   0  10  288.91  106.96
  24   0 -10  176.34   84.99
 -24   0   9    4.51   21.66
  24   0  -9   59.44   42.03
 -24   0   8 1801.89  159.33
  24   0  -8 1566.23  223.51
 -24   0   7   29.55   22.17
  24   0  -7   75.04   50.88
 -24   0   6  269.31  155.24
  24   0  -6  268.73  134.11
 -24   0   5  -42.81   41.84
  24   0  -5   57.70   54.48
 -24   0   4 3703.29  209.38
  24   0  -4 4031.11  236.90
 -24   0   3   12.96   29.21
  24   0  -3   52.58   61.04
 -24   0   2 2385.09  148.80
  24   0  -2 2515.65  161.15
 -24   0   1   48.99   28.69
  24   0  -1  -55.39   47.53
 -24   0   0  223.92   71.24
  24   0   0  114.24   95.86
 -24   0  -1   47.85   35.74
  24   0   1   45.45   35.29
 -24   0  -2 2527.89  181.19
  24   0   2 2614.01  190.69
 -24   0  -3   38.25   34.64
 -24   0  -4  378.55  178.35
  24   0   4  295.30  158.68
  24   2 -17  383.36  232.76
 -24   2  17  577.81   68.35
 -24  -2  17  373.63  166.04
  24  -2 -17  532.69  216.95
  24   2 -16  258.59  160.35
 -24   2  16  423.45   53.33
 -24  -2  16  206.75  143.61
  24  -2 -16  336.08  138.02
 -24   2  15  460.81  115.02
  24   2 -15  375.83  181.95
  24  -2 -15  318.52  184.55
  24   2 -14  138.11   52.57
 -24   2  14  289.67  129.60
 -24  -2  14  185.56   81.37
  24  -2 -14  210.84   77.17
  24   2 -13  691.90  293.53
 -24   2  13  826.73  127.69
 -24  -2  13  559.87  121.86
  24  -2 -13  413.58  206.72
  24   2 -12   94.89   54.55
 -24   2  12   52.60   44.43
 -24  -2  12   72.46   44.69
  24  -2 -12   75.17   79.13
  24   2 -11 3865.38  234.95
 -24   2  11 3853.01  232.37
 -24  -2  11 4607.56  265.12
  24  -2 -11 4404.35  255.68
  24   2 -10 1316.86  283.80
 -24   2  10 1639.27   72.00
 -24  -2  10 1627.31  105.61
  24  -2 -10 1468.99  175.68
  24   2  -9 2420.47  154.02
 -24   2   9 3030.37  191.52
 -24  -2   9 2489.19  151.26
  24  -2  -9 2070.11  168.30
  24   2  -8  942.83  289.37
 -24   2   8  975.98  119.88
 -24  -2   8  950.60  105.19
  24  -2  -8  746.55  177.47
  24   2  -7  114.78   86.73
 -24   2   7  108.87   34.92
 -24  -2   7   55.71   33.93
  24  -2  -7   56.72   49.91
  24   2  -6  689.72   79.58
 -24   2   6  691.32  118.56
 -24  -2   6  635.32  155.78
  24  -2  -6  552.99  234.38
  24   2  -5  171.27   67.54
 -24   2   5  198.51   96.71
 -24  -2   5  105.09   54.13
  24  -2  -5  177.40   89.15
  24   2  -4 2400.82  152.78
 -24   2   4 2517.26  206.19
 -24  -2   4 2210.93  148.58
  24  -2  -4 2101.51  155.48
  24   2  -3  351.18  168.82
 -24   2   3  358.40  119.50
 -24  -2   3  328.70  126.25
  24  -2  -3  313.06  131.81
  24   2  -2  615.30  132.93
 -24   2   2  381.57  173.62
 -24  -2   2  513.82  162.17
  24  -2  -2  590.60  193.88
  24   2  -1 1416.22   73.43
 -24   2   1 1406.75   65.52
 -24  -2   1 1300.66   76.49
  24  -2  -1 1221.13   80.75
 -24   2   0  232.99  121.93
 -24  -2   0  104.86   41.32
  24   2   1   63.56   33.75
 -24   2  -1   -5.71   21.67
 -24  -2  -1   38.68   30.39
  24  -2   1   67.38   31.74
 -24   2  -2 1113.38  102.09
  24   2   2  809.26  207.85
  24   2   2  895.00   96.07
  24  -2   2  831.45  186.08
 -24   2  -3  106.34   35.84
  24   2   3   36.68   59.40
  24   2   3  159.01   56.38
  24  -2   3  121.09   82.23
 -24   4  14 3083.71  178.71
  24   4 -14 2489.82  157.18
  24   4 -14 2943.01  207.78
  24  -4 -14 2951.00  229.42
 -24   4  13   36.58   23.50
  24   4 -13   15.90   53.22
  24   4 -13   50.23   51.86
  24  -4 -13   15.36   40.40
 -24   4  12  321.38  110.45
  24   4 -12  272.11  166.53
  24  -4 -12  239.21  121.26
 -24   4  11   36.23   25.26
  24   4 -11   20.68   25.06
  24   4 -11   40.65   66.12
  24  -4 -11   39.52   41.25
 -24   4  10   27.82   20.74
  24   4 -10    4.58   42.84
  24   4 -10  -22.33   48.90
  24  -4 -10   26.55   44.31
 -24   4   9  660.10   79.99
  24   4  -9  886.85  112.86
  24   4  -9  990.47  122.18
  24  -4  -9  698.32  147.65
 -24   4   8 5318.72  349.80
  24   4  -8 4775.83  328.59
  24   4  -8 3916.44  312.41
  24  -4  -8 4446.37  303.68
 -24   4   7  487.35  200.72
  24   4  -7  501.58  286.26
  24   4  -7  882.60   92.64
  24  -4  -7  731.79  145.29
 -24   4   6 6006.87  392.78
  24   4  -6 6133.41  412.76
  24   4  -6 5824.91  395.61
  24  -4  -6 5746.94  434.29
 -24   4   5  225.90   59.80
  24   4  -5  185.31  130.36
  24   4  -5  236.70  139.73
  24  -4  -5  333.22   85.60
 -24   4   4  738.97  149.06
  24   4  -4  738.17   80.02
  24   4  -4  597.08  230.40
  24  -4  -4  663.30   65.36
 -24   4   3   22.77   22.25
  24   4  -3   46.01   21.88
  24   4  -3   30.24   61.98
  24  -4  -3   67.94   26.63
 -24   4   2   69.24   76.97
  24   4  -2   97.43   90.74
  24   4  -2   65.94   81.14
  24  -4  -2  112.08   73.93
 -24   4   1  248.64  108.33
  24   4  -1  120.25  119.82
  24   4  -1  339.70  194.84
  24  -4  -1  287.73  133.26
 -24   4   0  398.88  171.56
  24   4   0  612.34  152.36
  24   4   0  550.53  220.61
  24  -4   0  404.90  207.50
  25   1 -15  264.95  149.14
 -25   1  15  300.26  131.01
 -25  -1  15  238.93  118.81
  25  -1 -15  199.17  105.21
  25   1 -14 1788.82  167.77
 -25   1  14 1861.50  138.70
 -25  -1  14 1673.74  135.32
  25  -1 -14 2054.38  142.92
  25   1 -13 4241.18  321.41
 -25   1  13 4848.85  322.16
 -25  -1  13 5508.41  366.77
  25  -1 -13 4651.48  319.59
  25   1 -12  685.28  103.13
 -25   1  12  763.27   77.92
 -25  -1  12  814.12  165.56
  25  -1 -12  793.98  172.58
  25   1 -11 2099.19  102.78
 -25   1  11 2086.65  181.16
 -25  -1  11 2020.18  177.07
  25  -1 -11 1913.10  168.10
  25   1 -10 1700.14  217.43
 -25   1  10 1817.85  156.72
 -25  -1  10 1722.78  153.45
  25  -1 -10 1535.66  142.99
  25   1  -9 2306.86  158.60
 -25   1   9 2450.55  200.98
 -25  -1   9 2226.44  141.75
  25  -1  -9 2350.99  188.52
  25   1  -8   -4.23   56.29
 -25   1   8   19.08   23.11
 -25  -1   8   31.12   54.89
  25  -1  -8   18.05   38.53
  25   1  -7  946.79  205.42
 -25   1   7  782.10   98.64
 -25  -1   7  649.24   72.48
  25  -1  -7  819.76  202.04
  25   1  -6  605.89  133.88
 -25   1   6  619.15   62.36
 -25  -1   6  513.18  130.72
  25  -1  -6  700.27   92.91
  25   1  -5   17.92   40.41
 -25   1   5   33.60   24.99
 -25  -1   5   86.88   45.64
  25  -1  -5   89.04   67.08
  25   1  -4   25.17   72.62
 -25   1   4   32.47   18.52
 -25  -1   4    7.54   34.16
  25  -1  -4   26.14   26.78
  25   1  -3   35.79   30.31
 -25   1   3   60.93   32.36
 -25  -1   3    9.72   32.11
  25  -1  -3   56.37   57.88
  25   1  -2   95.61   68.35
 -25   1   2  108.09   83.00
 -25  -1   2  117.17   28.42
  25  -1  -2   63.68   44.06
  25   1  -1  846.40   97.04
 -25   1   1  644.26  221.60
 -25  -1   1  644.80  198.14
  25  -1  -1  723.64   91.98
  25   1   0  436.35  141.49
 -25   1   0  505.23   58.28
 -25  -1   0  383.81  172.81
  25  -1   0  384.44  205.62
 -25   1  -1  101.54   45.01
 -25  -1  -1   41.85   24.74
  25  -1   1   19.28   41.95
  25   3 -13 2212.07  177.50
 -25   3  13 2350.84  161.67
 -25  -3  13 2125.56  163.97
  25  -3 -13 1877.44  132.73
  25   3 -12   50.40  112.15
 -25   3  12  224.15  126.15
 -25  -3  12  224.33   70.55
  25  -3 -12  161.65   77.96
  25   3 -11  227.31  130.25
 -25   3  11  239.27   87.19
 -25  -3  11  201.64   97.63
  25  -3 -11  169.37   83.14
  25   3 -10  703.53  114.57
 -25   3  10  271.22  130.42
 -25  -3  10  287.99  137.66
  25  -3 -10  581.15   60.89
  25   3  -9 1040.96  168.29
 -25   3   9  825.66  232.15
 -25  -3   9  977.67  134.06
  25  -3  -9  984.48   95.63
  25   3  -8  934.50  296.94
 -25   3   8 1474.89  129.04
 -25  -3   8 1111.69  258.07
  25  -3  -8 1237.61  134.77
  25   3  -7 1836.46  168.69
 -25   3   7 1707.77  181.62
 -25  -3   7 1209.41  226.68
  25  -3  -7 1863.86  164.70
  25   3  -6   68.79   36.10
 -25   3   6   21.99   29.38
 -25  -3   6   36.20   54.15
  25  -3  -6   65.90   53.39
  25   3  -5  380.58  190.37
 -25   3   5  643.22   59.18
 -25  -3   5  699.91   76.02
  25  -3  -5  611.71  146.66
 -25   3   4 2322.42  139.24
  25   3  -4 2508.12  164.27
  25  -3  -4 2374.65  164.14
 -25   3   3  367.23  148.86
  25   3  -3  283.60  181.59
  25  -3  -3  373.29  194.39
 -25   3   2 2848.98  172.02
  25   3  -2 3155.77  205.00
  25   3  -2 2228.71  152.21
  25  -3  -2 2753.37  214.13
 -26   0  12  395.54  151.30
  26   0 -12  629.01  155.22
 -26   0  11   34.16   22.43
  26   0 -11   47.55   39.31
 -26   0  10 2069.44  137.24
  26   0 -10 2031.17  198.29
 -26   0   9   42.92   54.74
  26   0  -9   80.83   34.06
 -26   0   8   80.81   54.25
  26   0  -8   56.68   52.87
 -26   0   7   41.70   49.99
  26   0  -7   25.90   77.20
 -26   0   6  915.42  102.61
  26   0  -6  984.77  266.96
 -26   0   5   54.76   36.33
  26   0  -5  -35.83   42.39
 -26   0   4 1668.05  116.96
  26   0  -4 2275.02  153.22
 -26   0   3  -36.96   33.16
  26   0  -3   19.55   17.94
  26   2  -9 1609.74  143.93
 -26   2   9 1495.13  130.92
 -26  -2   9 1236.24  111.39
  26   2  -8 1830.04  132.98
 -26   2   8 1518.18  133.35
 -26  -2   8 1597.29  133.94
  26  -2  -8 1507.00  245.63
  26   2  -7  387.70  192.32
 -26   2   7  366.11  158.88
 -26  -2   7  303.15  181.77
  26  -2  -7  296.71  176.39
  26   2  -6 1213.01  230.22
 -26   2   6 1637.85  124.79
 -26  -2   6 1560.57  127.45
  26  -2  -6 1506.73  133.00
;
_shelx_hkl_checksum              40576
loop_
_space_group_symop_operation_xyz
'x, y, z'
'-x, y, -z+1/2'
'x+1/2, y+1/2, z'
'-x+1/2, y+1/2, -z+1/2'
'-x, -y, -z'
'x, -y, z-1/2'
'-x+1/2, -y+1/2, -z'
'x+1/2, -y+1/2, z-1/2'
loop_
_atom_site_label
_atom_site_type_symbol
_atom_site_fract_x
_atom_site_fract_y
_atom_site_fract_z
_atom_site_U_iso_or_equiv
_atom_site_adp_type
_atom_site_occupancy
_atom_site_site_symmetry_order
_atom_site_calc_flag
_atom_site_refinement_flags_posn
_atom_site_refinement_flags_adp
S32 S 0.85542(2) -0.11545(3) 0.70721(2) 0.01313(11) Uani 1 1 d . .
O28 O 0.91932(5) -0.08940(10) 0.75218(5) 0.0160(2) Uani 1 1 d . .
O29 O 0.79871(5) -0.15716(11) 0.72923(5) 0.0188(2) Uani 1 1 d . .
O30 O 0.83795(5) -0.41993(11) 0.59994(5) 0.0197(2) Uani 1 1 d . .
O31 O 0.76302(5) -0.25635(10) 0.60967(5) 0.0159(2) Uani 1 1 d . .
N23 N 0.87400(6) -0.23588(11) 0.66078(6) 0.0124(2) Uani 1 1 d . .
N24 N 0.94999(6) 0.03690(12) 0.64695(6) 0.0150(3) Uani 1 1 d . .
N25 N 1.02265(6) -0.17183(13) 0.54088(6) 0.0185(3) Uani 1 1 d . .
N26 N 1.02255(7) -0.30469(13) 0.53734(6) 0.0188(3) Uani 1 1 d . .
N27 N 0.99189(6) -0.35131(12) 0.57984(6) 0.0145(2) Uani 1 1 d . .
C1 C 0.83369(7) 0.02431(14) 0.65800(7) 0.0143(3) Uani 1 1 d . .
C2 C 0.88272(7) 0.07908(14) 0.63036(7) 0.0149(3) Uani 1 1 d . .
C3 C 0.86104(8) 0.18357(15) 0.58708(7) 0.0191(3) Uani 1 1 d . .
H3 H 0.8919 0.2208 0.5660 0.023 Uiso 1 1 calc R U
C4 C 0.79516(8) 0.23245(15) 0.57493(8) 0.0232(3) Uani 1 1 d . .
H4 H 0.7819 0.3050 0.5465 0.028 Uiso 1 1 calc R U
C5 C 0.74779(8) 0.17807(16) 0.60331(8) 0.0247(4) Uani 1 1 d . .
H5 H 0.7028 0.2133 0.5944 0.030 Uiso 1 1 calc R U
C6 C 0.76675(8) 0.07241(16) 0.64450(8) 0.0204(3) Uani 1 1 d . .
H6 H 0.7346 0.0328 0.6635 0.024 Uiso 1 1 calc R U
C7 C 0.94528(7) -0.27841(14) 0.66747(7) 0.0128(3) Uani 1 1 d . .
H7A H 0.9486 -0.3766 0.6757 0.015 Uiso 1 1 calc R U
H7B H 0.9747 -0.2325 0.7042 0.015 Uiso 1 1 calc R U
C8 C 0.97283(7) -0.24956(14) 0.61223(7) 0.0128(3) Uani 1 1 d . .
C9 C 0.99282(7) -0.13465(15) 0.58648(7) 0.0149(3) Uani 1 1 d . .
C10 C 0.98974(8) 0.01259(15) 0.60237(7) 0.0179(3) Uani 1 1 d . .
H10A H 1.0367 0.0466 0.6197 0.022 Uiso 1 1 calc R U
H10B H 0.9694 0.0638 0.5639 0.022 Uiso 1 1 calc R U
C11 C 0.82346(7) -0.31504(14) 0.62077(7) 0.0137(3) Uani 1 1 d . .
C12 C 0.69896(7) -0.33524(15) 0.58464(7) 0.0171(3) Uani 1 1 d . .
C13 C 0.64516(8) -0.22780(17) 0.58059(9) 0.0266(4) Uani 1 1 d . .
H13A H 0.6518 -0.1560 0.5525 0.032 Uiso 1 1 calc R U
H13B H 0.6490 -0.1900 0.6220 0.032 Uiso 1 1 calc R U
H13C H 0.5998 -0.2677 0.5647 0.032 Uiso 1 1 calc R U
C14 C 0.69496(8) -0.44352(18) 0.63171(8) 0.0276(4) Uani 1 1 d . .
H14A H 0.7345 -0.5035 0.6377 0.033 Uiso 1 1 calc R U
H14B H 0.6530 -0.4959 0.6165 0.033 Uiso 1 1 calc R U
H14C H 0.6948 -0.4010 0.6713 0.033 Uiso 1 1 calc R U
C15 C 0.69584(8) -0.39349(18) 0.52102(8) 0.0267(4) Uani 1 1 d . .
H15A H 0.7312 -0.4626 0.5248 0.032 Uiso 1 1 calc R U
H15B H 0.7034 -0.3214 0.4935 0.032 Uiso 1 1 calc R U
H15C H 0.6509 -0.4340 0.5037 0.032 Uiso 1 1 calc R U
C16 C 0.99068(7) -0.49612(14) 0.59171(7) 0.0161(3) Uani 1 1 d . .
H16A H 1.0012 -0.5457 0.5568 0.019 Uiso 1 1 calc R U
H16B H 0.9443 -0.5225 0.5938 0.019 Uiso 1 1 calc R U
C17 C 1.04143(7) -0.53596(14) 0.65161(7) 0.0145(3) Uani 1 1 d . .
C18 C 1.09647(7) -0.45501(15) 0.68112(7) 0.0162(3) Uani 1 1 d . .
H18 H 1.1024 -0.3692 0.6643 0.019 Uiso 1 1 calc R U
C19 C 1.14268(8) -0.49903(16) 0.73493(7) 0.0197(3) Uani 1 1 d . .
H19 H 1.1795 -0.4425 0.7552 0.024 Uiso 1 1 calc R U
C20 C 1.13524(8) -0.62534(17) 0.75931(8) 0.0241(3) Uani 1 1 d . .
H20 H 1.1675 -0.6564 0.7956 0.029 Uiso 1 1 calc R U
C21 C 1.08038(9) -0.70573(17) 0.73028(8) 0.0263(4) Uani 1 1 d . .
H21 H 1.0749 -0.7920 0.7469 0.032 Uiso 1 1 calc R U
C22 C 1.03348(8) -0.66116(15) 0.67724(7) 0.0202(3) Uani 1 1 d . .
H22 H 0.9956 -0.7164 0.6582 0.024 Uiso 1 1 calc R U
H33 H 0.9656(10) -0.0064(19) 0.6841(9) 0.023(5) Uiso 1 1 d . .
loop_
_atom_site_aniso_label
_atom_site_aniso_U_11
_atom_site_aniso_U_22
_atom_site_aniso_U_33
_atom_site_aniso_U_23
_atom_site_aniso_U_13
_atom_site_aniso_U_12
S32 0.01366(17) 0.01323(18) 0.01259(19) -0.00151(13) 0.00357(13) 0.00048(12)
O28 0.0169(5) 0.0174(5) 0.0127(5) -0.0018(4) 0.0022(4) 0.0000(4)
O29 0.0183(5) 0.0212(5) 0.0192(6) -0.0022(4) 0.0090(4) -0.0011(4)
O30 0.0159(5) 0.0164(5) 0.0254(6) -0.0069(4) 0.0031(4) 0.0000(4)
O31 0.0124(5) 0.0150(5) 0.0182(6) -0.0029(4) 0.0004(4) 0.0000(4)
N23 0.0109(5) 0.0124(5) 0.0133(6) -0.0016(4) 0.0024(4) 0.0007(4)
N24 0.0166(6) 0.0139(6) 0.0145(6) 0.0014(5) 0.0041(5) 0.0004(4)
N25 0.0219(6) 0.0189(6) 0.0154(7) 0.0009(5) 0.0065(5) 0.0026(5)
N26 0.0241(6) 0.0197(6) 0.0139(6) 0.0014(5) 0.0071(5) 0.0025(5)
N27 0.0164(6) 0.0155(6) 0.0113(6) -0.0004(5) 0.0028(5) 0.0020(4)
C1 0.0166(6) 0.0112(6) 0.0135(7) -0.0022(5) 0.0009(5) 0.0010(5)
C2 0.0185(7) 0.0111(6) 0.0138(7) -0.0040(5) 0.0018(5) -0.0007(5)
C3 0.0258(7) 0.0141(7) 0.0150(8) -0.0013(6) 0.0010(6) -0.0006(6)
C4 0.0303(8) 0.0139(7) 0.0193(8) 0.0002(6) -0.0046(6) 0.0039(6)
C5 0.0208(7) 0.0206(8) 0.0272(9) -0.0042(7) -0.0036(6) 0.0074(6)
C6 0.0177(7) 0.0185(7) 0.0237(8) -0.0049(6) 0.0032(6) 0.0030(6)
C7 0.0118(6) 0.0127(6) 0.0133(7) 0.0008(5) 0.0022(5) 0.0013(5)
C8 0.0115(6) 0.0138(6) 0.0115(7) -0.0011(5) 0.0004(5) 0.0014(5)
C9 0.0146(6) 0.0168(7) 0.0129(7) 0.0010(5) 0.0029(5) 0.0006(5)
C10 0.0213(7) 0.0151(7) 0.0200(8) 0.0009(6) 0.0100(6) -0.0015(5)
C11 0.0135(6) 0.0144(6) 0.0127(7) 0.0015(5) 0.0025(5) -0.0019(5)
C12 0.0110(6) 0.0187(7) 0.0202(8) -0.0024(6) 0.0012(5) -0.0030(5)
C13 0.0143(7) 0.0252(8) 0.0371(10) -0.0039(7) 0.0006(7) 0.0013(6)
C14 0.0182(7) 0.0306(9) 0.0328(10) 0.0078(7) 0.0041(7) -0.0039(6)
C15 0.0210(7) 0.0336(9) 0.0224(9) -0.0086(7) 0.0001(6) -0.0036(7)
C16 0.0206(7) 0.0115(6) 0.0156(7) -0.0023(5) 0.0034(6) 0.0012(5)
C17 0.0151(6) 0.0147(7) 0.0147(7) -0.0018(5) 0.0058(5) 0.0027(5)
C18 0.0177(7) 0.0140(7) 0.0174(7) -0.0002(6) 0.0056(6) 0.0007(5)
C19 0.0174(7) 0.0224(8) 0.0178(8) -0.0039(6) 0.0022(6) 0.0002(6)
C20 0.0239(8) 0.0278(8) 0.0179(8) 0.0048(7) 0.0009(6) 0.0049(6)
C21 0.0304(8) 0.0217(8) 0.0259(9) 0.0092(7) 0.0052(7) -0.0007(6)
C22 0.0216(7) 0.0176(7) 0.0212(8) 0.0002(6) 0.0053(6) -0.0028(6)
loop_
_atom_type_symbol
_atom_type_description
_atom_type_scat_dispersion_real
_atom_type_scat_dispersion_imag
_atom_type_scat_source
C C 0.0033 0.0016
;
International Tables for Crystallography
(Vol. C, Tables 4.2.6.8 and 6.1.1.4)
;
H H 0.0000 0.0000
;
International Tables for Crystallography
(Vol. C, Table 6.1.1.4)
;
N N 0.0061 0.0033
;
International Tables for Crystallography
(Vol. C, Tables 4.2.6.8 and 6.1.1.4)
;
O O 0.0106 0.0060
;
International Tables for Crystallography
(Vol. C, Tables 4.2.6.8 and 6.1.1.4)
;
S S 0.1246 0.1234
;
International Tables for Crystallography
(Vol. C, Tables 4.2.6.8 and 6.1.1.4)
;
loop_
_geom_angle_atom_site_label_1
_geom_angle_atom_site_label_2
_geom_angle_atom_site_label_3
_geom_angle
O29 S32 O28 118.29(6)
O29 S32 N23 109.62(6)
O28 S32 N23 104.44(6)
O29 S32 C1 110.52(7)
O28 S32 C1 109.21(7)
N23 S32 C1 103.62(7)
C11 O31 C12 120.99(11)
C11 N23 C7 115.99(11)
C11 N23 S32 122.70(9)
C7 N23 S32 120.63(9)
C2 N24 C10 123.48(13)
C2 N24 H33 118.1(12)
C10 N24 H33 114.7(12)
N26 N25 C9 108.71(12)
N25 N26 N27 107.14(12)
N26 N27 C8 111.65(12)
N26 N27 C16 119.89(12)
C8 N27 C16 127.92(12)
C6 C1 C2 122.18(14)
C6 C1 S32 118.54(12)
C2 C1 S32 119.16(11)
N24 C2 C3 121.17(13)
N24 C2 C1 121.82(13)
C3 C2 C1 116.95(13)
C4 C3 C2 120.50(15)
C4 C3 H3 119.8
C2 C3 H3 119.8
C3 C4 C5 121.59(15)
C3 C4 H4 119.2
C5 C4 H4 119.2
C6 C5 C4 119.38(14)
C6 C5 H5 120.3
C4 C5 H5 120.3
C5 C6 C1 119.34(15)
C5 C6 H6 120.3
C1 C6 H6 120.3
N23 C7 C8 115.16(11)
N23 C7 H7A 108.5
C8 C7 H7A 108.5
N23 C7 H7B 108.5
C8 C7 H7B 108.5
H7A C7 H7B 107.5
N27 C8 C9 103.68(12)
N27 C8 C7 120.86(12)
C9 C8 C7 134.99(13)
N25 C9 C8 108.80(13)
N25 C9 C10 119.41(13)
C8 C9 C10 131.71(13)
N24 C10 C9 112.67(12)
N24 C10 H10A 109.1
C9 C10 H10A 109.1
N24 C10 H10B 109.1
C9 C10 H10B 109.1
H10A C10 H10B 107.8
O30 C11 O31 127.92(13)
O30 C11 N23 120.87(12)
O31 C11 N23 111.19(12)
O31 C12 C13 101.48(11)
O31 C12 C15 111.67(12)
C13 C12 C15 110.97(14)
O31 C12 C14 107.98(12)
C13 C12 C14 111.84(13)
C15 C12 C14 112.37(14)
C12 C13 H13A 109.5
C12 C13 H13B 109.5
H13A C13 H13B 109.5
C12 C13 H13C 109.5
H13A C13 H13C 109.5
H13B C13 H13C 109.5
C12 C14 H14A 109.5
C12 C14 H14B 109.5
H14A C14 H14B 109.5
C12 C14 H14C 109.5
H14A C14 H14C 109.5
H14B C14 H14C 109.5
C12 C15 H15A 109.5
C12 C15 H15B 109.5
H15A C15 H15B 109.5
C12 C15 H15C 109.5
H15A C15 H15C 109.5
H15B C15 H15C 109.5
N27 C16 C17 112.13(12)
N27 C16 H16A 109.2
C17 C16 H16A 109.2
N27 C16 H16B 109.2
C17 C16 H16B 109.2
H16A C16 H16B 107.9
C22 C17 C18 118.88(14)
C22 C17 C16 118.02(13)
C18 C17 C16 123.07(13)
C19 C18 C17 120.44(14)
C19 C18 H18 119.8
C17 C18 H18 119.8
C18 C19 C20 120.26(14)
C18 C19 H19 119.9
C20 C19 H19 119.9
C21 C20 C19 119.43(15)
C21 C20 H20 120.3
C19 C20 H20 120.3
C22 C21 C20 120.47(15)
C22 C21 H21 119.8
C20 C21 H21 119.8
C21 C22 C17 120.49(15)
C21 C22 H22 119.8
C17 C22 H22 119.8
loop_
_geom_bond_atom_site_label_1
_geom_bond_atom_site_label_2
_geom_bond_distance
S32 O29 1.4254(11)
S32 O28 1.4427(11)
S32 N23 1.6859(12)
S32 C1 1.7514(15)
O30 C11 1.2059(18)
O31 C11 1.3226(16)
O31 C12 1.4964(16)
N23 C11 1.4110(18)
N23 C7 1.4776(16)
N24 C2 1.3843(18)
N24 C10 1.4542(18)
N24 H33 0.91(2)
N25 N26 1.3194(18)
N25 C9 1.3624(18)
N26 N27 1.3437(17)
N27 C8 1.3542(18)
N27 C16 1.4610(18)
C1 C6 1.398(2)
C1 C2 1.409(2)
C2 C3 1.406(2)
C3 C4 1.382(2)
C3 H3 0.9500
C4 C5 1.390(2)
C4 H4 0.9500
C5 C6 1.380(2)
C5 H5 0.9500
C6 H6 0.9500
C7 C8 1.5066(19)
C7 H7A 0.9900
C7 H7B 0.9900
C8 C9 1.383(2)
C9 C10 1.507(2)
C10 H10A 0.9900
C10 H10B 0.9900
C12 C13 1.512(2)
C12 C15 1.518(2)
C12 C14 1.518(2)
C13 H13A 0.9800
C13 H13B 0.9800
C13 H13C 0.9800
C14 H14A 0.9800
C14 H14B 0.9800
C14 H14C 0.9800
C15 H15A 0.9800
C15 H15B 0.9800
C15 H15C 0.9800
C16 C17 1.513(2)
C16 H16A 0.9900
C16 H16B 0.9900
C17 C22 1.393(2)
C17 C18 1.395(2)
C18 C19 1.388(2)
C18 H18 0.9500
C19 C20 1.389(2)
C19 H19 0.9500
C20 C21 1.386(2)
C20 H20 0.9500
C21 C22 1.385(2)
C21 H21 0.9500
C22 H22 0.9500
loop_
_geom_hbond_atom_site_label_D
_geom_hbond_atom_site_label_H
_geom_hbond_atom_site_label_A
_geom_hbond_distance_DA
_geom_hbond_distance_DH
_geom_hbond_distance_HA
_geom_hbond_angle_DHA
_geom_hbond_publ_flag
N24 H33 S32 3.0189(15) 0.913(19) 2.65(2) 104.8(14) no
N24 H33 O28 2.8671(18) 0.913(19) 2.15(2) 135.1(17) no
loop_
_geom_torsion_atom_site_label_1
_geom_torsion_atom_site_label_2
_geom_torsion_atom_site_label_3
_geom_torsion_atom_site_label_4
_geom_torsion
O29 S32 N23 C11 35.52(13)
O28 S32 N23 C11 163.21(11)
C1 S32 N23 C11 -82.46(12)
O29 S32 N23 C7 -134.62(10)
O28 S32 N23 C7 -6.93(12)
C1 S32 N23 C7 107.40(11)
C9 N25 N26 N27 0.89(16)
N25 N26 N27 C8 -1.10(16)
N25 N26 N27 C16 -173.32(12)
O29 S32 C1 C6 -2.65(14)
O28 S32 C1 C6 -134.44(12)
N23 S32 C1 C6 114.71(12)
O29 S32 C1 C2 -178.72(11)
O28 S32 C1 C2 49.49(13)
N23 S32 C1 C2 -61.37(12)
C10 N24 C2 C3 -45.3(2)
C10 N24 C2 C1 137.82(14)
C6 C1 C2 N24 175.73(14)
S32 C1 C2 N24 -8.35(19)
C6 C1 C2 C3 -1.3(2)
S32 C1 C2 C3 174.61(11)
N24 C2 C3 C4 -174.43(14)
C1 C2 C3 C4 2.6(2)
C2 C3 C4 C5 -1.9(2)
C3 C4 C5 C6 -0.2(2)
C4 C5 C6 C1 1.5(2)
C2 C1 C6 C5 -0.8(2)
S32 C1 C6 C5 -176.70(12)
C11 N23 C7 C8 73.26(15)
S32 N23 C7 C8 -115.96(12)
N26 N27 C8 C9 0.83(15)
C16 N27 C8 C9 172.27(13)
N26 N27 C8 C7 -172.50(12)
C16 N27 C8 C7 -1.1(2)
N23 C7 C8 N27 -116.66(14)
N23 C7 C8 C9 72.5(2)
N26 N25 C9 C8 -0.40(16)
N26 N25 C9 C10 176.83(13)
N27 C8 C9 N25 -0.26(15)
C7 C8 C9 N25 171.64(14)
N27 C8 C9 C10 -177.02(15)
C7 C8 C9 C10 -5.1(3)
C2 N24 C10 C9 -98.61(16)
N25 C9 C10 N24 173.70(13)
C8 C9 C10 N24 -9.8(2)
C12 O31 C11 O30 20.0(2)
C12 O31 C11 N23 -161.98(12)
C7 N23 C11 O30 8.88(19)
S32 N23 C11 O30 -161.69(11)
C7 N23 C11 O31 -169.28(11)
S32 N23 C11 O31 20.15(16)
C11 O31 C12 C13 179.47(13)
C11 O31 C12 C15 -62.26(17)
C11 O31 C12 C14 61.76(17)
N26 N27 C16 C17 103.74(15)
C8 N27 C16 C17 -67.09(18)
N27 C16 C17 C22 162.95(13)
N27 C16 C17 C18 -18.86(19)
C22 C17 C18 C19 0.4(2)
C16 C17 C18 C19 -177.82(13)
C17 C18 C19 C20 1.2(2)
C18 C19 C20 C21 -1.5(2)
C19 C20 C21 C22 0.3(3)
C20 C21 C22 C17 1.2(3)
C18 C17 C22 C21 -1.5(2)
C16 C17 C22 C21 176.73(14)
